30
Energy = -254.96524472 eV
Hf 8.731349299111416 6.568513728224651 2.4069683898510146
Hf 7.878671150593453 9.310959631543746 2.686784709577049
Hf 6.280942456211265 7.176716120905535 3.4995366447452376
Hf 7.518919894479164 4.91229822762329 4.553019219541763
Hf 5.539891129711609 9.7789084026712 4.431245302532251
Hf 10.14097589416708 4.876872821226012 5.38466721291942
Hf 9.015025761938027 7.750814392676757 4.903211745852698
Hf 8.030905310861034 11.530734443648472 8.065966087622693
Hf 5.739550122320293 6.529963040298405 6.303568594559336
Hf 8.15215901172347 10.995464699296491 5.172758135976233
Hf 7.03543880795573 9.07770877686514 6.875955957338683
Hf 5.123173340536403 3.8784532000799845 6.199719236626021
Hf 8.704408874406523 6.364128416349048 7.371644490531943
Hf 3.4255343319767912 5.792821358894831 7.584286225099598
Hf 11.46517224406792 6.931003144004031 6.801114570412479
Hf 5.623169246180642 11.473726650316987 6.642462186517561
Hf 9.965770839832098 9.292512269093896 7.552496059144613
Hf 10.67502664076195 4.545537819196374 8.208300234111109
Hf 5.643367670150806 4.4859504813307955 8.96780133678996
Hf 4.1446917085802975 8.809428056412422 7.265592387333422
Hf 7.916318659635688 3.5871491473613624 7.236843461188702
Hf 5.676326791928052 10.220701355498806 9.37764103649154
Hf 6.860879738915617 7.325546117964586 9.288697695895475
Hf 10.432122168252473 7.129952202311558 9.607355707662563
Hf 8.446005424997125 4.737756876548983 10.065364315254598
Hf 4.131638015343267 7.429461847070673 9.962037314444636
Hf 5.999148471973493 5.800632559908071 11.537605450753341
Hf 6.231441095709884 8.666373200758576 11.706240556186303
Hf 8.57827082436158 9.586170803818128 10.174092521468658
Hf 8.510452923162033 7.05048805794535 11.783771063416298
