35
Energy = -298.02220308 eV
Hf 11.117810665540588 7.165414386480036 4.773544970192997
Hf 11.273179223893417 8.708874677990073 7.403616052563186
Hf 10.777781463292522 5.4895155871578725 7.28110656583809
Hf 10.273440696242773 9.879889163750546 4.836433394627391
Hf 8.832888963377673 5.301461651923811 4.890517517693421
Hf 10.322746741667546 6.8305893366281545 9.627571194353001
Hf 9.307029499070804 9.409177354178473 9.58548430783177
Hf 9.06498702879784 3.2349826478004573 6.854149013169961
Hf 8.551885057787288 7.819275790224975 3.324822917257589
Hf 8.90698698774734 4.070715457738537 9.625648289657446
Hf 8.90427590021477 7.94904119133362 6.34405427078679
Hf 8.655851631073736 10.799606363227184 7.144512453078155
Hf 7.786223666558039 7.350586202279678 10.906618935362296
Hf 8.74070851875583 4.886665372115868 2.2136737645729205
Hf 7.915198273963508 5.937423863965252 8.142130311134027
Hf 7.2266875783791775 2.8039390811050104 4.687570246473263
Hf 6.664865825458418 8.74262295414912 8.348245179862777
Hf 6.102465156275468 4.9401057498991845 6.211503052844865
Hf 6.249639012953526 7.649486587919839 5.304464575358772
Hf 6.47972581652726 2.8038458229638126 7.901292259055715
Hf 7.516058085364714 10.309324988490829 4.47037778121744
Hf 6.677001249798894 10.11023516204033 10.581833702352863
Hf 5.639984471829078 4.994526141094076 9.885289554446194
Hf 6.111957476292542 5.172454529255802 3.374240907424701
Hf 5.033655978474429 7.787884157463953 10.917764748560135
Hf 4.636838669073453 6.986431237493723 7.766684180344125
Hf 4.43695831852231 3.203245958094448 5.012537036846815
Hf 5.385793570583024 10.478252556645755 6.263044929670113
Hf 4.917889105789718 9.137222731901065 3.6018043220728697
Hf 3.59828738614991 4.323249070716844 7.796019768783513
Hf 2.9629216331501356 6.281524748183595 9.889264064490293
Hf 3.63312686043968 6.207060100531729 4.9498335035862135
Hf 3.5078235128462496 9.233559969959641 8.918980637208994
Hf 3.1647564813283937 8.911159673526326 5.901497381176057
Hf 1.880226071501832 6.925153918027628 7.416511257235425
