33
Energy = -279.87422828 eV
Hf 8.664596171406204 9.619877673477788 10.038073440881972
Hf 8.519876188321753 11.026582731718017 7.567519563524357
Hf 7.944422049398722 4.705400867881252 10.641143345749024
Hf 3.1478869130873663 10.656354670362647 8.368032455860233
Hf 4.302891307005913 9.261415043956978 6.149859131351852
Hf 8.573249023897214 2.903231736359492 8.615093089654666
Hf 3.634036704521795 3.042509378742836 8.486494520315413
Hf 11.016704722802325 6.305144717702551 5.776315676477777
Hf 7.016648388927819 10.30167563311473 5.052239578472596
Hf 5.982277893237732 2.489224409930776 9.806816860092935
Hf 5.674927045942971 11.574029264739627 7.2141211733491994
Hf 9.051927890449226 4.029139472157776 6.065771361058332
Hf 7.876580812524101 5.961444698364108 8.032901820114867
Hf 6.758225245701606 4.8985493173277055 4.211306646591413
Hf 10.524468550870699 7.588104254201983 3.1647243001803944
Hf 7.953394553278971 6.589270645080808 2.1608447219872255
Hf 10.018007633311182 8.20889868995043 7.876083533877955
Hf 9.564647044629647 7.037657728390966 10.458925650090034
Hf 10.477587063093255 5.090976323197184 8.57006529278946
Hf 9.672328698334763 4.97192047069025 3.5849496343156195
Hf 9.958795789505942 9.60144020650633 5.231997219745094
Hf 8.301294769011296 7.183398713467208 5.109483226301996
Hf 6.146212591921343 3.5819870590440135 7.136512977048086
Hf 8.294110878082883 9.226850332412159 2.9003733156753033
Hf 5.424300927498079 6.457443003027513 6.473088956695052
Hf 5.819547914473955 7.772037230569268 3.7460428698362427
Hf 6.768325655853961 7.570691294701329 10.558280217930886
Hf 5.113895389470606 5.206616059399353 9.411980373801814
Hf 6.957908884744252 8.685676768433654 7.596974236505137
Hf 5.90005888432712 10.3643335321328 9.725869424915437
Hf 2.8844644586356885 5.720685475512323 7.6857920748872095
Hf 4.108588937035065 8.026388287960017 8.91618657568236
Hf 1.818696921798099 8.440198877724642 7.3641561536106614
