31
Energy = -265.08766945 eV
Hf 7.74543119173129 2.602474889289984 5.376669286807546
Hf 6.937626869983747 3.2612557179692216 8.222421563342294
Hf 4.936456566048764 3.1830711974794563 5.384223960575185
Hf 9.555596410172171 4.238790065899579 9.678989398992467
Hf 9.69442383085897 3.302554348468564 7.100685398514397
Hf 6.840130421195628 3.9843493173920312 3.1816163467888967
Hf 4.43563869358594 5.536956293446073 3.5244598833186283
Hf 6.677823888392272 5.264253362242752 5.634915488371836
Hf 5.093759565723685 5.745290785111598 8.325047122671897
Hf 9.376836082241715 4.986423984307575 4.616586790965081
Hf 9.89868229587323 7.082448249744428 10.101250915303277
Hf 3.2460395066030614 5.407558169406399 6.20245936108149
Hf 8.307740945916919 5.743942214279324 7.773263845340116
Hf 7.077496247818375 5.875078197882772 10.456253132311254
Hf 11.04394347532886 5.795497736960068 7.566233904069987
Hf 7.648920302022365 8.55705317818604 11.336193997826182
Hf 7.477075136480213 8.293213650501778 8.347001005037196
Hf 2.5711332868235415 7.533349398635528 4.619224672527034
Hf 5.108916948062873 8.293232855096223 9.897413898419533
Hf 5.362386851600803 7.682647318176934 5.852896110312035
Hf 10.473872282561333 8.60661246088006 7.636421499391322
Hf 3.120363025905394 8.110823931951483 7.468284859911718
Hf 8.791983492149006 7.889206915647873 5.4959536117286385
Hf 7.193039516722791 7.000789840951427 3.2667508644720518
Hf 9.51753668618354 9.995070687425416 9.789926656955688
Hf 4.694093271145769 8.434935476564297 2.9968376655812516
Hf 6.817749165824224 10.716985924068553 9.752841541765509
Hf 5.332668049867041 10.284345318309896 7.439007123308828
Hf 3.7820287735296243 9.987945660200161 5.146245071925684
Hf 8.387000262009451 10.6365330565996 7.124917063702222
Hf 6.688433528976629 9.845839321243055 4.602754387518511
