37
Energy = -319.09107633 eV
Hf 6.029402029883908 6.871973985046041 12.313071184882148
Hf 7.572604747391451 9.242521425747338 11.259728248604027
Hf 4.771601496148791 8.590764187765409 10.531955415012492
Hf 8.790576703383964 6.531727216140011 12.076623150017774
Hf 4.195259545934325 5.6586501473992605 10.34613133876394
Hf 6.938949541163186 4.369560541962666 11.000706174174606
Hf 3.2740937600749254 7.679795461497726 8.265040271218751
Hf 10.071833907416009 8.00490826259788 10.013024263787633
Hf 7.284226712637136 6.881732051175508 9.732822277689117
Hf 8.773243860377287 9.894668005785114 8.361594931105254
Hf 2.944944789057585 4.850941179668066 7.731876804372495
Hf 5.0484416772333836 3.264332785939695 8.777127779720626
Hf 6.143181613829357 8.57243604455827 7.526504884860388
Hf 5.50171854693368 5.839614717384557 7.611069292439385
Hf 5.897319942443268 10.817064024768982 9.112456992424827
Hf 9.709544717561599 5.201515697080766 9.68068458729941
Hf 4.276814975995228 9.919435833032718 5.90558716783555
Hf 3.6774400961290854 6.870276696166655 5.515625289030224
Hf 7.753441430678582 4.004089137690107 8.057273186668844
Hf 4.908302140524913 3.818657562912312 5.655902494946335
Hf 8.676734855818165 6.941205504739042 7.2895365788213695
Hf 6.921331175072789 11.10927180432665 6.475314446506697
Hf 7.374479258791476 5.311762816657324 5.088005424017909
Hf 3.946042844948106 8.746889978360837 3.3119914941932787
Hf 6.426642616940714 7.922432511717871 4.54767479024336
Hf 11.03244624041941 7.926677633774282 7.079270049691728
Hf 7.791371574540073 2.568152784954602 5.527551775314553
Hf 10.03046609714605 4.485295290357274 6.3048832178798895
Hf 4.880300132136049 5.887543260447463 2.948655589600757
Hf 9.092876707949113 9.522746947182975 5.388219638094522
Hf 6.377660659179476 10.50627591933662 3.6468134502216314
Hf 6.578907482490221 3.457401481526511 3.114670014338044
Hf 9.97217805351767 6.7532045323199466 4.391797285070702
Hf 6.108431895962691 8.286408372974893 1.6748187664461
Hf 9.358347611451027 3.9403666161200155 3.5429762516190375
Hf 7.8264834370833825 5.998551665387845 2.153737783576235
Hf 8.637127073403608 8.7364849528648 2.728175152634562
