34
Energy = -289.06984388 eV
Hf 6.757495563357477 10.757492690736395 10.36964747779918
Hf 4.855202630711338 8.785887489048882 9.500574972953112
Hf 2.9299117343027437 6.849925602280958 8.338325126588375
Hf 7.023803656407197 8.089717799388898 11.318400401277916
Hf 5.10821263949721 5.981139757076481 10.260315016070537
Hf 3.5234230265789375 4.101675817168082 8.860648825479789
Hf 1.6218451817573696 4.494096305292713 6.959491004271036
Hf 9.197859045598545 10.379891679637609 8.957091594904567
Hf 8.1074244710106 5.272214914770519 10.093240710367086
Hf 9.009110769910203 10.115505549202046 11.819624623089112
Hf 6.700249412207449 10.730098549582927 7.496412711878689
Hf 4.747642062852499 8.598222387379892 6.425747000295747
Hf 6.30714413042241 3.3687723357655335 8.651151106230383
Hf 3.283646782548038 6.143357502360828 5.490513373334422
Hf 9.789734813344229 7.7408972388909065 10.233341089894063
Hf 5.552491511125786 5.9048106810924015 7.382674886589777
Hf 7.478205938311367 8.060054303320442 8.416607820013544
Hf 10.79868612850449 5.412212783253715 8.901711216118468
Hf 4.391750097403456 3.4744623612861 6.203305834769313
Hf 8.522216061368542 5.683980775381008 7.072889023207463
Hf 7.423393753720392 7.875733022411458 5.353903973142638
Hf 7.251499956017412 3.2225075429445265 5.901727171572906
Hf 5.860019619720527 5.3675648935233315 4.312503690114451
Hf 9.251522157799352 3.233771891217546 8.133491566424189
Hf 6.41901942496286 10.52750939121842 4.550407994707045
Hf 5.1292195434698264 8.08937905731755 3.4881216671777113
Hf 9.097070874750665 10.190301332847795 5.925459651606373
Hf 10.613711668470582 7.919470583422293 7.363764106147544
Hf 8.828971353773015 4.887252685219472 4.186233223847492
Hf 8.756629525006277 9.619976665533283 3.1754274463851866
Hf 11.07697845621651 5.157325581965668 6.1471975717525424
Hf 10.179081308128879 7.449943070104656 4.440966123612846
Hf 7.7451120310333845 7.011388234819237 2.561770621096691
Hf 6.501386633045796 9.642497440760712 1.6585516271233423
