35
Energy = -302.152179 eV
Hf 5.012006673766458 10.80271705342284 9.031722260625486
Hf 7.773714706089956 10.63969618812996 8.385175218642882
Hf 5.424083727922704 10.65681194630517 6.238915988392766
Hf 2.73042281146485 9.559761443734102 7.614988453851018
Hf 3.7351497526249235 8.858302576467716 10.378279031811584
Hf 8.08190075742606 11.045589081306431 5.4242038497440435
Hf 6.702685660602026 8.593142149675119 10.33399192220902
Hf 10.190046873846253 10.04050720492422 6.921862499461813
Hf 3.8193517960420666 8.825359515629055 4.850330290430812
Hf 9.490740730669344 8.275258895530625 9.208427029202916
Hf 4.919615610627309 8.028259940601137 7.906753515350903
Hf 6.492657039621746 9.081456380175448 3.857702631713627
Hf 2.4236743451664737 6.897069322731401 8.950112518668588
Hf 5.009708039959155 6.24986714234319 10.462913347160141
Hf 7.808412158604657 8.384358604713215 6.59121201841041
Hf 9.484570469347362 8.79524465978292 4.281023734658911
Hf 2.7329382980525296 6.643994897408377 6.024279655507949
Hf 10.958282495492849 7.349898531937277 6.7026091695035275
Hf 3.9909608249467343 4.746110241076725 8.027695609316252
Hf 10.351364529150985 5.576924768819961 8.786773673839766
Hf 7.265329820502575 6.050975109465219 8.411244387048775
Hf 8.152495592232768 5.645861063685115 10.81942479948034
Hf 3.996787929184595 4.13012959150432 5.207669568268305
Hf 4.561900915566153 6.389418395793221 3.275089662593024
Hf 10.810339987662903 6.2907959161680225 4.08531553765292
Hf 7.883373010821964 6.485989275257619 3.1714808132962764
Hf 8.632276851121775 5.369101247633436 5.9239794360556255
Hf 5.735044934871249 6.44539871944339 5.592936634671374
Hf 6.1320174461132835 3.687886761480695 9.699746144054464
Hf 8.768208999343727 3.4095242148244567 8.450628602382091
Hf 11.034318407593533 4.1826263909605625 6.149753561849397
Hf 6.618150391885463 4.01095670438168 3.973775362586925
Hf 6.19688478990168 3.168964445006401 6.861224362702714
Hf 9.492475676440405 4.008680364226434 3.5547157465577905
Hf 8.642689744294119 2.4479850531920895 5.663132467577606
