34
Energy = -292.904336 eV
Hf 4.125473183632635 9.626165879572028 8.445906182749221
Hf 6.365754493091982 8.123038455590521 9.510983330222482
Hf 3.7291196593637177 6.752881024809221 9.318432270333886
Hf 6.791310679291125 10.162082744305941 7.254397147073937
Hf 2.32423566856257 8.000833345221203 7.0982215073781045
Hf 8.273055968991548 10.24797902396142 9.931050192578686
Hf 4.002925704896754 9.717507100429975 5.4213799757918695
Hf 5.30571676465883 7.654272524021744 6.753680220346372
Hf 6.2916130482353685 5.293988691470377 9.79209207926035
Hf 9.027791120635165 7.510157202798025 10.836946250845724
Hf 3.9365647823135723 3.8491820828853758 9.380222531576429
Hf 2.337630496268154 5.076626934721592 7.105690356474185
Hf 6.7591762503648605 9.925546814144612 4.3678699416641855
Hf 9.732787194904715 10.94148547861219 7.595620465851696
Hf 8.947067492805123 8.13287031894078 8.064365991795547
Hf 10.984371822530044 9.43929766716557 9.659297277088362
Hf 3.119772293533765 6.756022775178807 4.772141809103113
Hf 3.607779264144181 3.9073265976739067 4.648090544963959
Hf 3.6878725597311632 2.3815260123923383 7.045553463647676
Hf 5.217336499353427 4.839915299002988 6.941686047848713
Hf 9.464632904253515 9.805503115184068 4.948442169876076
Hf 8.158730893579989 7.802915423451433 2.8825883239552414
Hf 8.060412553437468 7.134389490536669 5.581389088281459
Hf 6.377084113011396 2.643554839562642 8.322839381213221
Hf 5.259114461594011 7.92191575545391 3.4549110629355515
Hf 8.978427317648215 5.171303320085116 8.90818921603153
Hf 11.280531828958884 6.734705643260118 9.146757329886436
Hf 6.284204902130753 5.290503599053667 4.098930061267595
Hf 5.980722167478086 2.5249726042847382 5.371553732661043
Hf 11.496278310302978 8.647749618282917 6.79476435045163
Hf 8.062444153882854 4.2518312608606115 6.377917485176024
Hf 9.242339121361786 5.1615798401977475 3.8890828792081997
Hf 10.740926593236898 7.472703092504995 4.226661436776652
Hf 10.67991530245178 5.665933367128457 6.505625704725208
