35
Energy = -300.68882627 eV
Hf 10.735894270008222 4.714704157734195 6.710225621404598
Hf 10.793856665883247 7.282521556266482 5.310724491098063
Hf 9.773165858246701 10.031479194362177 4.377660120337546
Hf 9.61302283182324 4.887354744879062 4.241502073921217
Hf 10.784531292342454 7.099249105019076 8.298501859462121
Hf 8.193180107197103 7.241619944885113 3.7260777833320335
Hf 11.387441018264948 9.636861652576641 6.91257383770502
Hf 7.6871418490953705 11.889098163836298 5.130745688159115
Hf 9.697534827877806 11.715601848128005 6.916684834839872
Hf 8.256917004992765 3.083554053354109 6.080870292478685
Hf 6.911652650478654 4.625239084992521 3.9668960549844643
Hf 6.599426333288434 9.530982840538035 4.2153702040972165
Hf 7.830451070118679 5.843517688683807 6.582003484498143
Hf 8.596825704110747 8.933633324631849 6.625344592896754
Hf 9.203245444182075 3.931393834039695 8.829706811550288
Hf 5.289011061574611 6.84436593781038 4.600757433838971
Hf 5.32022957710191 4.252618040730286 6.238261236796389
Hf 10.386505131624318 5.481603397471153 10.832342930003673
Hf 6.600992535822286 3.327359775393084 8.487968391115684
Hf 9.306213687695095 10.066860774398206 9.236457666485606
Hf 8.168946962468196 7.248581980993349 9.690544765754984
Hf 6.905258544799869 11.44182260826777 7.875476120741412
Hf 5.709476163806366 8.455886542837728 7.1930237057066115
Hf 3.203433059861951 9.053649302082068 6.057544390533931
Hf 7.432787928048143 4.689177762671692 10.980628936807943
Hf 4.992613370322448 11.34276683129602 5.702956619123868
Hf 3.547048729883657 6.388108843391883 6.847633828880504
Hf 5.462968390690002 5.911631244063226 8.995651258239045
Hf 10.610185473070738 8.243165370452804 11.054739661250087
Hf 8.060634571897552 9.324860635550424 11.85233726301759
Hf 8.715859769960515 6.748256754712443 12.657182026426868
Hf 5.910475979270596 9.552200128536189 10.000470799554536
Hf 4.039563088295948 10.775033565165188 8.216434216069048
Hf 6.041887563558632 7.229341480260102 11.666780110557912
Hf 3.4345635473133083 8.195633645029119 8.956491676995707
