36
Energy = -310.26571426 eV
Hf 7.4670449854175 5.33016549183725 3.0322535391066148
Hf 4.575498987995488 9.321519580180016 2.5185552173265937
Hf 11.049166915370677 7.607500529433594 6.466963096724949
Hf 7.326250398189331 8.256245377687497 2.6995433688795964
Hf 2.8265160184475517 7.967382856392226 4.062957038113212
Hf 10.910729981661765 4.508001383314728 6.289860983940312
Hf 8.698241253111506 6.654532763027182 5.184499564432603
Hf 12.265281097822749 6.132599649311349 8.486075530197141
Hf 5.308557015869612 3.696015496936804 3.6480118561774195
Hf 6.2930985225720555 10.98922905907817 3.8236922328183547
Hf 7.824394353547945 3.6535307748860983 5.375528270327174
Hf 5.740856584889674 8.467270108298187 5.085459927548625
Hf 10.628647387704358 8.36763129818148 9.253409644092033
Hf 8.416164983050631 8.637897027108142 7.418629054094827
Hf 11.193203162929457 3.7103927715151714 9.193125554282231
Hf 4.803306694008043 6.400548867435006 2.6507007005276133
Hf 8.541975241500035 9.700456784670175 4.8816511117608865
Hf 10.604531220813106 6.029268483719715 10.8584101351372
Hf 5.844623817128422 5.710641899425111 5.6087441845412425
Hf 4.985855464883883 3.1242797967346476 6.3427757421786195
Hf 9.353932788229816 5.814193526290462 8.220772800615741
Hf 7.915806439374133 7.183211737141188 10.497851928629975
Hf 6.476142858768326 10.84040475477733 6.711701306342975
Hf 6.593808898659022 4.506301810490061 8.336662619279473
Hf 8.939204891381474 2.8346764203526233 7.932022805915019
Hf 3.114663147965501 5.193922091697292 4.990554278890368
Hf 7.19299847204907 9.969378601124049 9.56176163260338
Hf 5.803854678189057 7.528909068084269 8.33964693282288
Hf 8.551849262344225 4.087939327391768 10.487308298253451
Hf 3.7588911310601483 10.463867519140061 5.19656066251814
Hf 3.757159819846871 5.20623440005856 7.99611858801178
Hf 5.2384569591255286 5.752369575686025 10.562975674709408
Hf 5.340421621387085 8.612122379531408 11.037292405791515
Hf 4.359064280436929 10.04566264214658 8.606159547228339
Hf 3.088854574351237 7.933555714856543 6.822101331684609
Hf 3.170697925829704 7.611083252348534 9.650266763202255
