35
Energy = -299.02054071 eV
Hf 10.512479747432788 5.967477277001481 10.800752204558613
Hf 9.63006321322757 8.58741927762594 10.736526076871424
Hf 8.39271733176373 11.110907727763943 10.807776815673586
Hf 11.671114683658146 7.7661158939384975 8.596071577172825
Hf 11.599263769452946 4.822532880282955 8.615227688920804
Hf 10.130453702721404 10.567672876773113 8.481884682598892
Hf 5.626415352672883 11.343856876750902 10.14053655933709
Hf 8.833235470881737 3.927369315036811 9.645407717983142
Hf 7.6810762229029885 6.252118433885174 11.125280072450757
Hf 7.721427898994856 12.359642739686192 8.442794569743949
Hf 6.600142289978075 8.977363988272193 11.558036414715092
Hf 9.793766693117263 3.668748570274205 6.865037409290495
Hf 5.826383515320512 4.390315144810994 9.902932874399744
Hf 9.205175990156398 6.4192782472066625 8.154249425407333
Hf 7.494642999528021 9.408333596158236 8.647950518856975
Hf 11.254201647426369 6.091281804572118 6.083769325581046
Hf 10.406020248694983 8.879747588374075 5.926845527983974
Hf 7.512393729103546 8.247616398605082 5.720053525034469
Hf 4.754463434761568 6.805649746108722 10.784114516995954
Hf 6.291349879911224 6.760584646784398 8.18893547522547
Hf 8.676239924458622 9.813322113820854 3.5695787002920545
Hf 9.407658574053801 7.252170128794674 3.3753060824166874
Hf 8.398787761370286 5.333922310015701 5.191454386060119
Hf 6.5474862496183 3.2624037278420768 4.540206437995514
Hf 6.833091911280555 3.9392460833958003 7.2864295062095525
Hf 3.8693659266479026 9.516157502327898 11.654772830950952
Hf 8.35371933639064 11.213523531822728 6.053260272177493
Hf 7.193853177050144 5.223715923560507 2.7329832598099766
Hf 4.187237850418756 8.992408604671358 8.911612532680879
Hf 5.457212446867936 11.005293219899873 7.127099967776859
Hf 6.046597709749963 10.426971917782497 4.421048091923696
Hf 4.517301952875775 8.388563382604858 6.105530864475741
Hf 6.541629867923425 7.985129974721711 3.0149445325998694
Hf 3.8025628799823843 5.989705981235255 8.07488963877954
Hf 5.529064955950344 5.831420707714453 5.246723004876982
