39
Energy = -337.82338439 eV
Hf 6.222423908305874 9.182060705579095 2.648356873785446
Hf 8.480933568870562 7.271484383136701 2.611259661236104
Hf 5.8095124883964235 6.528160289327283 1.8292212965301118
Hf 10.912966533926548 8.14120993350779 3.7991567234476915
Hf 8.645566678498916 9.980142695072258 4.124669132813056
Hf 3.739865821421185 7.875723671319608 3.276541206167158
Hf 7.301594724243529 4.63036895597317 3.3637346248885813
Hf 10.09918432322981 5.466901632701759 4.407615639749308
Hf 10.896967939202549 9.887645372993084 5.94224652763001
Hf 6.030329278639085 10.027161843332642 5.443517394803902
Hf 11.809822606662602 7.18326190035164 6.3225652658083975
Hf 6.163764708882378 7.032850891498907 4.673060127424965
Hf 4.207601991243431 4.9081394387245565 3.5364987914034813
Hf 8.297144985549965 10.454303111965238 7.11309932573926
Hf 8.920526162575804 7.670170704417372 5.949147368231624
Hf 2.5187617625330665 6.355155949445014 5.244965257040307
Hf 7.855858257215031 4.461238794669335 6.484510777277045
Hf 3.692376282308814 8.75165309321469 6.239732478379149
Hf 5.672829543266625 3.133555882577393 5.156129893462944
Hf 6.1045166017928185 8.276593527366973 8.149279769870564
Hf 10.573358214754318 4.795067865069036 7.110585767181489
Hf 3.1005900560228183 3.7212849411539923 6.40551252409491
Hf 5.4488420567271305 11.010423282437856 8.228185858913806
Hf 10.430682972500678 8.743734165624808 8.511272565220857
Hf 5.083032673664391 5.580869250039396 7.100993508196116
Hf 3.2771191207718875 9.217513989477633 8.992834133519755
Hf 2.452091195035377 6.552757195065335 7.96503269013921
Hf 5.585438675073346 2.825430666267041 7.854522141856099
Hf 9.068123647432538 3.697646454992153 9.141625302688247
Hf 8.450757432631725 6.52545352629968 8.882247738354762
Hf 5.319920531810992 9.600900126889416 10.7128361855563
Hf 11.138129990245327 5.869105961772211 9.670193234109073
Hf 8.01019231309204 9.830554069586864 9.995600074795005
Hf 3.5700621836266015 4.2230238508293985 9.23080882718391
Hf 4.269384786997042 6.846155523064233 10.256030980437403
Hf 9.785332720061556 7.869557260948532 11.192052503026497
Hf 6.368370755787858 4.6572888384621045 10.01363686946294
Hf 8.895203171549808 5.228249191935368 11.45978308953261
Hf 6.990288350532961 7.431983709710327 11.450125632604658
