30
Energy = -256.48320414 eV
Hf 8.235537521947036 10.983299702677849 6.075363696816371
Hf 6.1666714268986285 10.090862966965659 4.127508383272946
Hf 8.648434675230083 8.987167396829618 3.974476970385546
Hf 4.563156332802962 5.995218780505225 5.621370332278451
Hf 6.758682410533547 7.941566382086645 6.082353585322018
Hf 9.520808247768176 6.520865446810892 4.95496427659716
Hf 4.932445477414105 4.737752094397371 8.08247555860985
Hf 6.331518710727141 7.14937053382341 3.5731503579483586
Hf 11.756594298625398 6.643235849185726 6.76432794758266
Hf 9.782176604495481 10.863310722064291 8.625387329944546
Hf 9.737652416436259 4.544640109093351 7.269458905291678
Hf 7.206302684085059 3.212333558938686 8.310958876579836
Hf 4.094830852531986 8.582280019654117 5.175049817808774
Hf 10.77685915952578 9.302581832667478 5.878688988305683
Hf 7.096216509317918 4.806351340600595 5.860144138550551
Hf 11.865029113506214 8.778554339379577 8.658428318160809
Hf 7.037760361425931 12.18025406926687 8.517742225553697
Hf 7.228259322760919 9.394856930682177 8.657809241640788
Hf 4.6393586176246595 7.896472856876219 8.158297765231978
Hf 9.414564187716946 7.780059030484674 7.75413109078628
Hf 9.081782484955298 3.943718905991803 10.132742450012659
Hf 7.451609414878153 6.06517651593884 8.716353151949322
Hf 7.6910765127118665 10.856193521324911 10.973655348018312
Hf 10.958703561035739 6.124445692836212 9.634080366677756
Hf 5.080673272246254 10.614622438768466 6.917217105252543
Hf 5.024756002918338 10.515923619060974 9.851819959748862
Hf 6.350288175896135 4.626469621813306 10.77889488057517
Hf 8.622774269531295 6.284572125188475 11.49988478540717
Hf 9.721259066593813 8.739064285302337 10.617648660447939
Hf 6.3814333186339605 7.995994321559138 10.91283049601687
