33
Energy = -280.85964572 eV
Hf 12.34159016849348 7.699869483311064 7.425166654973241
Hf 11.53926783822968 7.993351951468969 10.131524376706293
Hf 11.506604310937634 10.255099694205983 8.321382054221202
Hf 10.912992468378857 6.455197687971638 5.360518130181297
Hf 9.682675588178178 10.031471976409133 10.433988214550121
Hf 10.710485726185777 5.611010855096443 8.792921017724796
Hf 9.874740562699134 4.050405309565759 6.447258547253076
Hf 10.576168801005242 9.432990270627489 5.699956177728377
Hf 8.669744628932182 4.89692057580357 3.8279157368775514
Hf 9.480400467289696 8.175574961586783 8.082335966819977
Hf 8.700469602756087 7.131161161704722 10.713530309662719
Hf 8.75801529747284 10.993756700434387 7.759526998178998
Hf 7.965296255644126 6.400971845407975 5.995683429345913
Hf 6.962714596269702 9.850822341937533 10.051708943649151
Hf 7.204943421462746 3.358670422937583 6.124123855657355
Hf 9.158096528807294 7.8162792159880405 3.636771445798922
Hf 5.808860693112713 7.517106750445385 11.197122450544082
Hf 7.8556863481382395 4.917252843023457 8.51944734059873
Hf 5.46849381577227 3.3378112032375675 8.830938083426366
Hf 6.366452807854452 7.189916696840007 3.6341996932410203
Hf 6.5573606730994145 4.869451356542796 10.99207901329301
Hf 7.599485315587819 9.429146000997559 5.475920693743781
Hf 5.7902640766099145 4.442695978723696 4.039590103636041
Hf 5.7318105638729335 10.560359915363202 7.5910055759082224
Hf 6.467468734571199 7.692845780360304 8.20389135975919
Hf 5.09327175802024 5.336662743751247 6.684377969614122
Hf 4.030420967572396 8.794419370470155 9.205748147019522
Hf 4.268596382250815 5.827183528032955 9.6025171288144
Hf 4.76122712849906 8.636121374739023 5.762709958814725
Hf 3.522811350244768 6.230941811010279 4.475204858075913
Hf 2.65747735422571 10.089249647432768 6.981242316928324
Hf 2.634619725790895 7.19758190616218 7.091796530274203
Hf 2.131569420320235 8.654839025750649 4.725110454194186
