32
Energy = -274.69536722 eV
Hf 11.767945395834953 7.080368389298308 7.478920311468774
Hf 5.340800543919077 4.983799863932205 4.253494870289331
Hf 8.521457804889064 5.052805945200424 3.8371558106911308
Hf 10.542067853960402 7.255800648474321 4.8837343065621175
Hf 2.9315778428874135 8.9743704132582 5.869734058073275
Hf 3.9682490114698146 7.84591397789721 10.517693311368074
Hf 9.870241273692892 8.227578496430755 9.600138301641447
Hf 10.374245043891891 4.584906210194815 6.377111091160667
Hf 7.4957823375700885 9.430302030294506 7.632506089999204
Hf 8.877127264082947 6.6052849572812296 7.570360284428169
Hf 3.6154454871983743 5.0890432322194314 9.91879842407284
Hf 6.146493513772992 3.762107594412596 9.513146788522821
Hf 6.686008698067553 9.278171342543967 2.7253488963473376
Hf 5.068355942111118 7.199361975052182 6.29298855215287
Hf 7.450309999252417 7.4050915751619195 4.95984860452323
Hf 6.832208205223534 8.51991086111625 10.488247643084458
Hf 8.373391919006668 5.764438495922632 10.647671238195967
Hf 6.54918706327004 6.488143647492542 2.1909651439069187
Hf 2.7079692519447436 6.123988521686694 5.206654716362616
Hf 8.831578732820079 3.700609242472951 8.61799313514256
Hf 4.1491823980973175 4.388640012967148 7.153810413966799
Hf 7.085562280251206 4.284125714153992 6.4462121892519395
Hf 4.3302610210324 7.885939888404601 3.553423535707805
Hf 2.700649925497365 6.986305208315935 7.988239257419615
Hf 5.716742965071332 5.946631934017491 11.53730527960522
Hf 10.883556693115134 5.351888225134511 9.303840194349693
Hf 10.264351949347786 9.293672562214356 6.976885122165086
Hf 5.6549058258729925 10.05597999583155 5.3233313257595105
Hf 4.6849871507904375 9.426651632720766 8.292428040147325
Hf 6.03169368804071 6.451745714138076 8.74638111588454
Hf 8.728801296861514 9.882373078146053 4.674586755520183
Hf 9.00075691946519 7.731301410546195 2.585339004670418
