32
Energy = -274.7542939 eV
Hf 9.4397175906939 3.961573203284466 7.00355476751951
Hf 8.094133806837876 4.862352238248107 9.708460293282268
Hf 11.09989712595856 5.9966537325102625 5.490217707374815
Hf 9.922456179846414 3.9846198198004448 4.063237258428051
Hf 9.790399246268853 6.738094272225735 7.948417396074749
Hf 7.31111217856626 3.002156425368055 5.17881129176515
Hf 6.962713655777357 2.6605582568655888 8.158049412654789
Hf 8.250685914489576 7.951807998472074 10.20232261878318
Hf 4.958135868808313 4.36144637953192 9.450207125838169
Hf 8.179275020814165 6.038966119212808 5.042912242221953
Hf 9.648621892691802 6.72564174809493 2.9101721692378857
Hf 6.110976793427617 6.154232315286323 11.310210074795197
Hf 6.684280608990672 5.293563270184243 7.243828253658884
Hf 10.100835061600838 8.645301316890547 5.6021776023519445
Hf 7.636706773786087 4.524406439957102 2.598598175212231
Hf 4.693826926952284 3.456267218362376 6.563941837243297
Hf 5.31783064075714 4.776162273419722 4.0795301951557565
Hf 9.443755697718501 9.60511140517584 8.16732930157678
Hf 3.271454357687065 5.756432589694797 7.6446099748637595
Hf 5.639902117028092 7.6171203519313035 8.725463333358181
Hf 8.202437699784188 9.260260379096863 3.6969574080618703
Hf 6.407591723094133 7.222777584788312 2.9291899080318937
Hf 7.235221385634845 8.528013065179803 6.502437462811677
Hf 3.4201269127106593 7.1977376198948 10.312000697805104
Hf 4.779294603921895 7.174339966598527 5.503299112131711
Hf 5.78090882345144 8.862050102900978 11.340722956276085
Hf 6.894853006975416 10.50340448656353 9.145894332990919
Hf 7.870418358249464 11.037467323010482 6.041666069500219
Hf 2.99566605875133 8.453127222250847 7.539298375282473
Hf 5.585323184956248 9.837676144040476 4.376968347243402
Hf 4.010290309597796 9.9978324766988 9.556655446682395
Hf 5.01346879050936 10.5773701595465 6.989575639867977
