32
Energy = -274.63376256 eV
Hf 9.222205885563877 10.536574616106341 6.853157551279797
Hf 8.084208699908062 9.619182428807164 9.256408187998229
Hf 6.248912869709349 11.079644755252463 7.729144908312447
Hf 10.586141517647759 8.408686886522629 8.65940226264062
Hf 7.092192986933342 11.52621383713646 5.006261126057896
Hf 8.61358030057996 7.307069387544953 10.721279108529142
Hf 5.736815088922927 8.763337739702454 10.526455974264767
Hf 4.323468289748848 8.702526278257588 7.885516505872266
Hf 8.96795423945402 9.760157239926476 4.041092347910016
Hf 10.370367939994585 7.984491270917757 5.7127027919589795
Hf 6.970861853684946 8.772847345043346 6.068430142255852
Hf 4.588739167218901 10.416606194729486 5.5057498759755115
Hf 10.299349877861536 5.324214462858676 8.963079453236316
Hf 8.593757784084266 6.806266664807751 7.591216275179365
Hf 5.985926189530287 6.119836111912816 11.634661452084156
Hf 6.166088268790611 9.213974460953247 3.352402415887188
Hf 7.949841589689878 4.5914970599841505 10.469676331253043
Hf 6.23433244537743 6.496773393577354 8.705728614869544
Hf 8.301320927005836 7.022206565245127 3.788672738909579
Hf 3.766861675239749 6.735259369991114 10.05766947407394
Hf 9.477881728994728 4.8202649055070195 5.602981161735758
Hf 4.285947619411588 7.5588484685891135 5.036164780615583
Hf 7.855376241323697 3.7452705252374505 7.87747223467
Hf 6.432248849472172 5.2671168996924305 5.576904321604718
Hf 5.136164285902171 4.0845053959739355 9.612478829306944
Hf 7.930138344027117 4.304259932359399 3.155732411323234
Hf 5.549080884401573 6.007071440733811 2.884711638858269
Hf 3.667114073146154 5.57600002268247 7.401562181393989
Hf 7.624676612423596 2.557070305985904 5.35730449299247
Hf 3.585407997850847 4.798674072642581 4.6773551795307675
Hf 4.943803187516231 3.0266776250963834 6.625061713324621
Hf 5.437652195528816 3.129150336098543 3.6998687435367654
