35
Energy = -298.21372566 eV
Hf 3.540602246167179 6.070354751645701 9.46622801337438
Hf 5.579922465107486 5.469082005041769 4.548342565820441
Hf 11.153349201662285 5.945572465091157 8.526056758542788
Hf 10.391515309432572 8.122696136408173 4.135692438735232
Hf 5.544541111790491 8.273644295267989 3.471867976147101
Hf 6.110091993094138 10.835838023348828 5.1061336306055845
Hf 5.9807192641995774 8.091746840671549 6.3238150653683185
Hf 5.888942497782658 7.9391913262199205 9.478834551866735
Hf 3.6271666008766004 9.413758280302499 5.339775043885225
Hf 5.772287827605522 4.836238002356635 10.523189459012158
Hf 3.3591579720339544 8.357226406406033 8.025993947266537
Hf 5.926555556332127 5.48376623687196 7.680971282385007
Hf 10.133232844845013 10.785188042752099 8.90663151124794
Hf 11.803933939481707 8.55207706941686 9.697157499655223
Hf 11.218396591729528 8.217106620206307 6.869642582849715
Hf 8.638867468590252 6.456438598099038 6.7721192304745195
Hf 4.037509360618168 3.5073380397581264 8.612683026411705
Hf 8.087787297509037 6.579559291444025 3.7998104358990896
Hf 5.023580188109643 10.662788735658049 2.545572983254096
Hf 4.95725833582331 10.492283080664082 7.824093361652674
Hf 9.586488727997532 3.8042738430588408 7.59270685845874
Hf 8.75650332555573 9.419450399923178 6.030078918075123
Hf 7.954216434979134 9.539693063620037 3.252864472838689
Hf 7.801556590964009 3.8547238103863175 5.418554485099397
Hf 7.605227313352187 11.245007959254114 7.787446441037435
Hf 7.695884519070628 7.593000643766763 11.677023753759935
Hf 8.960461522519877 8.19713311130839 9.086998103374897
Hf 5.011244735661126 3.2474734937682417 6.038946164311387
Hf 8.47977930798718 5.181862963568672 9.89937748704962
Hf 6.927697367155242 2.9178397096711657 8.290791500588682
Hf 9.909647457897659 9.51899873379439 11.524824633061039
Hf 7.440437825827668 10.34309568467042 10.465289773532257
Hf 3.422417601450586 5.952854896345969 6.3902675312073285
Hf 10.668776693895808 5.456636318578956 5.322382599456483
Hf 10.440704953618626 6.741836384443871 11.35918005097736
