36
Energy = -310.39842678 eV
Hf 2.0977251228138525 7.57512287518126 6.636810925550014
Hf 3.033737907231903 7.535576197151556 9.3900298053571
Hf 2.440324218254597 5.029271158907863 7.997415268169482
Hf 4.630429744033112 10.082589424626327 9.809772501939092
Hf 4.202628176502892 9.564426826102395 6.879501373995666
Hf 2.636659357339787 5.243781204357054 5.237261362767114
Hf 5.072217858578272 7.706161571510068 11.425946312198827
Hf 4.775086973816229 5.241389557493244 9.844511477604788
Hf 4.713371835206368 6.284727993327852 6.927852943067982
Hf 4.0232346552958775 7.876204063615882 4.425072001767216
Hf 5.026785844821701 3.5328510756712763 6.565985494401933
Hf 6.0317479848646265 7.818776314231085 8.832792707794516
Hf 6.633937929592672 10.715814894186614 7.710451896726848
Hf 7.400581318530193 9.291179709457863 10.915100960895286
Hf 6.2083956994964655 10.252327950831274 4.657399428721772
Hf 4.817118129261972 5.142344494014469 3.54963278927582
Hf 7.213462803296991 8.073666532246186 5.883537461770891
Hf 7.663739040222456 6.315195364152136 10.862801162923214
Hf 6.564969247509067 7.45555465616389 2.913828582638727
Hf 9.076477790418759 10.361454031416239 9.000898463831913
Hf 6.415701357410334 2.672396529970894 4.09590986845719
Hf 7.219910546916626 4.847556401257772 8.298369168940019
Hf 9.165242570997998 10.361925388428318 6.140973752176065
Hf 8.941894479804269 7.382214651195005 8.113037089111181
Hf 10.308899461465364 8.005492707327534 10.429278827834327
Hf 8.741559787706281 9.098985548608741 3.6447603699372606
Hf 7.365852651233523 4.697089416354252 2.338102612206187
Hf 7.274973540941929 5.154831446593206 5.283371290724707
Hf 7.968140862305518 2.6581996642006405 6.554380715685775
Hf 9.944356846202663 5.067673092363843 9.587471823784599
Hf 11.310729707892033 9.30634716233379 7.974101073699226
Hf 9.207010078240534 3.398174312690219 4.0702725635033055
Hf 10.618952696740717 7.790668751498871 5.5302511090755955
Hf 11.715695320121423 6.5862225905603 8.069145302600381
Hf 9.336594166882925 6.332555687929063 3.3235588648514294
Hf 9.949875494628035 4.922154509612157 6.552228424582667
