39
Energy = -332.78943967 eV
Hf 7.279223257050896 4.215811010018022 10.873086045477615
Hf 4.937577251231129 4.3579411380534205 8.803881801302975
Hf 2.85389612979027 4.587916491846077 6.85444119771012
Hf 6.758927448892611 6.075769601708846 13.426359016283364
Hf 5.293070137684748 6.149723204265037 11.109530254965373
Hf 7.5755434650699565 3.198097034792015 8.092370361593069
Hf 3.025532544678053 6.639153191498503 8.833572514280478
Hf 5.673816517815193 3.782696190835763 5.929696163594254
Hf 9.79089244314819 4.914081209964544 9.633881215784612
Hf 8.591683220579261 3.025697459341976 5.516856658248337
Hf 10.298426941987044 2.564935905001539 7.897855936234048
Hf 2.2610448928786795 5.529664769895024 4.2902579156005825
Hf 8.358015953392544 6.882253264477139 11.39955829297098
Hf 7.294033862748315 6.222976589570755 8.595120212134908
Hf 4.880851504672048 6.798826313221203 6.409234410120198
Hf 5.028316344264821 5.656497416995333 3.718042146856781
Hf 1.8030144985087015 7.185076956924849 6.384383053740221
Hf 6.21843330871908 8.605468115114338 12.25541246942328
Hf 5.221541947307258 8.415766677950478 9.283285623491578
Hf 7.483097482324316 4.279927598705733 3.0198561308206537
Hf 6.600972457524435 6.393680780265434 1.2801559911339364
Hf 7.781239860427824 5.919977494596759 5.596432944057598
Hf 10.44756703838946 5.199648484732001 6.9538996026278515
Hf 9.093360811204638 5.065933945474353 0.9910536562537449
Hf 3.548065859265596 9.343391281390273 7.128456193051052
Hf 3.435699196578559 8.274771614907507 4.273008949161467
Hf 9.92321997114326 7.697465208459672 8.409424354944042
Hf 6.39998001732594 8.10695056798628 3.902084747196631
Hf 7.843954813608638 9.267677742030614 9.83372367324417
Hf 7.391149809628133 8.902667897047502 6.965747060195868
Hf 8.908336057577051 7.09961147509357 2.8241511815818394
Hf 10.164261830194606 4.9170051039334295 4.00604785501769
Hf 5.912639855230463 11.137706021643073 8.24915387278103
Hf 5.497398868893909 10.45827074333748 5.303886358560996
Hf 10.193186928088783 7.71410501855308 5.397129120162094
Hf 8.541835356322856 9.95499174667351 4.334512756912447
Hf 10.094332756770692 10.254438434684785 6.712661279632873
Hf 8.80780151741506 11.689143016881227 8.733935935731388
Hf 7.8184734080940785 11.883198942995223 6.218976809978697
