39
Energy = -337.09188727 eV
Hf 7.944885181268776 10.654013779500954 3.906253295211336
Hf 12.150507134744217 8.992087941721746 6.05260636062538
Hf 10.326939768155562 9.115590530630657 4.006534119205089
Hf 9.684356193486988 10.73866268799104 6.422588290583109
Hf 11.33712588452101 6.509162274761561 4.582897191359342
Hf 6.158494229155168 8.505659316166708 2.863623641695803
Hf 6.982511798484517 11.86974698629251 6.32114505179794
Hf 5.063897663215199 10.527669771341692 4.472038272188797
Hf 12.212811062018318 6.531691541730953 7.320868634435299
Hf 11.041659996252008 8.886259906475688 8.751670323975388
Hf 7.123278973673149 9.079334819981304 6.106374431650193
Hf 9.666847369592222 7.671663860417538 6.571591622226239
Hf 8.308447072027757 6.950244791175525 3.9963207998152845
Hf 8.223702058970419 4.09744395337407 4.08244036472057
Hf 3.4377305035107923 7.830645154872294 3.346830852521587
Hf 7.543177587230027 10.034332239176319 8.79538236870437
Hf 9.905879694717461 4.699564218453957 6.586597100356715
Hf 5.58417628944759 5.6960277113290605 3.3612804310070348
Hf 4.73035525419702 10.42062364577569 7.304728221917137
Hf 9.20948363538095 8.374928595541853 10.896243840606026
Hf 7.002614697190338 5.422982879568106 6.288589524906162
Hf 4.920205845128281 7.627212264089496 5.567431533409012
Hf 7.869117518545773 2.6185677428285903 6.386165624591624
Hf 10.403757153335832 6.0798060219254815 9.498585097286824
Hf 6.377977366791526 8.114384926556083 11.120612696887317
Hf 4.91567596333688 8.117884930835276 8.653560587151752
Hf 7.671350140805918 7.03394813155274 8.830245428365629
Hf 2.4908483011173304 7.649924169197616 7.002622985566484
Hf 8.091121112873426 4.041114561642562 8.931277686035324
Hf 5.33368994353991 3.234755057761986 5.108118511157264
Hf 8.147555756005447 5.834600274648948 11.37416410734295
Hf 4.336966593288837 5.33840999172745 7.587093661807937
Hf 2.988853267782648 5.31314667912998 4.963735306926649
Hf 5.553615716448087 2.606597770039572 8.043971907898024
Hf 5.562457310768235 5.295885432874462 10.264988399925672
Hf 2.8124022738153456 6.486718732552836 9.754580029909912
Hf 3.025635671407701 2.8550748823947183 6.788557698803017
Hf 1.4730668079079408 5.048098008387645 7.591257443318891
Hf 3.104203588929357 3.636437889660414 9.516594124768059
