30
Energy = -255.43466904 eV
Hf 7.071582418883067 8.747739968556582 3.5117178626791987
Hf 9.073797731783083 6.635643326114826 4.11138141812944
Hf 6.343294603842292 7.6874842001850885 6.033007561144975
Hf 3.438661165480026 7.424141645740751 6.628854148473092
Hf 9.350577821802611 9.444442047466724 5.123463166794775
Hf 4.911926951179095 5.8207459096627385 4.597293064677807
Hf 11.494620450349379 7.539622719962255 5.460978967627475
Hf 4.442130249548995 9.050338276375369 4.580632445969066
Hf 4.518811848177432 4.967506072911303 7.478124365824593
Hf 9.201398251820477 6.952213754712631 7.040439440512366
Hf 5.540438420842185 3.090801006794204 5.698689258364453
Hf 10.847972278810314 9.18879754582932 8.04879786072698
Hf 7.52740753699665 4.761224604379011 5.919047624675477
Hf 10.603813452676285 4.810228317165419 5.827068473736749
Hf 6.763879777938558 10.801321772077145 5.611222976621024
Hf 7.6394517214241136 9.179179583288763 8.231781089047486
Hf 4.62111648200483 9.971709674268665 7.487160989131232
Hf 9.727306897280982 4.433715346644109 8.641170123404457
Hf 11.745336068682693 6.331165050221746 8.063888264451524
Hf 9.19383639389911 11.403110531006561 7.251292077965542
Hf 6.848847856351246 3.522896773272611 8.57686385592679
Hf 6.855958847510119 6.419268966745865 8.626942264148507
Hf 6.748280911296027 11.852715551794175 8.459759600881501
Hf 4.350666408182546 7.69777931006929 9.37346917968399
Hf 9.776746987814779 7.332176124351441 10.074737065607321
Hf 8.766418169518841 10.43877694724738 10.213325347116918
Hf 5.282340339176316 5.180400103310943 10.499069896230067
Hf 5.710632195298427 10.053491084710325 10.255045357218448
Hf 8.12100387151976 5.076893291138448 10.849579274723563
Hf 7.0087693811255924 7.711495985211833 11.252222469721026
