39
Energy = -334.84190305 eV
Hf 8.32102833363603 11.035998972234909 11.13109816369836
Hf 5.754792619404325 9.569926814790367 11.03526427090097
Hf 3.942174715076195 10.429011970710224 8.897975736213462
Hf 6.598555745714765 11.616835722396484 8.907495246106809
Hf 8.282830556697164 8.377311836993917 12.153356368677162
Hf 4.907986428048121 11.48358882189655 6.505419839969896
Hf 9.681113062830931 11.422600103933327 8.50677757921163
Hf 10.634363024555851 9.335677706009973 10.568154095261937
Hf 3.287066784188542 9.031119314430882 6.459140595836269
Hf 4.005945022896636 7.6339989689506655 9.25551898231997
Hf 8.022131278368441 8.796750708660419 9.392407333959342
Hf 3.5483972273819657 8.081292792196189 3.103909675162094
Hf 7.872512890565071 10.946535211747076 6.198258942014821
Hf 6.25949759247526 6.668425934592247 10.829377510680326
Hf 5.9559605252608945 8.876062362578867 7.382665264271404
Hf 5.712852461413734 9.602301996359683 4.520900485929666
Hf 9.637304841752579 6.402520351520837 10.139507794680261
Hf 10.774543510307101 10.734719523568732 5.737029557522129
Hf 12.117733108543588 10.010308597419128 8.073617029519596
Hf 8.802411786257938 9.056302555168234 4.205991884237292
Hf 6.307298807785417 7.664657678812311 2.6599341155341647
Hf 9.685091185822346 8.463904381359043 7.130544289361692
Hf 12.037204442754797 7.379490668075223 8.85899097106977
Hf 7.451601184161678 6.9150818803400345 5.616475410286561
Hf 4.6073199510832445 6.800447201275956 5.250035703202673
Hf 7.5335468346357715 5.668306530110337 8.289382801950612
Hf 4.612389037675191 5.173898678778519 7.791968121727542
Hf 7.9165692294353525 4.384277551873455 11.176893225098569
Hf 12.221818526287473 8.028126689933297 6.048916247309447
Hf 5.252946788633954 3.9754823563714243 10.33445574441235
Hf 10.099305943700832 6.479968468816428 4.598731154893659
Hf 7.548839314441148 5.195175666902472 3.287723823288355
Hf 4.62866709814878 5.409015653867996 2.7810762518034653
Hf 7.281887249642081 1.85522500935874 10.40852463969878
Hf 8.667023064406537 4.14138400700186 5.8754426434976486
Hf 10.819785591231334 5.559871824328697 7.139135826589703
Hf 5.861378237297981 4.192590295292361 5.391170721478431
Hf 6.561608826829188 2.9387725462465353 8.020081604879563
Hf 9.41219577836998 3.4968445354276527 8.939972624338589
