37
Energy = -318.7312131 eV
Hf 8.859570362866041 3.1208580346304036 9.78558302124863
Hf 10.930251556201235 4.860744113009165 4.428112483742282
Hf 9.99035353035687 5.826175650429334 9.554324487716547
Hf 9.480557826491587 4.248618632993678 7.023915156834507
Hf 11.0882759004628 6.912853560066029 6.41198524084025
Hf 7.929193132116546 5.099955665385856 11.575670535079537
Hf 7.161785988787882 2.343351163921476 7.759481944289464
Hf 5.886978531486905 3.3585021275518327 10.421382274350188
Hf 8.490581753206227 3.4172227348945 4.088647063968016
Hf 10.606973222713716 7.602069937769913 3.570134147074053
Hf 7.211135857272342 5.156659565589665 8.757415016745929
Hf 8.410391020637784 7.4054475393347605 7.581773404239398
Hf 9.58034117382988 9.381888405390121 5.550633500762868
Hf 9.145676828666103 5.5940573497298836 2.2764903911799963
Hf 8.478215194209477 6.251312263773387 4.9549744957847
Hf 8.047598978860053 7.727029755644887 10.534037614857105
Hf 8.579962337645686 10.162171313010731 8.399003998792411
Hf 6.360188070104121 4.236566217186523 5.845417454502791
Hf 5.958354150735225 8.78518705134078 8.983969246945325
Hf 4.28262603732327 3.2615931991057563 7.845976623883435
Hf 8.15659821984476 12.059923569886736 6.236528393406402
Hf 5.299228890591158 7.114942341111643 4.890812125470855
Hf 6.817534600335419 9.502334914903416 5.962026256626938
Hf 7.523546155647466 8.16646340354955 3.0952574371299373
Hf 4.688702023344789 6.324171759273988 7.646322655982842
Hf 6.415593883104589 5.156149859250412 3.0571994458998386
Hf 7.594949311185371 11.019993619632054 3.655507153564481
Hf 3.5865729065195753 4.775045576962238 5.337411002610988
Hf 3.390071727652139 4.949727197303826 10.041354412177892
Hf 6.02166956379653 11.517862942653212 8.077607272451967
Hf 5.461302385965206 6.517516399229434 10.950102838608633
Hf 4.959808899217332 9.703014989783236 3.723908154501182
Hf 4.073699687091053 9.541178464030258 6.738575898022824
Hf 2.025104078270774 5.1804274790497455 7.742144440918452
Hf 5.43277486179431 11.98671658545439 5.3450376520570675
Hf 2.4784267260013126 7.329197005896768 6.008249893078035
Hf 2.785456708875212 7.754875058069395 9.012470886679608
