37
Energy = -318.5940656 eV
Hf 6.838185699169932 11.144086634622314 6.859733879614076
Hf 3.777755625135987 11.049006911439884 7.5140778939699615
Hf 7.606398892208622 10.031352515687272 9.376451149364096
Hf 8.472712266509378 11.091731839213402 4.443683687554239
Hf 9.616270127420075 10.071424462035674 7.009404024920532
Hf 5.009536243419716 9.976748219790332 4.999764873023849
Hf 4.707676035669341 9.844919965739612 10.269538627869116
Hf 10.362486520400697 8.941864428075007 4.377033884905387
Hf 2.7289048704813283 8.730722833766889 6.011970795006831
Hf 5.183898680216413 8.664213770187807 7.689645759555824
Hf 7.472969435908035 8.703862585698781 5.351142989641152
Hf 2.4378881692199297 8.923041108407242 8.815553775780353
Hf 5.940885150666573 7.237954071337721 2.9944500760097505
Hf 10.840088428504176 7.114548109056211 6.33662269377122
Hf 6.677602157643359 7.742765109533057 10.95045850084314
Hf 8.189476429065374 7.5396121465372765 7.90180743281877
Hf 8.52896583161066 8.327228250948563 2.4749691645623453
Hf 9.595170760990548 7.988005192673336 10.101524353098188
Hf 4.978008310933877 6.683437624598559 5.543126261295785
Hf 8.259251457330537 6.226568081910211 4.559970373201642
Hf 7.524499145594785 4.930358938445266 7.0303374893535775
Hf 2.7173223581654704 6.269065300726394 7.634905640684247
Hf 10.448362745973803 5.494693252521945 8.538175594228473
Hf 3.618243021761485 7.008876417363429 10.619590824849684
Hf 7.972774605325273 5.5133020112391184 1.8603802559942793
Hf 5.477342883027245 5.951460022357489 8.683034701691478
Hf 10.620885637218827 6.0858612354784345 3.336769416610723
Hf 8.255413957454222 5.257775735166391 10.223969960477612
Hf 10.344784441093767 4.12441759368642 5.9316947367186605
Hf 6.0666872519244475 4.356781930096691 3.823430158818623
Hf 5.590339852739027 4.99429980955852 11.34179713671675
Hf 4.639156464486392 3.9448564245392803 6.727493314214534
Hf 8.917334644975577 3.5635362444212024 3.5694046211933546
Hf 3.5069299570711756 4.181241850639568 9.508242457063465
Hf 7.600668448050141 2.5127566773422663 5.896364109773732
Hf 9.140831982698803 3.0142990899879303 8.376671374202008
Hf 6.224655654634052 3.107921699633428 8.97720266172831
