33
Energy = -280.02997174 eV
Hf 10.081308448444968 7.512468707726275 4.895143538332584
Hf 8.390064690640466 8.231995677405049 2.782823383257041
Hf 10.498007276376374 9.767322800603603 7.049384084183131
Hf 8.464048932692204 10.101880382525403 4.8096172791894585
Hf 8.525651440707966 4.688232591797846 6.241270568699868
Hf 7.690149178842307 5.476616752540611 3.263927500959507
Hf 6.351957566315512 7.374458610350183 1.2643888484202594
Hf 8.256152143061273 11.879881569152412 6.950884279403875
Hf 10.035054925999148 6.810566751736637 7.629036533245377
Hf 9.247307517977076 11.232976410516835 9.431353098162894
Hf 5.82229211531287 9.271011445757974 3.5893404241050213
Hf 7.2333022090694366 7.372074532430584 5.5390301612954955
Hf 10.13287746117232 8.636023162006833 9.806701959164762
Hf 9.445274082954212 2.1582156118234566 7.098962500641066
Hf 5.7453435573621805 10.5988088193067 6.371710693365499
Hf 7.865931098151243 9.116689119829156 7.923558583275146
Hf 6.411401650308966 11.385611625745055 9.061209599527304
Hf 5.812366864749315 5.743120034692653 8.02026460563393
Hf 8.04128829417361 6.688956017087886 9.856218718999026
Hf 4.4045308256052955 7.974203076092689 6.085345761129699
Hf 9.224920546385713 4.141725802148856 9.080782154303165
Hf 4.956255619890378 6.563822925518248 3.518559111479853
Hf 5.753853585078742 4.566506040371001 5.292770082629644
Hf 7.5769719507479225 2.2883544302762204 5.123771697495125
Hf 6.777281399771297 4.234170720945979 10.639592229347636
Hf 7.466669447200262 9.361235410770606 10.800998452893001
Hf 6.772017791015216 2.941819174264803 7.8898038686051235
Hf 5.045569362613318 8.827104280255856 8.85624217853505
Hf 5.190738761493648 6.626766694511537 10.696605520877647
Hf 3.0263363204790346 6.315238519947335 8.487172518770485
Hf 3.0148732206117477 5.5529091170265055 5.696536349218059
Hf 4.109044452029199 4.113345471952094 9.959545655500015
Hf 3.7674872993872253 3.601231995879204 7.343613438024416
