35
Energy = -301.3442095 eV
Hf 9.101142531375608 7.826380460551418 3.4305651405682105
Hf 11.32597537783518 7.627611145002581 5.474288453773992
Hf 9.81826964190063 5.304469648306732 4.17919967166468
Hf 8.719248159026609 9.960115509989317 5.1174925886485685
Hf 10.231015448260239 9.670578099810388 7.853862458295205
Hf 8.150360728652812 11.720201922208636 7.321536069499383
Hf 6.472396827775044 7.9256479666803825 5.5321375064760305
Hf 6.9456059893024396 5.900207778233817 3.5361963617172876
Hf 10.895062545479762 4.885865958856786 6.664294802021809
Hf 8.902033749520623 6.9727082531174815 6.540320920285963
Hf 5.983897551158125 10.87425582572926 5.779633980023407
Hf 11.186180886608492 7.001616611905867 8.359169626850933
Hf 8.474472012208384 10.756721344397965 9.915501764347749
Hf 6.516697799519983 9.057659793037379 3.164532535060031
Hf 8.139127791912982 3.9951490827920373 6.324853636646852
Hf 7.106567588031606 9.08240054690182 8.021811207364314
Hf 9.140819522861596 7.916299476641847 10.089344141958117
Hf 4.1071771152830445 9.231031566570916 6.9778622637311845
Hf 6.585370746389487 9.109196754721731 11.009219439096912
Hf 9.036066165482172 5.102301880356515 9.059217674210782
Hf 6.605755321610322 2.91827182380686 3.950133857668721
Hf 3.960283294666135 7.169773143198019 4.435331526008153
Hf 6.037853241310607 6.35576772565807 8.026763170854021
Hf 5.624300308151655 11.140869519272842 8.963754627658728
Hf 5.254179547785848 4.714197543131709 5.682928656579376
Hf 4.321162369229112 4.508949614297822 2.9850137970080177
Hf 5.9948985972636075 1.9988031206199668 6.582741524311646
Hf 6.748685819683808 6.20483638917153 10.738346249906165
Hf 3.083952625122802 6.515949955345933 7.344442293307618
Hf 4.329952994776177 8.211995248717905 9.607387526319727
Hf 6.304826653404597 3.6438167094261416 8.990308561693226
Hf 3.8652174345277794 2.364695228955683 4.814457446471706
Hf 2.4262827782451337 4.804288411068526 5.132850349016588
Hf 4.106184358306044 5.309823594391417 9.840937728181036
Hf 3.5635139083017875 3.440648702526464 7.617393885312015
