36
Energy = -305.84365884 eV
Hf 7.01167246534959 13.209489112771776 5.615610233654541
Hf 9.284220118227868 11.889743845634756 6.220331595672238
Hf 9.509307211918776 8.806809285636133 5.5598086239439395
Hf 6.998821715674263 10.36494964699353 5.498907478176787
Hf 9.474851536922953 9.892789720122158 8.283299585020137
Hf 6.813048303878361 6.9003783878915215 5.590615086104231
Hf 6.915462730511554 11.697742675982504 8.02380743784917
Hf 9.069372271493975 6.670124213043393 7.631785498136368
Hf 6.787024901828221 8.52584272142649 8.07898636691089
Hf 6.6645904715926605 8.665923633003912 3.2545424480543423
Hf 11.18327700894968 6.431103869706311 5.585915684943669
Hf 11.585121737201293 7.347054729831406 8.413628706221996
Hf 4.688725585152505 11.885121829146184 5.783859228222163
Hf 8.968103136129677 6.670829990982247 3.518975555518572
Hf 9.633920731745377 8.099746963070235 10.397451237303981
Hf 7.428962404670987 9.858859950699953 10.488709882726614
Hf 6.909422128751916 6.6996452065810255 1.3106480453226252
Hf 11.120200247577056 4.603338806537697 7.613873006499834
Hf 4.319447710292004 10.073399803670904 7.900116287347683
Hf 6.516138128465974 4.929596067543465 3.4631224470526965
Hf 9.818242900529867 5.3119867919313535 10.125159351716308
Hf 4.439845048741552 8.73134864115591 5.2454406739588935
Hf 9.055733070507243 4.421737766362562 5.467180067073019
Hf 4.5515843289197155 6.879549814329606 2.787766986546489
Hf 7.167362959813211 6.875464465640152 10.91984064335176
Hf 8.72771057763695 3.2990222521643973 8.26504510187316
Hf 6.499434054110426 5.360604205101775 8.244804267820799
Hf 4.84344744328503 8.522631030896155 10.27508928377842
Hf 6.198355709599147 3.427632690601381 6.008726502437142
Hf 6.982321472868695 3.7806663452574205 10.620163117198297
Hf 4.112399108056036 7.115693196171766 7.759960828638953
Hf 4.2768564825086655 5.394109170300162 5.267894731375833
Hf 6.142820393997161 2.012836968797663 8.511891419541854
Hf 4.563643584084549 5.554721996498382 10.407534299604377
Hf 4.0558874785927985 3.8774875310920174 7.9644075872894655
Hf 4.368418566434996 2.594527671636245 10.522368978962291
