39
Energy = -334.31589579 eV
Hf 8.958017416795476 8.438872196721881 12.316806825181123
Hf 10.429172323686048 8.28383319344137 9.877143226745504
Hf 9.121280896476508 3.3527541699827634 9.717251835588952
Hf 8.977239206997993 5.833535120130073 11.059506708242463
Hf 9.153957677606062 2.753499367833449 6.968679093265918
Hf 10.940458545892257 5.101223233391507 5.451386163072133
Hf 11.526917212692688 7.429953852408464 3.9263402903896747
Hf 11.696295869184816 7.748031226473605 6.765905268485768
Hf 10.048463178151687 5.8023521632258594 8.225240324691024
Hf 8.211027722547389 10.38630701121493 10.405853800544307
Hf 6.511825610035809 7.1040543527965605 11.87958343525443
Hf 6.46499497701947 4.358328050928074 10.482339294586081
Hf 6.906005220801279 2.07674712624099 8.771274497085418
Hf 6.3911300102579345 2.466684480004019 6.134244953729442
Hf 9.59904599994199 9.743968432276105 7.574349370293735
Hf 7.7145222063513765 7.653849976004827 9.093930758624465
Hf 8.162617665805715 4.2418250164844675 4.727704794458184
Hf 7.318207979086158 4.888794061192854 7.674255893627133
Hf 10.665977162875624 9.821275629843065 5.0044899699982635
Hf 5.0037241557409855 6.580621034477105 9.07651033201966
Hf 5.12718989624272 4.862545336161089 5.275215055243868
Hf 6.626106810099773 10.131301595853481 7.8710887443891435
Hf 9.570701715082436 5.8364205056433445 2.945954141751598
Hf 5.838104685607317 7.684127285961838 6.286137520834764
Hf 6.763441531886 9.938809350815012 12.931179231691038
Hf 7.880568438023288 10.260915314910395 5.190738088089518
Hf 9.001584837954132 7.309227223518911 5.577855732773879
Hf 4.637819380495628 3.7894420454316307 8.026404487943733
Hf 5.46353501059016 9.45473747610026 10.464819804557248
Hf 3.8258365077830487 7.302412773311733 4.058348996572905
Hf 8.998852319569325 8.661539436180023 2.9305355215103943
Hf 4.6562285898954645 11.751417196002068 8.846569345701994
Hf 6.820340067604724 6.613212100897774 3.4258266659401375
Hf 3.172807518798539 6.416969430551002 6.750995680611444
Hf 3.834779779311038 9.126685596191448 8.093483477125796
Hf 5.961408369988408 9.274300163693367 3.413280107825672
Hf 2.1879423401851334 8.992657465767879 5.6503740592026075
Hf 3.1283302238039563 9.995980732576676 3.330710171974092
Hf 4.621498207805802 10.525955420331195 5.765603492155097
