37
Energy = -316.73027436 eV
Hf 6.820064012723959 4.6342714949812756 11.257828753257744
Hf 4.108231976705315 4.39753723094322 11.193107543890054
Hf 8.077633608828755 7.185245577511468 11.08244482696022
Hf 5.254438201888153 7.096768228527569 11.159764245254244
Hf 9.090347265107178 4.458715895939724 9.136550247584095
Hf 9.710254876711755 9.444730807694183 11.171388489780195
Hf 10.4199632975398 3.5318987045733343 6.502695220067104
Hf 6.908152460699418 9.88710942387656 10.618437429230603
Hf 5.442636736189239 3.384787289712421 8.842586564542545
Hf 10.79978202157002 7.062047226644997 9.872449645702165
Hf 9.040545715080844 11.633181595260027 9.666510386426369
Hf 11.902963300514287 4.989085791887339 8.1779045577395
Hf 6.713179085827787 5.956645704408358 8.669507054574167
Hf 11.319515800295733 9.953147102828584 8.768553766775849
Hf 3.7554885875775748 5.896722789144501 8.844139907527097
Hf 7.530572376406142 4.176794786470623 6.335661376949754
Hf 12.425227687128327 7.565284792330023 7.587809595092949
Hf 8.598716094505946 9.024153960291311 8.373001038243414
Hf 4.762773750368852 4.922713985965636 6.402247339401956
Hf 9.623933591163008 6.379330631991378 6.966124791387827
Hf 5.557028850457493 8.496605151279205 8.365063422783052
Hf 11.846186631259744 5.9756537851963385 5.305536101777736
Hf 10.781709881598097 9.124277117959444 5.855501665102569
Hf 9.580361090678334 11.474870609094367 6.979747556254797
Hf 6.860792683029056 5.485324558869394 3.5845924206503494
Hf 3.3485456838737773 7.755008699444692 6.281184662088375
Hf 9.516696051047436 4.707126207784316 4.270759776862986
Hf 6.759367723801273 11.263950879840175 7.868943068645897
Hf 6.501339323727198 7.217705725502819 5.861511380541664
Hf 3.408954302881071 10.124496936033802 8.143148114707953
Hf 4.24093799830517 6.4174523151931835 3.8481097043074546
Hf 9.057041680025279 7.4769688702598005 3.989223997578454
Hf 7.968674696436253 9.957821513146847 5.312251377181417
Hf 5.0236746836436605 10.009830341035004 5.7149408051286095
Hf 2.2372458046367787 10.360666455396121 5.6775850860947505
Hf 3.3582814495706708 9.049406224878586 3.5583104191214336
Hf 6.302601092470009 8.290363841196676 3.1991223581513815
