32
Energy = -272.28077702 eV
Hf 7.39359134107884 11.540886642825201 6.359325078821175
Hf 5.636811052867495 11.544303971188912 8.70366231494765
Hf 4.866424836383729 10.48709231817656 6.0339328532786505
Hf 7.175318265897366 9.619606589770784 4.470680442643311
Hf 5.621390162147202 7.744699344344999 3.20289238910969
Hf 8.695515338661513 11.350016706223208 8.835545050819686
Hf 9.388243217605584 9.371399590828243 6.164678914796427
Hf 7.0993056415931965 5.212907947057007 3.072725919220612
Hf 6.803783576711235 9.032561704800107 7.964312940646529
Hf 3.684830168834545 9.382494108358324 8.317603670062935
Hf 8.750653568526111 7.375917914080464 3.9439276884136243
Hf 9.928612054908168 10.354799880759884 11.276478418330411
Hf 3.8596595915240703 7.742082085661319 5.693429527510955
Hf 4.418589128415365 5.39368700596823 3.9406805423949107
Hf 9.939040358892473 8.70166748413283 8.864081300365397
Hf 7.125780155126759 10.985974982910395 11.130535261287962
Hf 6.524457318741964 6.496669784434751 5.719523680536498
Hf 3.9417057248096063 4.979307922201225 6.562606979622864
Hf 4.92642534443672 6.786680323271293 8.433294117370448
Hf 5.213811020293254 8.905493808645435 10.543859559050452
Hf 7.969063250772074 8.371818945344875 10.911519998932173
Hf 10.83768788435057 6.6730629112479125 5.884980565375062
Hf 6.218195712665979 3.559507133925249 5.320969375361944
Hf 11.83353997606403 6.838849588513951 8.407759868124003
Hf 9.172745814877599 4.580326745356182 4.987953432652998
Hf 8.591073147315436 6.098913620805561 7.854532680451332
Hf 6.082194319699281 4.021773126261263 8.288526627356788
Hf 6.889699234337922 5.895083989401379 10.393687351646019
Hf 9.962590925265275 6.136589269900364 10.464697168429696
Hf 8.40843253649345 2.9648574416034728 7.108360903844047
Hf 10.823737668956433 4.304896356985593 7.75080381045894
Hf 8.62302393975412 3.7620248691703586 9.708942583259182
