39
Energy = -337.28752623 eV
Hf 5.1926469646093505 9.986814158992493 9.610708970897921
Hf 4.14675464005533 7.32886061449787 10.505171062393625
Hf 4.314593880564957 10.918651151681944 7.105500713318661
Hf 2.6983054650513636 8.858131096076953 8.231286040755553
Hf 7.350203212837107 10.875333347190677 7.3714809796821745
Hf 6.990241330215636 7.897535685016946 10.595262283823816
Hf 1.7013717593066795 6.273316685933732 9.170449800035593
Hf 5.781926950501258 10.541337582794316 4.736089187728163
Hf 4.157024558983252 6.08073862926369 7.689361631151631
Hf 8.812301927379 8.426548019461789 8.34176621002959
Hf 3.4358350482252042 8.684035990516781 5.325275369538179
Hf 3.4801990142024333 4.4429143764448735 10.124253103484843
Hf 5.767626780707572 8.445463040284919 7.237303022062448
Hf 1.5542055840222246 6.785025534827956 6.457133639702648
Hf 8.562280088461574 11.500668760925963 4.629512346301352
Hf 10.190149081821339 10.480816338118474 6.614619680783528
Hf 9.107135533473734 5.886695498841601 10.38335141652386
Hf 7.040823354684603 5.742710320445092 8.435152024956915
Hf 6.137515611166202 5.162007754884931 11.051307712500899
Hf 7.953465132937427 3.299846352045451 9.764131210045955
Hf 6.473542881283066 5.935340002266659 5.530607919676881
Hf 2.369851822074164 4.047776352142657 7.261098889825079
Hf 3.502728418086329 5.637641745786355 4.790431551432102
Hf 5.381843399993234 3.1408862911565816 8.543270464599813
Hf 8.17905287175362 8.718888602297556 5.422198921247867
Hf 11.299390069072999 6.852218725253882 8.720188066885965
Hf 7.791086862267728 3.320108782636819 6.731392765259959
Hf 7.7134710522190835 9.689290581744963 2.668674729956864
Hf 10.359036559626857 9.275197528532065 3.7049799651157573
Hf 10.47257966747884 4.033140452095886 8.42564386837907
Hf 5.608085440014527 7.884867977877358 3.5216766217300726
Hf 9.37850243774593 5.910076829117707 6.464491098999356
Hf 4.9412422325712875 3.500892881520184 5.7590242377006104
Hf 11.520108771919926 8.052812114607148 6.071999721504434
Hf 8.363682646145731 4.304572392540132 3.9879070296780093
Hf 8.386034280715698 6.997481195248386 2.9134511907666596
Hf 12.238197717279654 5.390889257669383 6.495495481379357
Hf 10.51364390529717 3.411614115575528 5.503685715336987
Hf 10.87959561971858 5.933966667671174 3.9606030980040914
