37
Energy = -316.03151157 eV
Hf 11.67469479418442 9.36985910356921 9.06533196115975
Hf 11.764388571664497 6.711431352659083 10.020661952443701
Hf 9.539938523435655 8.472826577485332 10.821182701687867
Hf 9.119557754366888 10.488606386011641 8.332560987958866
Hf 7.031340556250635 10.268708662734086 10.23689403157392
Hf 12.558815896138382 7.242831974521491 7.4486859657039215
Hf 9.350132899063901 5.460559837231773 10.384646456503086
Hf 11.028047108764286 9.397592694572934 6.2206911834754255
Hf 6.242284332785499 11.396304267220533 7.542485915856391
Hf 6.7799435968131645 6.690338999172057 10.159008887001237
Hf 9.650052669902593 7.450874715560651 8.19388510220222
Hf 4.588758399405343 11.522995063070706 9.957303243282984
Hf 10.821995088151251 4.847607569798916 7.714522464470712
Hf 4.608380172173667 8.670265699472468 10.710500885248702
Hf 6.831770779166592 3.932139292666726 10.849771971987522
Hf 8.283103838768177 10.230265370467025 5.385203613252835
Hf 6.694018782565287 8.574856248477802 7.941516448485362
Hf 11.242231717085389 6.3728226473651395 5.09491798909606
Hf 8.430919728764087 7.231460214827358 5.529987957653829
Hf 3.9487558984949254 9.6462768987185 8.045901917480665
Hf 4.465356750143572 5.5218334422913 11.28563925038163
Hf 7.75024458723725 4.830768719244283 7.998092764506575
Hf 9.003695983989237 4.330710608040937 5.239457718954582
Hf 3.914859362935173 6.808412865299142 8.66956261241432
Hf 5.476358947115548 9.137244628995283 5.378802318524519
Hf 9.294632142443104 6.1714725939421395 2.986240069448509
Hf 5.598102948181078 6.265334850334095 6.234431597521247
Hf 10.09328497261274 8.743413929975215 3.628481581177662
Hf 4.982850083711601 4.138688985515027 8.81656995249242
Hf 7.3070142234442494 8.420963536750817 3.1752760141430656
Hf 6.669003959251534 5.3931954414478005 3.61381196125172
Hf 5.920000739482075 3.457374324031954 5.975370842825735
Hf 2.9081800369554376 7.475544655938555 5.905682824523583
Hf 2.9618267091683506 4.679597843691875 6.653703224439533
Hf 4.264590243752476 7.232853686561306 3.371190793376584
Hf 4.110330775108332 4.49795527342045 4.105776570823546
Hf 1.7447584016490034 5.794649233661798 4.110988343451439
