36
Energy = -310.31955569 eV
Hf 5.086117395266396 7.274561991690489 11.581950007450473
Hf 3.9270304660204447 9.40589231234143 9.930550738494055
Hf 8.536170201051217 8.154190769111246 7.23031092939358
Hf 3.233974405508457 5.358861412110229 6.057588641076297
Hf 6.512400270345523 11.630348695748744 6.469515906535224
Hf 7.975364835860787 6.380516639663052 4.785065425291558
Hf 6.8122843227329595 6.860584495646356 9.284140299709133
Hf 5.488415669772514 6.732972928890543 3.3983432438395753
Hf 4.504681506892445 9.68858843125086 5.159685456777634
Hf 10.046074238960072 3.4949648215129274 7.685955946939802
Hf 11.029621294389004 8.804672048712712 7.652441070328153
Hf 10.204555309947024 8.368292212372 4.670786585515604
Hf 9.944413612504123 6.053098389169521 9.151684696285752
Hf 2.9208281818272637 8.432036221529719 7.15856807505232
Hf 10.787115260677744 5.867125195688187 6.149246485515256
Hf 5.794796032414871 9.24632965051425 7.7737821191145
Hf 10.22120407677326 5.731093941049533 3.260228973081057
Hf 9.34028484692432 10.716094978341337 6.030216980696229
Hf 5.055715403278473 3.901725941345421 7.923639517751784
Hf 3.7513694621837304 11.166614568573877 7.500658569913036
Hf 7.755185166511296 5.06632758747781 7.272157656708088
Hf 8.198257312633523 7.572941224904416 2.295468928222011
Hf 3.778469315242511 6.373439067599365 8.967836701050642
Hf 7.174081634258805 9.190124095142675 4.605380327148633
Hf 5.876942636205349 4.101621148748323 5.032579789611845
Hf 7.396519724990071 2.3621974416560763 7.112573860207706
Hf 7.909521806791547 6.339019552916218 11.64370863039499
Hf 7.56706412889486 4.761904177259805 2.5608147480800256
Hf 9.113069383250659 3.5795553559358617 4.917215876216789
Hf 8.017025307546875 3.7522812243237444 9.788349786157852
Hf 9.50186201164076 8.547593615447001 10.25153835269324
Hf 6.848365839727367 9.435848427612571 10.915915059381039
Hf 5.497793730889104 4.721388422812696 10.737581464411466
Hf 5.8001776332597 11.653751968598275 9.361668025037948
Hf 5.384290222875079 6.867304735913771 6.295445110961544
Hf 8.539767343260296 10.791150283581812 8.749684100568267
