34
Energy = -291.31789848 eV
Hf 9.406425624401503 11.557205362364149 7.856286352394556
Hf 8.2724342328148 12.122678250195834 10.408276136437825
Hf 9.715016263028165 8.819245211909706 6.57966487240728
Hf 6.479855821228028 12.06634269814567 8.015277052896733
Hf 8.028940956123511 11.218334674402906 5.572731772663577
Hf 8.5222483519719 10.140910548256961 12.398574983042584
Hf 8.990396023142406 9.359506272210092 9.792893829809582
Hf 11.122518994951234 6.107112425309823 6.300763820160906
Hf 6.177072911256154 10.249259745121273 10.676800449846132
Hf 11.103240239836406 7.529166355557712 8.80956592914653
Hf 5.271312458097369 10.717789470822668 5.653561654700984
Hf 9.842421300367127 6.876880887863302 11.192723312891827
Hf 7.082291940450901 8.62740311798468 4.497046061107961
Hf 4.180066296550155 9.794325969475837 8.132236506593818
Hf 10.099883678579205 7.795477545263213 3.9567941248279594
Hf 6.984081429215283 9.333671319055023 7.4978951225445805
Hf 7.232848362534917 7.7392861640651915 11.900131764478195
Hf 10.210572309661812 4.909683557158833 3.804893746379254
Hf 3.831340344632293 8.161900268950271 5.602712919738138
Hf 9.2867674588162 3.5444933631426565 6.23993703757974
Hf 8.285235912622072 6.660910427785626 8.613209985467611
Hf 3.1880666025063173 7.026743751380269 8.204642566756158
Hf 5.421227364338795 7.602558077995754 9.802806257759267
Hf 8.30969065831055 6.1621619223293065 5.493535856724642
Hf 3.5770753764297036 5.201277913674198 6.151929213392389
Hf 8.035876194102487 6.427773064953652 2.6206710707064738
Hf 5.482165707790225 5.92362373646034 4.0411411268883155
Hf 7.583129627870705 3.8716894892285385 3.7478473431341404
Hf 7.552241890466814 5.058460357929543 10.835464342879979
Hf 10.20105387144397 4.680300184828759 9.048595179437845
Hf 5.817235198654591 6.63903533238204 6.9707957620635295
Hf 6.070114558286829 3.700414604593416 6.125542617036212
Hf 4.930619121357359 4.70453111765614 8.895526009587531
Hf 7.561885601019971 3.6051048163989603 8.49263787999819
