33
Energy = -281.7463242 eV
Hf 7.345952142148362 5.577009188737581 2.4449019249473336
Hf 9.653018164135878 4.965160620537509 4.545549576670686
Hf 9.19656400090671 7.568393497938541 3.3206333582733176
Hf 10.65893737115611 7.527466890098206 5.7562031037517745
Hf 10.933867253094185 4.922631885683668 7.21981038103881
Hf 9.077258858558693 10.117047986865446 4.560003913892626
Hf 6.67756826365451 8.667001404651243 3.277925134987959
Hf 7.271525422726955 3.3241173470522876 4.267101585982956
Hf 4.840895916036655 4.556558905811471 3.7261859071648242
Hf 8.628681658219916 3.2485242060530877 6.765096866294854
Hf 9.36257150170506 4.281940251013115 9.475743676331907
Hf 6.836392583295242 6.048893885378076 5.049759573367276
Hf 8.333572315337001 5.977207432438144 7.554653321527816
Hf 10.31604763938932 7.451713195124764 9.179757502942076
Hf 7.816324586222771 8.480865492399799 6.0970767162131585
Hf 10.112685155251677 9.867570476789734 7.2579517072233966
Hf 5.448657675133373 3.7952239818068723 6.607085899386035
Hf 5.316431343211098 6.9793602599166995 7.4240510535223985
Hf 4.183636430017563 7.575314646206381 4.333861995525725
Hf 9.46663339748525 10.550828080241686 9.727959013389926
Hf 3.1445619820770676 5.43578626473992 5.747198203309811
Hf 6.189901091330049 5.155237183338427 9.502011051885873
Hf 7.484589709130409 8.397821951635423 9.099509980351245
Hf 5.111601685397277 9.785226871616198 5.843972359224121
Hf 8.211173001937361 6.210098417327967 11.109217068144368
Hf 3.384922333551718 5.089858963434378 8.422616655019045
Hf 8.741461841827116 8.78822211595952 11.680920271146174
Hf 3.6814336376293806 7.371226219345973 9.807608775843063
Hf 7.372315018505088 11.073710289494148 7.701803203673783
Hf 2.839849796019901 8.046890531617784 6.975725401263042
Hf 5.909844869464277 8.024727968919896 11.401007300782307
Hf 4.76246339026067 9.785273478209483 8.723141409916783
Hf 6.807750773485307 10.726260276653068 10.636125696396217
