30
Energy = -256.22262083 eV
Hf 4.911989859219524 6.58942017076367 4.542009956685549
Hf 5.949107915072053 9.273083201531053 4.278683388518891
Hf 8.852279621039294 9.586247491683526 4.091085970046226
Hf 7.886803757977966 6.948039235099892 4.152290468017991
Hf 3.2705931292712793 8.580883787654026 5.382607839909198
Hf 6.564158316882424 5.420669832152901 6.3451679059500306
Hf 10.57531449838675 7.64445813216858 5.360773951019168
Hf 11.839784548152723 5.660645116914616 6.924461295176861
Hf 7.442109393680622 11.406342379037293 5.6184623011865025
Hf 8.114585154287962 8.656504900809317 6.687769111524736
Hf 5.4272272752460236 8.12784851578822 7.342002390006522
Hf 3.5130978904388264 6.1254233131915585 7.104638987819006
Hf 10.110019608489534 10.517813794704264 6.614576793835843
Hf 9.437800678745093 4.693612373367448 5.5529439452731895
Hf 6.237546843376915 5.398257967574519 9.139799292898115
Hf 7.8009182520400735 3.3826623491246206 7.750382393252405
Hf 10.526453247611153 3.5377715828445324 8.055749159692176
Hf 4.689241158382649 10.829160816999327 6.644604751356623
Hf 7.189622897321481 11.05433505084712 8.355188603136655
Hf 2.731733906317747 8.837390608949304 8.035574508908972
Hf 9.467132478983867 9.771113245204551 9.377978013897067
Hf 11.405675957407635 8.138479369143946 8.279021820768014
Hf 4.2793879754517 7.335146539593888 9.94857599075063
Hf 9.122217065346378 6.145812823968679 8.084149309938189
Hf 6.924718381814886 6.256121020559567 11.681498107953724
Hf 8.832329978459356 4.358375522035903 10.370412511041629
Hf 4.673061607953328 10.176154732675668 9.506315984726875
Hf 7.005518050480835 8.521472157950972 10.005882864515465
Hf 9.57362783218109 7.29843054235608 10.837903444200867
Hf 11.474357202602762 5.556737907926857 9.757903420615209
