34
Energy = -292.21274259 eV
Hf 4.812035000764177 6.912325117687873 3.6536057601026295
Hf 2.616808275631022 5.1826119963653206 4.318795231147241
Hf 2.5549275247569976 7.7288127221618055 5.192297519834112
Hf 7.303810972011244 8.775855057765565 3.556859965911814
Hf 10.157044814537862 7.237686059565036 3.3767962698298715
Hf 6.239131569903727 7.881413938517469 6.320024174917306
Hf 5.288513508566731 3.9137967247027534 4.396780998656161
Hf 10.095009001374523 9.911755612134165 4.139419150494589
Hf 1.6983850875679938 5.716157053122664 7.210157335438562
Hf 7.639431799250996 5.982276646698455 3.948956261010027
Hf 2.961558230612856 3.1141968489179686 6.023688996452059
Hf 4.397769384959818 5.568342690485847 6.681234654576832
Hf 7.604222058960251 10.733255049113527 5.651322125159899
Hf 4.622932876712332 9.698331081496988 5.032317507643626
Hf 3.4226365395166423 8.487071682496458 7.702495438693893
Hf 11.726139426042458 7.901347596176835 5.840716322770366
Hf 8.98842393001533 8.05487363453132 5.887349737587008
Hf 3.320969162351493 3.6718929262320117 8.735604784980193
Hf 10.115883003952316 5.281149161680932 5.3566225959086085
Hf 3.486115554614095 6.298520146399863 9.52724631986398
Hf 10.395212050472422 10.499016288338936 6.809408632415703
Hf 5.555044822020396 2.7758823108886435 7.086725079489073
Hf 5.5579529536683125 10.359789593790723 7.7195557006707585
Hf 7.44710171560289 4.772946836424931 6.496403289993204
Hf 8.25496218110864 10.01927036921864 8.505829303184766
Hf 8.53787450390046 6.773299156741653 8.526896313501275
Hf 5.991903090773102 7.9421586943083575 9.437312445791537
Hf 6.035602508536657 4.811031038131407 9.144722569158828
Hf 11.248108290790228 5.688154843926564 7.897093822754756
Hf 8.966723289990504 4.052198545999835 9.202402420950532
Hf 10.998388216290932 8.481147296953251 8.793290303965104
Hf 8.730205919809372 8.49512743110528 10.861780398516597
Hf 7.684972954573212 5.8922340257885395 11.1558363770014
Hf 10.435615300259022 6.188137251595722 10.533814674532199
