33
Energy = -280.00717704 eV
Hf 11.468166330148332 6.831011072745091 6.72561498598479
Hf 9.633555985958361 8.529906658619334 4.83216605529182
Hf 12.385010924743732 8.155282860970598 9.132726698356086
Hf 7.832255987076259 10.689212219215316 6.218108297162463
Hf 10.471218673241781 9.446238980319022 7.546750724511033
Hf 10.54594484786579 9.73801236045172 10.43429969553193
Hf 8.578645473829845 11.184820941897662 8.90725606002891
Hf 10.188330589318463 5.854630761699026 4.093762714202635
Hf 7.983848690304427 7.278805017295305 2.6216436948227457
Hf 7.617104799900893 9.405657696670579 10.823207223047099
Hf 8.7873238546117 5.981466918659399 6.549546966856785
Hf 7.4761928697763995 9.98905753616111 3.5508384731530387
Hf 6.550833461498279 7.571203214811562 5.113686452634831
Hf 9.801205554490748 7.125582266648967 9.334822134639849
Hf 5.806936505084828 10.616362586838429 8.599761312278405
Hf 7.463300706412887 8.417810013383075 8.038087409202435
Hf 8.806018923581517 4.4291590098010065 9.060052457471192
Hf 7.517267323246319 4.684509975265201 4.109569189978129
Hf 7.1462317089077025 6.221588491317889 10.748126631400519
Hf 5.07963840708353 10.06872941595386 5.374884594126853
Hf 5.333907928137815 5.993427124673925 2.8595903146999415
Hf 5.1833965697759545 8.756450947724675 2.7647789526155138
Hf 6.194926868581299 5.6630617806140995 7.923230879565868
Hf 5.174269731378108 8.354822017683983 10.187600707131732
Hf 4.448046374183322 7.979726632028712 7.5073399102449425
Hf 7.449283943221161 3.2780987323350157 6.88500005802986
Hf 3.633265041122731 7.425787833913202 4.743994384951301
Hf 6.20795480202459 3.435675091095952 9.75855458135918
Hf 4.835541546585788 4.784351760762157 5.344445404501155
Hf 4.352862212390787 5.606399026806031 10.27722393207224
Hf 3.0953572342799074 5.2254052327765 7.581188910862151
Hf 4.649416650922079 2.871378522383796 7.405312295783584
Hf 3.1455795695759576 3.174942285597219 9.704110245092119
