36
Energy = -310.22357503 eV
Hf 7.420516481493095 7.173841823792405 11.577538429744385
Hf 6.547439541894012 4.303666542936214 11.141318235705569
Hf 8.373568757516582 9.86598522983612 10.872673089980232
Hf 4.860349223453401 6.719951752592108 10.60680664876815
Hf 5.485481024584658 9.979054404189835 10.722666666342077
Hf 10.537022284856182 10.252535982096576 8.962120770046575
Hf 9.319632158693027 4.980881073126366 10.827431173213451
Hf 7.28463382456281 5.675696009250173 8.758180312633103
Hf 9.912115338377706 7.669654008476442 10.273158127636789
Hf 8.242813668963814 3.01950285512003 9.271491104929455
Hf 6.626412042034899 8.514103840929282 8.886673448378758
Hf 7.5335952294026045 11.319758482495123 8.530618955552121
Hf 4.74149016395132 10.604407849672437 7.679596428171186
Hf 5.476088040556596 3.4732268030319915 8.477023584271244
Hf 3.6447890852910905 6.015928380206384 7.915655154248862
Hf 3.5022935539793947 8.624447664058229 9.222886853196838
Hf 11.680919017021832 7.576285205439303 8.122097357833335
Hf 9.989170789532643 5.20655597727867 7.7569948333482515
Hf 9.057654834942694 8.629454345533508 7.115575899691962
Hf 9.579382818328238 11.49211387963195 6.469741135244215
Hf 7.936361530572997 6.1758870882519705 5.756557923544339
Hf 2.726185145134106 8.642495142262298 6.658235733389777
Hf 7.697296107967992 3.215378113918178 6.48233950721534
Hf 5.5166202749840165 7.8322675224694915 6.32873569763733
Hf 6.948258024727017 10.654291737448458 5.67232431922596
Hf 11.655970170091335 9.65823661439566 6.316855678138326
Hf 5.132260315810679 4.47976855876179 5.733321746127603
Hf 9.843878063594065 4.358918673107022 4.7700911509655555
Hf 10.959453656226072 6.9156009410922845 5.362616067618369
Hf 3.2455294206771668 6.511882460463932 5.031188204241951
Hf 4.299803146000727 9.187818584246113 4.2873882558583025
Hf 8.777380644261362 6.5698595533217805 3.097922355377226
Hf 9.617313087015768 9.440728586416153 4.355124748208913
Hf 7.217609883255369 4.113860115247961 3.824187620734962
Hf 7.029244000800884 8.82507482066875 3.5900510721097425
Hf 5.620160606019992 6.5034046633907066 3.442016383738416
