35
Energy = -301.41070855 eV
Hf 11.258238632502032 5.734798067718857 7.500944874438837
Hf 9.946477881452353 4.0707043923645365 9.166327985041189
Hf 9.113524241595304 6.728871931387672 2.441797260703734
Hf 8.953866616596041 3.847291353398507 6.493076645787173
Hf 9.419257431185132 9.174251603606782 3.8900853319825535
Hf 10.40619162917886 6.873475808623703 10.125008479172378
Hf 10.603496583308589 8.406829507328382 7.49382044832537
Hf 7.959475782441666 4.460043044182131 3.807158067947772
Hf 9.738200243509667 6.566937401637816 5.2884675021641705
Hf 7.461564173671992 8.914248489721322 1.7615141424041219
Hf 7.123135591631896 3.5600944125695606 8.714729624776007
Hf 8.324671476845525 5.065483175938331 11.006123111518248
Hf 6.218020630177283 6.229431501657774 1.9149199067838707
Hf 8.443467602716806 6.472531901054681 8.220779029607161
Hf 5.298036850030483 3.9803168347676756 3.51989723117736
Hf 8.041294974102989 9.196331674389821 6.4458687996513255
Hf 6.087615505173489 2.7024361929822494 6.013497742558314
Hf 8.408149989969973 9.472966506417391 9.173891672831802
Hf 7.0121888380478135 7.503352640547596 4.289937294249122
Hf 5.558698524630934 5.341346601404921 10.553476055657523
Hf 4.244335914064632 4.113468096529438 8.189690949829826
Hf 7.435477610340775 7.73479690373175 11.176383740920242
Hf 5.993067702129868 5.4722937057963055 6.179239322539421
Hf 5.739834186897007 7.66794678238127 8.528973214520226
Hf 3.487532768480575 4.0768412841175685 5.531100736647336
Hf 6.7932861542555365 10.449334391321841 4.172491838574943
Hf 4.893215422724685 8.855560006225366 2.8121054873201046
Hf 5.926508576352492 10.590711221505472 7.710784883758225
Hf 3.8775376827330157 6.45477156950159 3.9050818934290494
Hf 5.837156093060098 10.05139002374011 10.361080461026422
Hf 3.04231244138312 6.407410076676318 9.519368720185017
Hf 4.473809587842538 7.915977069888011 11.249086562414494
Hf 3.079829784781067 6.622367265301987 6.803211269912841
Hf 4.658376518061474 8.861803027300777 5.771213512620275
Hf 3.460909478666235 9.258379822811532 8.718972373003414
