36
Energy = -307.46452907 eV
Hf 10.920959541619538 10.804831660878135 6.5589166713715485
Hf 11.99870175745034 8.102368425373175 6.0193332243010325
Hf 10.98181133368435 8.966970431648623 8.676962162352273
Hf 11.600404938069442 6.196788786350299 8.502996269558478
Hf 10.631655632956514 9.998947248882335 3.9816968067013874
Hf 8.591843637082219 10.528431971499534 8.237325824335906
Hf 9.133508336931422 8.441786054525066 5.950078017058292
Hf 10.569172204551528 7.285289384253931 3.5787174971666924
Hf 10.298131781890627 5.504451501074978 5.8762109132260605
Hf 10.0434707956594 3.919950854120672 8.284203113379952
Hf 8.847496587904683 6.867307423015221 8.441460474299484
Hf 8.726006053789108 8.763266443114693 10.85349341303698
Hf 8.065147243527464 8.85798527590905 3.283907057547752
Hf 8.284148486670897 11.103460051249423 5.315047607227305
Hf 7.019368836414456 11.254441906446129 10.345874930262216
Hf 8.190803975675909 5.9591071425978726 3.8428189422614034
Hf 7.860679374393112 2.366391677286986 9.124791081744249
Hf 9.374746638670992 5.155132434584647 10.699616426819347
Hf 8.010488705836046 3.513221196967311 6.413147175983482
Hf 6.968410163359985 4.849275958993622 9.047554913293425
Hf 5.666336881441946 11.227078325526263 7.801992803280756
Hf 6.323033189318836 8.568074678915737 9.01191543375269
Hf 6.116036870168287 9.160973677622177 11.977074577342842
Hf 6.806059800027494 6.599569334450003 11.300579408157024
Hf 6.644692791000621 6.221359499917228 6.386931163923415
Hf 6.111331879955956 9.12027578981699 5.852765183098847
Hf 4.295766660443346 10.54063227017027 10.256488603279065
Hf 5.629878890559141 7.088567312614571 3.5882138427619816
Hf 5.269478160607927 4.394412902551497 4.565461643407214
Hf 5.294315986389452 3.4680079139717566 7.309100466407022
Hf 3.9866877778015133 7.756463735958933 10.658298078557722
Hf 3.6619254816292304 8.969363824850149 7.994459187201165
Hf 4.245060727675887 6.087312641209748 8.274960162625087
Hf 3.7793076148060023 6.9553032837266615 5.545249943752524
Hf 2.775198649724794 4.349129393347563 5.973423626410719
Hf 2.9942142945590167 5.393433398559668 3.3873713235564704
