31
Energy = -265.3918262 eV
Hf 9.107537146151264 5.191965008799521 2.4775050661873688
Hf 6.430008245258074 6.21413652147288 1.9819828025680934
Hf 8.764812024474216 7.925198949717953 1.8399110579717233
Hf 7.152214938860361 4.054817602687049 4.233658201368654
Hf 10.623859592927854 7.302474956641737 3.924723875591132
Hf 6.392398204650485 9.021625624523468 2.9499898029578016
Hf 9.81356920099569 4.832215435812533 5.220666917251183
Hf 7.783990728786181 6.87902970706565 4.427162282148253
Hf 4.736617572431167 7.046530579125037 4.238295731407232
Hf 4.363380388162535 4.3448679005239095 5.421122478560111
Hf 8.899748746477531 9.58953033415405 4.192136189460242
Hf 7.7092399669303875 4.963782566281539 7.0067107410591385
Hf 6.628506096669236 9.174994931885243 6.005156411151551
Hf 9.47155408964466 7.8470841651768435 6.6428240672574885
Hf 10.014537557231307 5.661714985802906 8.58362675980955
Hf 2.5581500122630945 6.528704701318481 5.970446483823206
Hf 5.190361145677147 6.608703989360993 7.169037790411239
Hf 10.135929101570229 8.496518832947787 9.38210311084539
Hf 8.210148931161573 10.123758953807524 8.251968861553477
Hf 3.759344251620368 9.067116734374064 6.222853851386379
Hf 5.54019723682187 3.449821751550091 7.967664613128453
Hf 7.475233226775828 7.304388789679406 9.058631520012796
Hf 3.0442208080010356 4.6934885526736005 7.957143689445011
Hf 5.340348061823509 9.676128799288906 8.556871636530783
Hf 3.0103834052445952 7.561974232125227 8.738830200889204
Hf 9.37599873933457 6.619898341355087 11.239432549399895
Hf 7.702718572838996 4.429188943629081 9.965121833636374
Hf 7.787074299084621 9.16922876294764 11.113206956492318
Hf 4.840330470144221 5.337900571191087 10.093245607569003
Hf 4.993026077431918 8.165641587379824 10.805708262821204
Hf 6.784946479589019 6.450743969176458 11.873044633957385
