38
Energy = -327.24438055 eV
Hf 4.999694429674655 9.831500636395804 11.0453151743293
Hf 7.676601633693314 11.176527854182192 10.537955546708117
Hf 9.600268513910807 10.886853552216332 8.29814854885727
Hf 4.41785346096759 9.87609359909619 8.034064589804784
Hf 7.269169139739019 8.979616617308515 12.339098008915299
Hf 11.7822321284891 10.002910787625973 6.29751008389223
Hf 4.502886237740983 7.489010542964798 12.640165338524953
Hf 9.683949403661087 8.93372503930896 10.491347899105435
Hf 6.757436125436404 11.439810505756281 6.996127677524711
Hf 12.10583290849494 9.354753834623423 8.98310424243208
Hf 9.075072345849444 10.233095550013395 5.428594405700138
Hf 7.184543819622025 8.97556684295599 8.923550866287737
Hf 9.10773494570799 6.054681281720236 11.133289229815146
Hf 4.3530119203760265 10.724124481620873 5.29626145416049
Hf 9.896754963726845 8.116816170695655 7.463659965254557
Hf 6.292193972415013 6.811733875537636 10.769040257121869
Hf 11.527682759647556 6.48629018824942 9.442916565421449
Hf 3.357885771001291 7.80619950972812 10.033023778219224
Hf 6.7762811586777625 10.785385946634321 3.9757647528604205
Hf 3.3858944003793066 8.157901921359635 5.940150800534247
Hf 8.077408207945611 5.984805324033585 8.45403771569636
Hf 12.664753319104681 7.39389270548165 6.963885950282884
Hf 6.341063791970368 8.775471720904637 6.045244704961032
Hf 5.101302266587967 8.39424380726271 3.4822035539146654
Hf 8.249353282180737 8.235182790226977 3.3755431331598977
Hf 5.054500736134185 6.801402018786014 7.981318781676097
Hf 10.796080658776834 5.207455927436636 6.619336535366854
Hf 10.892729905791706 7.584501411493632 4.721010511324987
Hf 7.21198968604124 3.907214749229602 9.938166012874806
Hf 10.085181892297106 4.0580158197672604 9.27678906530624
Hf 4.177129944644404 5.143153087593807 10.27284973428793
Hf 4.746224871763002 5.757763122996771 5.003639887854553
Hf 8.398446042677426 3.2724701262489493 7.196019923214272
Hf 6.697125456324803 5.92732292970266 2.980620161145797
Hf 7.807499707608107 6.252858599151402 5.740112436469469
Hf 5.746997945833741 4.08276479520164 7.321031352548107
Hf 9.345081375942144 5.269280910550669 3.713983706319787
Hf 6.880066895384699 3.744533511101942 4.6897041933898365
