39
Energy = -337.67520386 eV
Hf 12.438280820896887 8.311025457780108 8.89478520703443
Hf 12.45761068951954 6.6323219861652944 6.637407887306077
Hf 10.88548029128144 5.828950119498525 9.022538402510023
Hf 12.275739495476262 9.392653963182713 6.218798203397985
Hf 8.903777300413909 3.61796829155723 8.279270232262604
Hf 9.924289659603197 8.56814100317637 10.249576035678546
Hf 10.369150957308273 4.949652019059199 6.048446176376312
Hf 10.859219627576291 10.600097055782866 8.37536348257281
Hf 7.005032549768809 3.97483780470318 10.360437649013438
Hf 9.903320675715452 8.003169892860878 7.357862659557264
Hf 10.60536168798591 7.673406557104149 4.544412776262559
Hf 8.03062873644215 3.172500509622987 5.610448137972466
Hf 6.134832421056766 2.5761567955986893 7.892760159461606
Hf 4.318515676646638 3.3749935861375606 10.19981816097034
Hf 7.689323607844042 5.779743503650991 6.7349026172292525
Hf 6.302347073604266 8.877411655920074 10.496352334626064
Hf 7.946204690061995 6.579809251309214 9.644462632541105
Hf 5.109526707856652 6.141689866764308 11.057484522050974
Hf 8.06606339364768 10.262935683554126 8.488447645865724
Hf 5.272883904023728 5.359861374060877 8.30335376779845
Hf 8.11692187750422 5.671272244453053 3.951839517202441
Hf 6.1774152398215465 8.195197355688622 7.573045615606345
Hf 5.220799401875238 3.9232234419160563 5.431132109146341
Hf 2.6313289332870573 5.465125620340328 9.547649079206348
Hf 7.7390989037932405 8.539087845791503 4.799458269799504
Hf 3.1997258736923038 3.5449429353049773 7.492349655221626
Hf 3.7038173827006666 8.172911086867797 9.339615872224421
Hf 9.640427834669593 10.452119019051636 5.723902454072199
Hf 5.168844590561735 10.644678136937715 8.6742845205763
Hf 6.29531535854007 10.803591030043508 6.0744713959870245
Hf 5.187575558364113 6.918673012184593 4.82094885595
Hf 6.654465009224409 7.529828039896904 2.319342628677192
Hf 5.537840273260692 4.917518233253394 2.6605832693286717
Hf 2.858926151880797 6.461186665188368 6.816454143588512
Hf 3.668411307626475 9.485814728663303 6.448899382756266
Hf 2.965674390731903 5.157408947781147 4.081713816680377
Hf 4.866988236781647 9.537438227448558 3.694639877844989
Hf 3.8738576650410246 7.196578515670494 2.1479315825284875
Hf 2.431391939550852 7.943463563520854 4.361992644518792
