33
Energy = -283.34693988 eV
Hf 10.311618591248918 7.734525308552591 10.26256044022147
Hf 10.469248290787247 8.739490468753276 7.493716030151533
Hf 7.983802347710275 9.102337943807736 9.43810663774308
Hf 8.280932796343915 10.511570749405472 6.9718823198042505
Hf 11.220198713929028 5.81402520730975 8.170549947700069
Hf 10.166153425228718 5.0701832153278295 10.922862137615313
Hf 9.271239815673342 9.1678370963574 4.565382570651084
Hf 7.7307371127545075 6.747088409890475 11.430610590927442
Hf 10.796475305261755 6.818589552353535 5.4254757413214465
Hf 8.030455377103165 7.560325700686469 6.341712463755357
Hf 5.584352203697377 9.79793176509413 7.862021037483624
Hf 8.437978038268728 5.910590852288831 8.798292252543877
Hf 5.412055729326727 8.208673124186774 10.328370222494442
Hf 9.695980537868776 3.307726621072853 8.772898760764356
Hf 6.313633711670548 9.964277330298286 5.014292784754146
Hf 7.677013763460115 3.819963299144594 10.720768015899841
Hf 3.3030679519531643 9.12456662548245 6.044411626659843
Hf 9.312802656382487 4.415012946829083 6.169397461415929
Hf 5.819478599684135 6.861788572599847 7.773368250325153
Hf 4.2354457697954295 9.44621432513515 3.176627956848622
Hf 8.613568756940698 6.1839248426612645 3.7927470952650504
Hf 6.8093545126032415 8.126700742808266 2.6443598366441012
Hf 5.262313856556981 5.27476808522203 10.153219703329164
Hf 5.049953695610356 7.125662148012644 4.790107258384003
Hf 6.4488700861272825 4.71918385493704 5.477619103260474
Hf 6.861679227914952 3.421381345178012 8.013262378695256
Hf 3.304857968011802 7.217346975315101 8.676109671231895
Hf 2.4367859757691055 6.293124151866959 6.226251785171072
Hf 2.292262601821786 7.494902457080188 3.8372601796583323
Hf 4.151641184848837 4.483553481005841 7.420455920686964
Hf 6.145398488858405 5.152935925169805 2.6668584098656933
Hf 4.230158033540731 6.906988070906085 1.9325555712906701
Hf 3.594038550856408 4.77660995601662 4.000855031289429
