31
Energy = -264.72973155 eV
Hf 9.384417684223106 10.585346992101462 7.551002715540004
Hf 10.865447195580852 8.444387569202494 6.338856689919287
Hf 9.914499790030908 9.468081352656192 10.274506859470765
Hf 6.57654106983959 10.882757219818325 6.619588411148645
Hf 8.497059098496733 9.226656273902005 5.003772803471307
Hf 11.380852969502596 7.376566203923216 8.968802042781663
Hf 7.279017157004599 10.671138743922125 9.538140988760437
Hf 5.465098479925712 8.564871391060828 4.833007645783196
Hf 7.246310633658893 7.442114070075676 2.994067434218024
Hf 9.88432332890541 6.786576123869832 3.8702715554352918
Hf 3.703833885695362 10.180978666245991 6.275884155789977
Hf 8.470191668963302 7.890047169167865 8.358740873993522
Hf 10.438030266318734 5.681347875163229 6.797272882123455
Hf 4.602861397645305 11.175426723974297 8.730300264921857
Hf 7.523996473088942 8.56454690635112 11.388313323021487
Hf 7.681466045414443 6.4102388391847835 5.722754759650628
Hf 7.693607900749755 4.755803635176762 3.2244459087934962
Hf 9.787712791647369 3.945770489431442 4.664225295905151
Hf 5.459997266673768 8.425649863459425 7.933052134466107
Hf 9.374494402530301 6.597538723718369 10.853884261909872
Hf 2.6608250166229097 9.12896785211365 8.624318623989835
Hf 4.7807537530732125 8.941309878163102 10.671396123589648
Hf 10.791564550192222 4.486179440034665 9.398280253974077
Hf 8.044782393908985 4.849424366928362 8.468847433016826
Hf 5.24217968617151 5.633749499334168 4.4388944800296315
Hf 9.73886565392353 2.9069990613226175 7.281613596979563
Hf 3.2528314790293646 7.266105821179864 6.422098876473738
Hf 7.140786581039937 3.5344438112680234 5.775072118975009
Hf 6.228255412065537 6.306925096012554 10.23831814732296
Hf 5.266732081025196 5.314533248879569 7.430300063498083
Hf 3.5471588488123977 6.609600987685935 9.307270652826652
