35
Energy = -298.5058666 eV
Hf 8.529618538350105 7.484894418804523 2.9955201668151425
Hf 9.200176271334708 10.39871967914201 2.518544880909216
Hf 7.962942264758153 4.740086829969835 4.194363338178201
Hf 5.87837159972526 6.917343310701869 4.4474245564598744
Hf 6.885940641213027 9.764634643059527 3.918052343867313
Hf 7.224281829035089 2.239147996293852 5.443380681991245
Hf 5.113738598334242 4.211803153061655 5.564830479837216
Hf 10.681810130789076 8.874047674651804 4.184865437100671
Hf 3.070553481433414 6.473389418781207 5.623090791244383
Hf 4.058153340216601 9.239402989685297 5.278609093111547
Hf 10.303479223770582 6.2167307168156105 5.106150182797767
Hf 9.579806979576082 3.54111157080028 6.318517211389013
Hf 1.4648645975600534 8.963353928237312 6.2377068638947115
Hf 8.207376218856972 8.075412570763882 5.91560056600762
Hf 9.085211757453864 10.889531526310714 5.483153138742382
Hf 8.497945790571517 1.3297527447734063 7.741012539414347
Hf 7.404679695738993 5.368242337074352 7.023546752854351
Hf 5.302657988791423 7.536841186171184 7.312076030360165
Hf 3.640292087501198 9.878437994043697 8.101062291626231
Hf 4.015532729507622 5.050218618975008 8.129857431929501
Hf 7.884148001520459 7.838886361272354 8.972241274691651
Hf 10.825180898579717 8.774654448694568 6.966642124758211
Hf 6.402811186666064 5.326878132989071 10.075855641527067
Hf 6.348894003842784 10.454877421540356 6.790121929348881
Hf 6.1418051608621385 2.903566759300921 7.972457963762102
Hf 2.316986011759614 7.322529131199353 8.206622033961434
Hf 10.317480203507893 6.052385647043964 8.194490311095375
Hf 8.748786953769581 3.850113571796994 9.234424415174164
Hf 6.183594769707982 10.086415984980052 9.823444075561742
Hf 8.857123898426106 10.581987342747414 8.537738816426524
Hf 4.377841929347891 7.580345334359691 10.067894453149885
Hf 8.663341784096211 9.487969914154501 11.230216688432657
Hf 10.701459588805177 8.467196082318463 9.727767144294289
Hf 6.6383418769282025 7.71360443892639 11.68147058844642
Hf 9.146804420294194 6.428667430114344 11.05541924563811
