35
Energy = -297.8481134 eV
Hf 6.209539631567463 6.244309483780724 4.161638045229568
Hf 2.7845850897089717 6.129798596613172 7.58232788329882
Hf 6.132730992595045 6.587849507419376 8.445646417513213
Hf 7.945301023688633 3.2543570193913807 7.649039710242666
Hf 5.131173168415533 1.8721030427400258 6.641112082168293
Hf 2.472457111110512 3.5978170106050023 5.728055347455982
Hf 5.705981760120834 2.9264132007617785 9.295537882444295
Hf 6.919547518337687 7.773401906179891 1.8068282583609705
Hf 4.650727168899176 8.64150419213792 3.5634736537591007
Hf 7.652561481951571 9.051891802947768 4.131745857999863
Hf 9.054078113869837 6.230527728900612 3.782697620324242
Hf 7.173150391094135 4.596131747267045 2.0255785644911524
Hf 4.426986099519847 5.98773740650704 1.950589813919245
Hf 3.055567191332483 6.090473551988925 4.512322790159396
Hf 5.086541750435324 7.890872976651613 6.372684754604098
Hf 8.11644621608067 6.081251513803547 6.5629133858056345
Hf 7.724136727304854 3.5104945540618853 4.658548772130844
Hf 4.794621282129508 3.6657979307190978 3.8446807517554134
Hf 5.088403845059654 4.558852118632162 6.663563474122784
Hf 8.76110937563094 7.664824796666955 9.311672349580594
Hf 8.016663681354167 9.1122839616193 6.936233943280856
Hf 10.270666965661498 4.40882381335877 5.834198507115632
Hf 10.504900873743015 7.327397884424935 6.773480493653441
Hf 3.193639303710444 9.558710603582822 7.002245642757689
Hf 5.80068118031381 10.60512235423487 5.67114996588739
Hf 3.7372244178737257 8.046491939568911 9.489716387615989
Hf 4.2847150420089655 5.255064701050254 10.219927365494902
Hf 6.180007377651525 7.539945531002456 10.950963878485467
Hf 7.577603121368551 4.976819160414476 10.209363018244302
Hf 5.804973843377575 9.669426382801309 8.695786419383099
Hf 3.157791618771111 3.188385357693231 8.414625332502444
Hf 9.974933448515868 5.159455417440777 8.621538903840738
Hf 6.0231555745093415 10.686771202738777 2.5507123073976365
Hf 2.3589871999336425 3.9744663663696396 2.736863963026324
Hf 9.88532093764022 3.791335756279485 2.8594469763052315
