39
Energy = -334.76392118 eV
Hf 8.645409115666503 9.240583417759908 10.905705449907485
Hf 7.292233244226846 9.062820958235195 13.324594891330364
Hf 8.986485034427348 6.94271467534782 12.747227472097524
Hf 10.531870894790623 6.529801229784695 10.27611468576938
Hf 10.186676216699988 9.054413986301979 8.546797072987195
Hf 10.43666135696414 6.509211535729534 7.011391631283527
Hf 7.092341807980344 9.484056706873275 8.18740921984603
Hf 5.784308688666731 9.960179737565518 10.866368307644004
Hf 11.384431676719307 9.078015976180225 6.049377803787632
Hf 4.140309991943614 7.960922406164099 9.417711338456602
Hf 8.141906850566315 4.803190287673894 10.8988853902131
Hf 6.44372896487944 7.219404698383125 11.438164809832633
Hf 9.255967359645087 11.23443755717254 6.608503911354928
Hf 9.809834410733158 4.358803745825253 4.912172570899276
Hf 9.74483788679442 4.234183869342658 8.582077546027369
Hf 10.090621825111638 10.227425864494199 3.9262254794904936
Hf 8.119544814465685 6.939623928895651 8.94537554351201
Hf 6.457537848998366 11.980314794076145 6.628770242626709
Hf 7.354168203365103 11.869599469616379 9.280850007194218
Hf 5.649038852209304 5.366180359603083 8.8518746407623
Hf 7.2281026106881985 2.821007005572548 8.58026493273187
Hf 8.508872389329733 8.417512899583997 5.638384671911123
Hf 4.522321140350629 10.864405525148792 8.39264803076086
Hf 7.263323203030684 10.682024297337158 4.23745622815405
Hf 9.100073157178151 2.1608916481873788 6.5624531947992795
Hf 10.535727557169157 7.260164454500411 3.931714333590519
Hf 7.60811369949679 5.147458801731698 6.5945013066042595
Hf 5.441208250047397 7.6649515021814025 6.613623374077178
Hf 4.437565024791235 10.240553684660776 5.42194742400823
Hf 8.379959565824901 8.548599325282307 2.5906716835128143
Hf 2.6904189697669256 8.84128354226304 7.251468631756818
Hf 3.2095251786655155 5.984737369013105 7.2270763540364635
Hf 7.832758131207682 5.958742504431198 3.599608359291784
Hf 5.052333002331437 3.3525288461770106 6.782445236721252
Hf 6.622983643859143 0.9155811252390127 6.48457744007387
Hf 5.734972816207368 8.099039772946796 3.5845600698284334
Hf 7.188302496549904 3.058800207725792 4.627993113393712
Hf 5.001104678631922 5.364279456739985 4.756248720403939
Hf 3.1902302677518057 7.622678761914017 4.829633709716296
