32
Energy = -273.34377821 eV
Hf 9.891704734121156 5.51508381451108 11.434400613550142
Hf 7.226362029758224 6.441687589006518 11.905793408825032
Hf 7.769147259566791 3.778082720136223 10.974176314583362
Hf 9.155661003139343 8.244619462201024 10.703632739280291
Hf 9.888811323709302 3.8502374427311237 8.950812338430945
Hf 6.1859565838879025 8.231601689429509 9.748312437303628
Hf 11.0130631661497 6.6858267572256205 9.230193949411701
Hf 5.383973097443652 5.18878355147653 10.17297802453884
Hf 8.079748944952383 6.040985426686149 9.08049495102713
Hf 7.568529543429393 10.53936984253778 8.876842130599105
Hf 6.856666243809993 3.4518369635397343 8.277099523112218
Hf 8.586796292023317 3.4422478870397826 5.868744671273426
Hf 4.735062193278937 10.64941015629239 8.596854610763323
Hf 9.136611097998946 8.455435919103603 7.66387234920794
Hf 3.5968124417522307 8.03540415652456 8.35308235546422
Hf 10.338568987414128 5.700057123804995 6.639116952218679
Hf 6.551352075897339 12.73321912533975 7.590902979219734
Hf 7.202760616871508 4.2413255897393745 3.370127682218933
Hf 7.479413166692148 6.169716784877974 5.613959818857971
Hf 5.623214916399518 3.584503424060867 5.546682765246815
Hf 6.077109652202782 8.717063289423042 6.656800352852385
Hf 5.846050397993856 11.282068315994003 5.295119101249025
Hf 5.19647957483902 5.761065381035747 7.482371117218988
Hf 3.392535621441401 7.184262748557537 5.730914051433857
Hf 9.707460915252671 5.271797851455086 3.881405385310964
Hf 9.76526210551734 7.9890349537409655 4.811523031998098
Hf 5.038601527493469 5.8857481784844135 3.8625996376968827
Hf 4.9693856195122486 8.808529767907242 3.8244003502068886
Hf 8.600273444988252 11.007360181812036 6.289752546585735
Hf 3.4175212351280346 9.929469959672316 6.130373232214493
Hf 7.573640668662325 7.0962170457174745 2.8530160443127857
Hf 7.683040705717433 9.669230892950072 4.032210747701874
