32
Energy = -275.16635274 eV
Hf 3.020183265850961 8.552508691169503 8.980923522394864
Hf 5.794869445726362 8.802366088613105 9.970843263802854
Hf 4.543076321874247 10.490009451596718 7.889667488054497
Hf 3.051277851385201 8.798499036297365 5.977521582461079
Hf 2.4808502605976677 6.31145916351538 7.493795657055405
Hf 4.332424148922767 6.151129639620422 9.807087396771815
Hf 5.200041183141253 7.587649134383296 7.372586085675857
Hf 7.340841583285308 10.610733757906456 8.16502233238166
Hf 8.971609600725682 8.505243475502283 9.61563140296168
Hf 7.219407482073042 5.985917361236629 10.548988190490316
Hf 5.781656445717581 10.142183626612292 5.397733811736902
Hf 4.28737486645514 4.232251844018468 7.232833496657766
Hf 3.6959958946140783 5.913157555813184 4.8461648577100735
Hf 5.640508690472341 3.6657497511654773 9.620558394397785
Hf 8.457135843737687 10.849190333585664 5.427000359140795
Hf 10.11114295566758 10.273475273261536 7.537287376138421
Hf 4.780523383779448 8.208096799346364 3.620454307258113
Hf 7.366216116507071 5.2534611065476895 7.716268703307557
Hf 8.319083924152938 3.3833660656677167 9.681203502079489
Hf 10.434516541031613 8.677326253102635 4.999912496705858
Hf 11.13701806292243 7.789001579310047 7.733204134416254
Hf 9.903372894619482 5.705087963606873 9.164750171816891
Hf 6.6592556170492205 6.415570991892043 5.144895124809812
Hf 5.525148169399408 3.6481498856496364 4.77938555177863
Hf 7.637740265804991 8.762553397132791 3.5201715326714593
Hf 9.696356539010289 3.4011152276849006 7.310033236367785
Hf 8.29224086524101 8.175402104372234 6.785821833606251
Hf 6.867111034695247 2.515303147433288 7.18984118684171
Hf 6.340355026948725 5.768340542924887 2.8055079507759917
Hf 10.345114960090047 5.742820166804384 5.985795444042871
Hf 8.328015738650105 3.927908187710192 4.760341122203396
Hf 9.190073612510583 6.4129366533143575 3.5154186983297895
