36
Energy = -305.64463277 eV
Hf 7.745270362959612 12.226480434649273 10.407915113147379
Hf 5.082001395138409 11.390731029295969 5.276011327900856
Hf 6.355459312742684 11.458496517163747 8.16259989035258
Hf 5.862529353623021 9.62195988805535 10.327558434849456
Hf 3.307927668866619 8.943448257128708 4.535956971763315
Hf 8.622116018266572 9.84851904151592 9.406330805155148
Hf 9.097400057478918 12.158093298590986 7.90438119321114
Hf 4.9303974648144795 9.186735557475687 6.9752125618632475
Hf 7.662957752618144 10.278958534837647 5.9685130471225225
Hf 6.00641126547823 9.272442201477041 3.6000177940541844
Hf 7.439638485846677 7.649799218992939 7.836426512891794
Hf 4.6139825210443 7.261640862787673 9.404412328536754
Hf 4.770486103640232 7.494442826161292 12.142313686137975
Hf 2.0174233739107326 6.311054666299911 3.989529129672815
Hf 3.1006270557830367 6.7964161580846225 6.476962523307332
Hf 5.8852175074963995 6.800555660334819 5.340454788717605
Hf 4.495051403963392 6.887012406397358 2.832084804320048
Hf 7.175802712339167 7.146418310118645 10.883889561158853
Hf 8.681995258046232 7.736782264885986 4.977091058259456
Hf 5.251998248798767 5.002507414283042 7.7197227095526495
Hf 10.114253539894591 9.182261170812714 7.1001414864804575
Hf 3.918253918277718 4.454132075690986 5.083070179423608
Hf 5.310840014819337 4.865764602443103 10.748549968912267
Hf 7.330414508646281 6.85000677097877 2.608490497612014
Hf 7.866344657013475 4.868336909247791 9.33742946758347
Hf 9.467458945489401 5.113264256274749 3.6728382256209384
Hf 10.050801983380504 6.955551398779011 8.94576552120398
Hf 6.158333071665628 2.5746048657886678 8.867507428990079
Hf 8.244472501463443 4.863164620715783 6.38737270705614
Hf 10.947107382920034 6.268918585143921 6.25138910987764
Hf 6.134570393327277 2.5521872414557984 5.99328706170438
Hf 6.531201222481834 4.331223969130755 3.5662385076236807
Hf 10.551849248096008 4.262842934064848 8.336608677171462
Hf 8.69515771910378 2.137009234954672 7.341799694700775
Hf 10.791308138555527 3.4413130374715832 5.73581024400923
Hf 8.512460808423654 2.527511865812485 4.501078494825054
