32
Energy = -275.27516766 eV
Hf 7.585184393545843 11.6167842041212 6.784157843380597
Hf 7.583563795033864 10.882188156526947 9.685939540560476
Hf 5.1740943683673475 11.742880375036773 8.367120143469721
Hf 9.253549919540205 8.460360607395412 8.940981660700233
Hf 4.942396164521307 11.054574381610527 5.7447199572848735
Hf 9.247594328252685 9.137292433117292 6.20167737867001
Hf 7.11232423778178 9.829960537001869 4.408779183502383
Hf 11.396531260315916 6.3585221146001 8.468753551090725
Hf 11.371730760290957 7.07624827811903 5.559906533062738
Hf 6.3262252872300335 9.201178438615827 7.705938798718779
Hf 7.155177358237824 8.17323031219804 10.893286220760775
Hf 3.4405335358135436 9.369137719251563 7.768438002603349
Hf 4.960445214676281 9.875729610260757 10.338624676023112
Hf 9.050118200839787 5.924537343139289 10.297411382932038
Hf 8.985855987203811 7.56151832291026 3.8023891870711406
Hf 11.39092417699 4.331875109939957 6.421200537831021
Hf 10.03149718453049 4.951866577875641 4.14306959730548
Hf 6.6628424628054885 6.376066551074629 8.561842395381875
Hf 9.05415748396716 5.9342998473761845 6.846048041033694
Hf 6.206562726722106 5.319394556693933 11.12467285283525
Hf 4.138668676647908 8.457140516096183 4.861004001154819
Hf 4.178874673539334 7.165306726670681 9.883189301648507
Hf 8.641621541013821 3.1609968482984545 6.148878808212714
Hf 6.127577469461421 7.437398097347383 2.8505289661977242
Hf 10.08069672160848 3.7998765381322714 8.7407514134541
Hf 3.7100835525595026 6.425368729784963 7.020106427886771
Hf 4.487756082328265 5.6590144847284645 4.346846808638899
Hf 7.242163146999334 3.534859397438293 8.931353426567833
Hf 7.189875696501841 4.818927578085501 3.896372530438842
Hf 6.635165537519869 7.132655955092856 5.5916316481650075
Hf 4.535912589671163 4.467222472709216 8.985883405930027
Hf 5.729108954673323 4.027754958282156 6.390590629127167
