34
Energy = -292.9110432 eV
Hf 11.456821803492128 6.8654966800002954 5.724593495518639
Hf 10.523119687133166 9.524433159351501 6.945960548188454
Hf 10.647517263415374 7.117787738511912 8.412186795350543
Hf 10.692643309546218 9.122620055371971 4.105258795588998
Hf 10.39625965203528 4.316569544805779 8.17733716935055
Hf 6.967716308268155 7.842255789205931 11.330930173933389
Hf 8.62223446584074 10.680162064069911 5.1025507305059286
Hf 9.35677676218416 4.6550677182589775 5.3255013860384555
Hf 9.045107239594797 6.01772023170158 10.409556358964348
Hf 10.013848911206024 6.535922918107337 3.287624567167901
Hf 8.651666969547037 7.7443906263876805 5.676123478347316
Hf 6.8516105738030735 9.90071090363156 7.19462685555516
Hf 7.740706089260711 5.4408794693535905 7.797381891597786
Hf 8.093318692733643 8.695731213119025 2.883187330070788
Hf 8.305204006666548 2.6576546138040396 7.142783324643479
Hf 8.425546463081679 8.661798124612387 9.105108006013666
Hf 8.21915747405247 3.3452628275551435 9.826004321581996
Hf 5.734265445908369 3.303288206578067 8.364720516047917
Hf 6.150839881234163 5.133821731765685 10.79426527152393
Hf 5.84609807209828 10.028354727246304 4.408836270964815
Hf 5.518868652416018 7.310177285823049 8.612551032419834
Hf 7.269044526431064 5.763602158813368 3.3404159889411758
Hf 5.626270163776021 7.216894764691683 5.602360718151979
Hf 5.322765060241422 9.801370302213238 9.904090628118762
Hf 4.125840532264432 9.618287887526789 6.94753973338779
Hf 3.9717804516978705 4.506845753445101 6.605979585026602
Hf 4.2754471304634105 7.357742375087812 11.219152040927614
Hf 5.383060924331364 7.742943302098161 2.6783941625780514
Hf 6.360708488694461 3.884890427794018 5.400168812165834
Hf 3.4257403893764944 5.398453730384545 9.25188831564624
Hf 3.347536970420406 8.525200349523338 4.353554173111583
Hf 2.812695866489554 8.386073106177527 9.144769378382263
Hf 4.012257730827276 5.605791878654301 4.018095111576301
Hf 2.7187240676671984 6.938284157250861 6.6589084020364435
