30
Energy = -256.49088506 eV
Hf 9.388718198688407 6.566922461094799 4.556459052672466
Hf 6.782149520797127 5.0918970468641644 4.363659752420758
Hf 6.932318417870426 7.96816672027747 3.6667028570310505
Hf 10.844210965724603 5.429097328470109 6.677230967300762
Hf 9.423565267602632 9.399256382153277 4.302646815598463
Hf 4.056083083288755 6.6022914374008765 3.779175104095756
Hf 9.055956464627362 3.8198021671949167 5.551693013388987
Hf 6.6542934268569045 3.178116269740878 6.732520710933165
Hf 4.3574614061052825 4.202308700076319 5.377237115920412
Hf 5.281297360100117 7.1017224694231915 6.230491164315821
Hf 8.150542531685707 8.36606144927074 6.747745803008111
Hf 11.028021390556185 8.271028573682411 6.590254106529622
Hf 4.567013634749157 9.426362668508888 4.266929204688698
Hf 6.931618300643016 10.650504361776933 5.363123689367097
Hf 9.554439095821584 10.91549546461521 6.642098701276989
Hf 2.5924130748718084 8.47292178602525 5.743077526505069
Hf 2.5328413374896455 5.8802283603325085 6.3924093211966175
Hf 9.481832723702624 3.5224259674487217 8.401046518682021
Hf 4.52705109334271 4.764738821619727 8.21367428437207
Hf 4.639204532078423 10.049061469257566 7.101539804624327
Hf 7.808265697692348 5.707827255702228 7.948643932785016
Hf 6.747885206396053 3.4295501575108824 9.560591686267296
Hf 7.355508415777521 10.912463699852172 8.321936977856073
Hf 9.820261852268297 9.40316221881549 8.988961739590772
Hf 10.49291019104689 6.533200732440991 9.21642496772306
Hf 3.369090346078489 7.610428571490268 8.474747516746058
Hf 6.062983377157388 8.377916639653959 8.913599779605414
Hf 8.64599778663995 4.974811819799102 10.802242193213633
Hf 5.955199743324846 5.978915900932128 10.515347522224438
Hf 8.19727579245919 7.733481561233166 10.549008201696045
