37
Energy = -319.27035535 eV
Hf 6.64048141680717 2.123691973172222 4.923205899408739
Hf 9.187559286198226 3.1169771483873028 5.968176027763922
Hf 7.060491196467425 2.6456083305215117 7.829407887343119
Hf 10.257761756030016 3.4486129813828397 9.182977416471969
Hf 11.2807098689008 4.845472207223809 6.726181004723576
Hf 8.009236902807523 3.969118444811263 3.3012990323896925
Hf 4.392350677079273 3.3438388126689236 6.226421234242802
Hf 9.660788731761217 5.908664578098874 4.661076026038262
Hf 5.204513461502151 4.223219282474884 3.543635817708635
Hf 7.501176922838773 3.918249126575572 10.538391523696118
Hf 6.844276381646661 4.88020198914778 5.833720146402263
Hf 11.429488013542645 6.152911204973771 9.092232458960819
Hf 8.60035397353635 5.3494999305315725 8.251979506781591
Hf 6.871886855610087 6.836153142111659 3.536061716227894
Hf 9.190504838096535 8.822243520252824 4.233045589172768
Hf 5.346215770910778 4.71962564901426 8.634676865409613
Hf 9.524382514940973 5.758617593105181 10.999013888031119
Hf 10.947040160325427 7.768642762157569 6.726568878170852
Hf 8.134688315637742 7.653290948281813 6.723978403329267
Hf 2.74258875557057 5.959383080190942 7.869592506980751
Hf 6.609146078856467 9.619923082501664 2.739971032173117
Hf 9.545330662082801 8.351189014053373 9.344015035222895
Hf 4.238871394447888 6.222776099623179 5.384574445277297
Hf 4.2154046802111 8.402154351976042 3.406950216263526
Hf 5.156694824201533 7.642164909053711 8.0606419528512
Hf 6.002361505289901 9.093797382210601 5.599223765618376
Hf 6.987827501298295 6.957163540922043 10.34525513925283
Hf 9.201542904607585 10.309450307173151 6.854406373391973
Hf 3.988484825038312 6.468650811133487 10.456413389963673
Hf 7.791149556024357 11.314562348157658 4.523283304036289
Hf 2.9849790443647035 8.626350372475656 6.183135375643947
Hf 2.54559639798668 8.541622026352867 9.103202357258496
Hf 7.111460182480861 9.982803454565424 8.995563080594792
Hf 4.84611915636154 11.245246828401067 4.542247431466152
Hf 4.863429200491 9.162272462853 10.561192717373826
Hf 6.626303110362409 11.822691061939924 6.905560641210026
Hf 4.316137546164958 10.486336727358102 7.908298861064207
