34
Energy = -288.61155005 eV
Hf 11.470174121656221 5.6349329575753355 9.5273451349541
Hf 10.806714785749886 5.722795415313292 6.802929805056643
Hf 9.546371465179856 3.831975364925419 8.663611982531414
Hf 8.960460519825977 3.6333812271677917 5.633378850010846
Hf 8.594995912727807 4.2691604622421995 2.6724897876601403
Hf 10.647044187387664 5.41635874849937 4.089147895914293
Hf 10.683082577466099 7.681310526106841 11.14563792317639
Hf 11.19130190208412 8.335124616799343 8.306424855646608
Hf 10.654948548483258 8.172214904399395 4.952067403303038
Hf 6.874662710304969 4.658746426970313 7.55377583115899
Hf 8.205254906032359 6.536781672539114 5.4446408060963805
Hf 9.250778591134878 5.1481992405416666 11.280812045538857
Hf 7.022928527222358 6.529560288452278 2.676745092780946
Hf 6.325571980194637 4.426935843409306 4.551628605947485
Hf 8.019330861045146 7.62716614389387 11.814225584319171
Hf 8.753637479249894 6.801425115830554 8.951008459579844
Hf 9.646681313477103 7.267524850652282 2.3002539988422366
Hf 7.9604764401508055 9.001470765827989 3.9341823338415596
Hf 4.180961128866556 5.404961543487159 6.612374238945743
Hf 8.735669390284995 9.252159350073567 6.903850950217671
Hf 8.929298445876318 9.646483869397047 9.907103409397141
Hf 4.103443850045608 3.9841247090705845 9.041932351763618
Hf 6.283480330634236 5.8360956205093295 10.179896205085594
Hf 6.10712557989349 7.740550888814798 7.589392315063905
Hf 6.112747294149338 8.852549815499309 10.279358272554704
Hf 5.285051509298406 7.3642518477061 4.6033069364488695
Hf 1.8152324862635776 5.295694660027107 8.084919996275417
Hf 5.732197161578278 10.012657407043534 5.861589778016013
Hf 3.7354859334509607 6.822815234707556 9.26106034101415
Hf 6.622244672404103 10.93353899943846 8.366855570013247
Hf 3.0407653973854902 7.88545332486767 6.701475117314595
Hf 3.8718581673222072 10.138413331060612 8.180711149197418
Hf 3.0366129086377733 10.534309588531972 5.475653489839868
Hf 4.595637583601156 12.411142537098751 6.728948336261435
