30
Energy = -256.20693387 eV
Hf 4.291853922208443 3.201565375537834 5.9807722447761416
Hf 6.977453972994197 2.8774008565441656 5.199386716481953
Hf 5.144040702416287 4.414244834205734 3.470633211081656
Hf 3.0154849318081443 5.552136144020218 5.415635311828111
Hf 6.348308742503433 3.3664944749838477 7.977318707344452
Hf 3.900564239071627 5.295701818839677 8.108797287246038
Hf 8.152970333009609 5.121021844514334 3.8770958168442835
Hf 6.054545236649457 5.5184094960589904 5.918625655412892
Hf 3.899047710266499 7.846988799229143 4.121176544127877
Hf 8.878915384428653 4.4600166537905075 6.714696985766968
Hf 9.008689735030073 4.745806532697043 9.782180145656588
Hf 6.415145353082211 7.0279939229094035 3.0092859256481734
Hf 6.470790294204696 5.965077223858299 9.180150131387506
Hf 2.6847931829743072 8.046207934860325 7.024920308844919
Hf 11.265536406465095 5.308502387724913 8.056450958895121
Hf 5.497714859457009 8.17822518953249 6.77362512601689
Hf 8.992736484688704 7.170866663986351 8.129045747802518
Hf 4.378665049232337 10.315365183551293 8.24755392495933
Hf 8.215071238231035 7.386016208843572 10.960418824154457
Hf 10.964337720257584 6.8742794805837395 10.412464636011409
Hf 4.345274998466019 7.88457079107067 9.543217236550666
Hf 3.8800424739411743 10.319658419988581 5.523678498300972
Hf 8.002819170571303 7.8953543257782846 5.247489540313768
Hf 6.088251544221334 9.687786524554593 3.9582470278083957
Hf 10.608808238034346 6.886786509793554 5.656697847066536
Hf 11.756465751794213 8.134963599971138 8.008740776448409
Hf 6.995081912154281 9.326764588417106 9.074901741420467
Hf 6.713793639726451 10.801262231197851 6.491519811138926
Hf 9.889637732605967 9.444929897183338 9.756975733538082
Hf 9.703520637518759 9.66044849393196 6.772173453278824
