37
Energy = -318.79726582 eV
Hf 3.2024138233555006 6.42585533325166 5.5814723027296
Hf 3.5778605705917825 5.920627904199722 8.945779846098057
Hf 4.410888844164473 4.573755996872212 3.645954078139889
Hf 4.933449968494757 4.300671321628254 6.498805930357346
Hf 3.2318673734089045 7.3865112701929405 11.4487331637868
Hf 4.098830441183263 7.245358750684453 2.8411220551493144
Hf 4.902035534139102 5.062615361548769 11.554585791999871
Hf 3.5082064423379014 8.949579846936718 9.03806599464066
Hf 4.145242605330734 9.006356263912389 5.0494431409114755
Hf 7.368053831236181 2.8277686115799034 6.992262540291802
Hf 7.082814520219402 3.7019431999352035 4.308740333505238
Hf 6.6172202184927595 4.778869591457138 9.09305058018096
Hf 5.39937977473067 7.618211620540502 7.305779734936347
Hf 5.74257736287605 7.438811187406994 12.999050408261509
Hf 6.0482721685749885 6.581865334350218 4.819868810691963
Hf 6.724638003905157 6.124465417895298 2.160036308395911
Hf 5.799649659276901 7.448344058864347 10.156797115647837
Hf 4.903841082724318 9.75915132281103 11.568010617750728
Hf 8.046452901749877 8.603180013684007 8.218083225923056
Hf 7.669924187575112 5.7695267272409625 11.75697829612096
Hf 6.351557914572077 9.096971901486981 3.030166292098817
Hf 6.5238471041331065 10.322773367636763 5.860929863607533
Hf 6.174654137720817 10.320808555307044 9.107339940344357
Hf 9.364779663657268 3.75233119071664 8.660298182798968
Hf 8.529560385376755 8.265812722198879 5.290494844929849
Hf 8.370390874736813 5.635350417771369 6.714402945391971
Hf 7.839372573804184 8.884677323625803 11.345343106121431
Hf 9.146036769506756 5.280283394761346 3.4371518402702566
Hf 9.961951040770451 3.564377519904539 5.704702777231945
Hf 9.356164896528647 6.51929873472029 9.595902811858647
Hf 8.617232805319844 10.69233336622232 3.8434738294608017
Hf 9.312718213581567 10.766648376657242 6.626651275635442
Hf 9.28592391326553 8.03221838377753 2.619955865023897
Hf 11.254539631069983 5.46666815290393 7.575018162062412
Hf 11.066187779727787 6.54180441226871 4.91159575000718
Hf 10.807490078457741 8.293760485563572 7.346381229290617
Hf 11.05391013372609 9.472525805870598 4.701420994394243
