31
Energy = -264.86880396 eV
Hf 9.069831520070364 7.781940020709895 3.6904338291052623
Hf 7.461144953959597 5.646964384563707 4.955716827439031
Hf 10.557197270272741 5.392405425042677 8.671979343222173
Hf 6.489848493881566 7.3867762485697925 2.7145587298947524
Hf 10.754700359483486 8.523189612975195 8.484406420576047
Hf 10.445103913648143 6.899189761598797 6.108165781630523
Hf 7.757626164515789 5.153497071105163 7.8229405589558665
Hf 3.4031524827930455 8.894961969709529 6.236035985583599
Hf 9.86272288035918 4.112239997093223 5.975439924765891
Hf 4.846861469267152 4.248392741579898 6.1707426319230025
Hf 6.239766506585915 3.1266754188735075 9.00249444099169
Hf 5.704364852075142 4.4062804627558325 3.3045290638089755
Hf 6.042353219777218 5.8520305973563875 10.47433990515176
Hf 3.863606412413157 4.834363747496439 8.953013806480842
Hf 8.4573046980494 4.248479004207492 10.514662102714011
Hf 7.694996125908188 10.933987725098666 7.015938006177056
Hf 7.475902624644966 10.38027800384833 3.778487401122188
Hf 6.473047152240197 8.707010033974463 10.130046151031124
Hf 4.6363107988443515 9.311620510636619 3.529971521052774
Hf 5.375400178879573 6.901970800179322 7.580240712916584
Hf 8.82186368584868 7.018287869180177 10.461554489568567
Hf 2.70205714535481 6.1730936985370155 6.85986902119073
Hf 5.1427293251708734 10.044548768116304 8.133116251202809
Hf 7.317130820350833 2.8817359220852077 6.010997957921377
Hf 8.217274192020884 8.061806737628318 7.857124924218441
Hf 9.730617551005123 9.5941194736193 5.76236054576945
Hf 5.264166313574144 11.113390846238476 5.569736544979154
Hf 6.656657315999971 8.50870447302715 5.527820620323361
Hf 9.127547726889244 2.70892875257387 8.297777305753305
Hf 4.163734906436755 6.617839155444916 4.366195509117604
Hf 3.556242809398065 7.767516534179574 9.312388384673506
