33
Energy = -279.92798152 eV
Hf 11.631683043820685 7.003395010250645 9.767607434755549
Hf 11.301027438142567 4.522429394430395 8.355426837391102
Hf 11.645367169043109 9.549083151622995 7.399642869900377
Hf 10.322457424630294 4.766626395677736 10.953514648533863
Hf 11.05407600657943 6.799657853404803 6.733447339881033
Hf 11.062466606509084 8.783820004809519 4.661799845043665
Hf 10.597271726392954 11.330325874548059 5.432208685573592
Hf 9.017450462368325 7.336483765899578 11.469567206283
Hf 10.18431296945653 9.347034499852887 9.775082525461867
Hf 8.83021384848154 3.3751616882059823 8.94731726543636
Hf 8.91591168582678 6.389645366677895 8.841111767753905
Hf 9.250618394650605 4.373803589912052 6.196443326470494
Hf 8.070987095085941 12.134198389750127 5.648650692003812
Hf 8.580487722304383 9.938660556587859 3.707413216927141
Hf 9.419619703856316 11.527076983060326 8.159767122932532
Hf 8.995986176493806 6.8844720976264515 4.633347431966359
Hf 7.476087514387893 4.732045541355795 11.058717655844067
Hf 8.5750497063306 9.24508605245181 6.53003495927987
Hf 5.971144103247884 7.017486549652043 10.036765102941029
Hf 7.487369187983702 9.517203119994601 9.654707883907603
Hf 7.098190582321345 4.9183600784114905 4.136447391760972
Hf 6.108952077829922 4.132785206822336 8.561126223134774
Hf 4.4199157258190755 9.809566232282362 9.67516844754173
Hf 5.971444104676032 10.532451781031606 5.044147030053603
Hf 6.373159482973936 11.434933152881236 7.800201476516451
Hf 3.0335960380450455 7.286191432525044 10.253226352085097
Hf 6.991596668374648 6.126442092702333 6.669558447588087
Hf 6.2376481471571426 7.727350122631981 4.600121224348642
Hf 4.298196741673122 4.834755735413958 10.549357917336783
Hf 5.519591661234219 8.584772351926208 7.344584339104916
Hf 3.6799147013206617 10.87574928856443 7.125852268625976
Hf 3.9846617128513833 5.883298613163967 7.922671915071821
Hf 2.593837897819258 8.484059229189514 7.744604709202878
