36
Energy = -310.69479118 eV
Hf 11.399739649845673 6.629164702173497 6.105171546511499
Hf 10.408082192618275 9.051492213539293 6.785022721383021
Hf 10.148171148288549 5.063091394784784 4.241600401298965
Hf 10.380729126387903 4.052744052094083 7.015575405628455
Hf 10.049271737695664 8.007081921765279 3.932252916061941
Hf 9.94860575730028 6.587042914977405 8.74725927094695
Hf 8.029918577375248 8.693783683982748 9.602369278715027
Hf 9.269705965027121 3.8415640460439864 9.735103460039165
Hf 8.751977026527197 10.94844694424861 7.979797330401359
Hf 8.720092421765205 10.581661391571492 5.035084699668036
Hf 8.475646076479686 7.001186198900061 5.904421586915676
Hf 8.276536110092493 2.1213710896412703 7.71181711108062
Hf 6.692268846735019 8.314703145297678 3.7777929046972893
Hf 6.57180422657399 9.353945998745532 6.651054247237132
Hf 7.615193446548228 5.990363175481161 10.697912901075178
Hf 8.086805265353618 3.3341206457365122 5.047063782794282
Hf 7.485839445801375 5.628181266138464 3.1734188161698196
Hf 6.379240635381969 3.305788459171332 9.6832819306041
Hf 7.6290151603956184 4.8660917352277995 7.649844440466557
Hf 6.900354931610014 12.335924774763878 6.585802657326016
Hf 5.558744197011981 3.6399896208563587 3.878280209822333
Hf 5.887870429139326 10.988779585520042 4.3035020622577855
Hf 5.6685726849111555 6.097565527602929 5.625745153410883
Hf 5.626745979448771 2.7092753359949886 6.656676194556987
Hf 4.863218443144972 5.373246909721648 10.936958836337753
Hf 5.66518026317189 6.816003349582454 8.46637893837141
Hf 4.010583796124452 8.870550306393419 5.094031838560004
Hf 5.258823826861305 8.295159218599112 10.735302138826373
Hf 2.973223458163437 6.787162269879097 9.610430580640067
Hf 6.064354430123161 10.843851015798615 9.064448131051012
Hf 3.370432160553615 4.294010459688507 5.383321650807024
Hf 4.339333107885928 11.338104432853022 6.617985322081169
Hf 4.419673328971793 6.270906282477846 3.293990924851635
Hf 3.786880625600735 4.3679133242728465 8.303898354155702
Hf 3.6546183003688126 9.130404638270607 8.133616200874151
Hf 2.8034105094418553 6.696522937996075 6.7634237832433355
