35
Energy = -300.99948899 eV
Hf 11.5758499516926 7.0545606646617065 5.442745980372815
Hf 11.590263847251299 7.589069956882286 8.396251173382117
Hf 10.378381098169347 4.229316581851175 4.735390556254237
Hf 9.40084017428286 6.642092043903281 3.7497171187898357
Hf 11.829720430876261 9.698604729937596 6.58276137618463
Hf 10.31114020137779 10.232811450259096 9.051103951019059
Hf 9.144267117486004 5.692825196591654 6.629760080897762
Hf 7.762752546850486 9.649282343453521 10.75554394846829
Hf 9.695476743035835 11.416821836987346 6.379369017338543
Hf 10.024353331961525 5.412227608803893 9.535776635945254
Hf 10.065587685051764 9.408180108595914 4.2832272395937085
Hf 7.5684140924429295 11.212409658355762 8.288140800246337
Hf 7.414346902113483 4.595407518526478 4.357474739152854
Hf 10.093329447775922 7.918616500470552 10.767399494638596
Hf 6.828020654612207 7.563834775458394 4.75495161395718
Hf 9.127463858945427 8.607276325181047 6.859657026069008
Hf 7.745380376380825 3.966566158332095 9.535719936594182
Hf 7.8646410931652015 6.207758038711353 11.586501914875322
Hf 7.668159924310665 7.249461634388904 9.105581489440846
Hf 5.4803846279156065 2.934112528784333 8.369422560518096
Hf 6.151461525514882 5.412187257884042 7.034681170306818
Hf 7.945487585176769 2.9701920801386774 6.716732507514283
Hf 5.241472105254634 3.0552080923562626 5.606890852482872
Hf 7.284026032474309 10.47481393087924 5.133498570724423
Hf 4.996690436149632 10.261354914040346 9.581467979198363
Hf 5.800127672948844 8.72764387192405 7.258767809006964
Hf 4.602165309859533 5.544946577915028 4.514677321865506
Hf 5.505858097593001 7.892828832571979 11.157093154646574
Hf 5.303530936924274 5.247469387019317 10.136217750530191
Hf 3.4492871564044734 4.725812766078393 7.280206307648193
Hf 5.173996019922748 11.562551263135054 6.902972895806724
Hf 4.531531717504436 9.607170456464154 4.815108763770436
Hf 3.622912966252566 7.462965323556857 9.042162751987927
Hf 3.261480799633317 7.331265589383028 6.122579741975915
Hf 3.0976222733056877 9.751985890733776 7.368157015352912
