32
Energy = -275.30197616 eV
Hf 2.796084449022213 6.0698625357260685 8.23910252981879
Hf 5.442819213701863 3.1931209359580564 5.278682029348519
Hf 3.1364314016190704 4.924187684361139 5.546224585357359
Hf 3.6968927365270288 3.344703388163818 7.726342798189207
Hf 2.7422303889913926 8.981064089304601 8.481740404237211
Hf 3.1702388787817397 7.8556678190607245 5.772833072665398
Hf 4.104617530288874 7.563797258548958 10.412759396010516
Hf 8.273844417488151 3.8554590259231976 6.216860489103415
Hf 5.690477231503007 5.333043172111427 7.037159694462043
Hf 5.314347424223587 6.024003352116231 4.055713134664313
Hf 6.373539339055907 2.7427926010332597 8.068625644786307
Hf 6.964763567702628 7.528154516255386 10.309577475836663
Hf 4.350931462014176 10.469392863827206 6.790728870401083
Hf 5.343053973800022 7.945830033914278 7.727871364563345
Hf 5.087922744476537 4.850877096424722 9.862023045568233
Hf 5.333458881856027 10.038499911044033 9.561650000985603
Hf 8.014180698060326 4.959963806877485 9.037548081758581
Hf 8.662107016378979 7.690351431876089 7.742413848360659
Hf 7.204416478345858 10.340035447910596 7.175306079298866
Hf 5.865435778675473 8.90773950704023 4.839302363941609
Hf 8.063054284353461 6.774434145681416 5.245665879634745
Hf 7.246911624570221 7.59724564795039 2.6192661813226357
Hf 10.457151065351852 5.0488289874272185 4.810453520008864
Hf 9.785150825407285 6.930104805755454 10.270739904553556
Hf 8.00554154598411 4.7998324339708995 3.290302421772327
Hf 8.974140886849876 9.715021974678859 9.625267490385701
Hf 10.67383459350135 5.56659996696452 7.696349168241128
Hf 10.058102318270734 10.214060694643031 6.990557906591153
Hf 8.824084189143589 9.480363414082628 4.428214877741883
Hf 9.931306487741848 7.100998074314628 3.0568645097274114
Hf 11.385729279375685 8.329864794069982 8.499359124651194
Hf 11.08203091155462 7.8062287979931115 5.641366977937952
