33
Energy = -281.60449228 eV
Hf 8.535791481446509 10.99648198766201 8.163046355765793
Hf 10.795436515444331 9.770203458599529 6.73011303745482
Hf 5.794743889349051 11.409381064368501 6.258322471093376
Hf 8.354243798127598 10.092491234508028 5.305762171908316
Hf 6.136001356090047 10.429934072450697 3.508581343983344
Hf 11.361663811544648 7.078339580981257 7.786311318217373
Hf 10.060619691660095 7.666107365595776 5.08070499629743
Hf 3.4394930754296587 10.029700536810257 7.215559521626525
Hf 10.67332317739403 9.381488989726527 9.452374927678045
Hf 7.63656736418617 8.130467981189884 3.1669090330085976
Hf 4.686215827956427 7.9146714642679115 3.182837509585943
Hf 9.756550350364684 6.91738812513986 10.348953060914145
Hf 8.527559031734727 8.084839799467098 7.783550541299836
Hf 5.895483654244894 9.682050800729147 8.707305702885211
Hf 5.701046087909925 8.554848330074508 5.794922997901781
Hf 3.5995088649219094 10.192052886399969 4.494336051555978
Hf 10.221280900469262 4.79605768951148 6.166653374906161
Hf 8.081938517879255 9.32220858439171 10.483359281274094
Hf 5.728676597250358 5.8764952175574825 7.368614343136241
Hf 10.998804498940416 4.4189513107197005 8.942318933928812
Hf 6.533973254368841 6.908946780965407 9.955898798106944
Hf 7.601688621374941 6.238361070329446 5.26002071739091
Hf 3.726115278981322 7.535029623967603 8.627425252960023
Hf 8.457345492088349 5.139067359102874 8.447896703977134
Hf 2.911422739753759 7.593704446052095 5.586301969627329
Hf 4.679515942450901 5.337562456763186 4.765269065826963
Hf 7.440562057823532 3.4910034984326352 5.922372436888637
Hf 9.38341128898135 2.3433495618847537 7.546493311827585
Hf 4.4068294358659 4.652232897066463 9.448984006948361
Hf 4.655386942129491 3.0537787542086865 7.000643338566249
Hf 2.8563770179218153 5.211730425137414 7.12714247700393
Hf 6.749164931865946 2.892782709349441 8.89388420290639
Hf 6.865109726123927 1.0145119189280682 6.953800244927678
