33
Energy = -283.69345292 eV
Hf 9.996325710632718 4.431096854630471 9.57911192763548
Hf 11.637642290786985 5.844455203696365 7.871128828113893
Hf 11.678267339996985 8.716336421492475 7.623286689075452
Hf 10.385858270051326 7.316077249902953 10.068302987044603
Hf 7.67506748372197 5.969497312723944 10.514888074256875
Hf 7.842248792557182 8.972364132203674 10.644148871746179
Hf 10.37853396632269 10.200232380622893 9.879399277196995
Hf 5.955700300172925 8.429903183063264 7.480814512532218
Hf 9.872752674388142 3.981503027371742 6.584489725366723
Hf 7.433413128157735 3.518193054832969 8.643925733117076
Hf 10.578298690634027 6.759615607754846 5.432856241281512
Hf 8.704681873412847 6.249476716531704 7.780058802845448
Hf 5.233206799320771 4.909377670872772 9.497293376417188
Hf 10.424158543364237 11.411939754739555 7.343279794868308
Hf 8.000669919793642 11.569345291177534 8.953823484041044
Hf 7.287895028444372 2.8837989438981704 5.896010902337471
Hf 5.487087933396481 3.945554934552134 4.219071815928801
Hf 8.816937832854318 9.105714870868116 7.73279571515657
Hf 10.285013059205221 9.597555342189246 5.179582937271937
Hf 4.584373065888062 3.370731286418669 7.073198230522531
Hf 5.533640629586015 10.370820355777585 9.796406325676198
Hf 5.446331802879988 11.418867035244046 7.247487710764477
Hf 8.141779475133786 5.207953891447881 4.323264810847805
Hf 5.021940081820043 7.621485606637436 10.204331389771513
Hf 7.92607113146174 11.113230540111292 5.746427499177856
Hf 6.077066101127651 5.600473869310164 6.547237754879175
Hf 7.870959730667161 8.102379401053401 4.925378065442165
Hf 3.3738744189900145 5.323431581924274 5.227879284851561
Hf 3.4628768735155506 9.370498143381266 8.235624453551564
Hf 5.402153625420416 9.801989878060445 4.842656707034679
Hf 3.3553831956138467 6.3013530541236085 7.963221738154161
Hf 5.415822930659933 6.840889679461122 3.8433836909842167
Hf 3.440565665631213 7.99758562503616 5.662263207193526
