36
Energy = -305.72319801 eV
Hf 4.248594736629937 9.121641091783653 5.491097498343769
Hf 10.336662623944159 8.89906812221285 4.467909910787271
Hf 7.2977823756944336 10.565074692754893 11.701237174605229
Hf 5.9935409864946 11.822398723656804 9.549642919642935
Hf 7.013265113722087 8.941621113449068 9.505294781616765
Hf 11.42519865222796 10.237080605103527 8.864444833726001
Hf 7.415715414179907 4.788127523504943 11.363650765254613
Hf 11.97713891218257 8.535455982059126 6.730312631566812
Hf 2.9742653550360956 7.287245097576485 7.917360520260396
Hf 5.904424492622987 6.8727081286301 4.005317367679268
Hf 8.839169461016315 3.259991256591111 9.281657793886236
Hf 8.855352930641732 6.362262016372513 5.293785910699662
Hf 9.400308714501774 6.3009304494137535 10.246383150904023
Hf 9.739335850425684 9.16326507511647 11.018245208518088
Hf 10.027065902688658 10.81314846048656 6.456023233273326
Hf 5.834036258177981 3.4711813975529777 9.803663435326245
Hf 8.86788914261991 3.5372543164964227 6.051294670680524
Hf 8.813375725448926 11.331429147917769 9.29868792384836
Hf 7.486357911255296 5.336062450304047 8.05101853963391
Hf 7.4836921870059845 7.5738634808397665 12.050899128933947
Hf 3.434825934288406 6.216952233361627 5.343723064869776
Hf 5.807637601781686 9.564008635070387 2.978284505129267
Hf 6.450522565611985 10.721086436255177 7.100030813637068
Hf 5.303445738662065 6.428080083109942 9.947635909047602
Hf 9.336836456374945 8.284912875752257 7.804041766926062
Hf 6.651600930894442 2.529533111007034 7.403223774378701
Hf 5.7222440932656005 7.487624185897724 7.142605443454537
Hf 4.209852214198704 9.788093667341835 8.51478611809721
Hf 6.065884786428166 4.229614616060677 5.278766454795765
Hf 8.294059057316158 7.684213649286006 2.7602939535818587
Hf 7.960612823484983 4.759672456162448 3.255481253732235
Hf 7.601748537034296 9.061280165886226 5.232891029097804
Hf 11.782515400124018 7.536254594074318 9.405069605634111
Hf 3.495021176802517 8.051351363238036 2.9950686408229563
Hf 10.522166020021064 5.549680135267204 7.6100844328585335
Hf 4.41169313658505 4.759230102114754 7.66252558523974
