32
Energy = -274.96917671 eV
Hf 9.335591902973649 10.50634583813596 4.381501727855049
Hf 3.198762252154561 6.5135565716411 4.736189057924764
Hf 4.512504347191907 9.150267209613135 4.094656949379311
Hf 6.583426835696902 11.127298390824894 4.090841958474314
Hf 4.320021740542929 6.466778662942898 10.46649599607863
Hf 7.298386613846821 2.9254647412636916 10.011750696583526
Hf 9.920766196529424 10.210328712706408 7.199540052160773
Hf 7.355603273207061 8.575652728714319 3.1467029422074946
Hf 8.728911140574219 7.929374371923943 8.612060674732605
Hf 8.02076893367325 5.665209307610292 6.595288847570429
Hf 6.206153663274311 2.8998231548446642 7.398693133721255
Hf 8.008003354606648 3.13247050852755 5.201945622129567
Hf 6.395069411412815 4.88205935537804 11.696974445297732
Hf 7.51864201411914 9.225603467821525 6.110370046013357
Hf 6.479401071805728 5.516407976917848 8.925647563058838
Hf 5.416853030949583 4.366031772291343 4.761294081495898
Hf 7.962148394967896 5.560114809708692 3.6666064018600513
Hf 7.007943206466029 7.545829585494784 10.92624298613836
Hf 7.420512131635532 10.541054550056332 8.6962020746388
Hf 9.811617161492563 7.616298366313286 5.451730228685053
Hf 7.863817812555723 12.045492122418313 6.328746705688645
Hf 10.638218015365412 5.984134170569969 7.834089006294683
Hf 5.477854170937513 8.38718189535956 8.584577368625535
Hf 5.11845607230817 10.738288316469587 6.639893190086485
Hf 5.339659981727414 6.577898652641944 2.935454359249335
Hf 10.337822609176218 4.662134993435776 5.424953058987871
Hf 9.18093089622138 3.350981099523168 7.891746850976056
Hf 3.983191152648395 5.577424489892463 7.4750279729652815
Hf 3.3103530619379153 8.410213441964508 6.753421483188132
Hf 5.721723687795559 7.106851595466706 5.756268660227654
Hf 4.564789351479466 3.6579066303684304 9.818456720850806
Hf 9.039658860232189 5.32110745809057 10.228660300089773
