37
Energy = -319.78507834 eV
Hf 7.657746200005398 3.2393471301800827 5.712245703193288
Hf 6.168095158617415 6.0276819187555954 4.8425177361395875
Hf 8.124449073262856 10.923490339358214 5.557421722035745
Hf 3.050599681927048 3.8487501378585005 7.302305738089814
Hf 6.526525012966737 6.463053770287144 1.9885960196023986
Hf 8.94862929032671 6.259125051836906 3.737870857310906
Hf 10.109036495632655 4.463616498849499 5.7794035685471865
Hf 2.7964187285236752 5.657042921668542 5.170890561841642
Hf 10.806366345703033 10.055650856409207 6.3347747987774365
Hf 4.2791912283515074 4.943963318385298 2.779754155638839
Hf 4.222970682256349 7.750470730927985 3.46999391892059
Hf 6.720565594080252 4.9560163589615405 10.294832435825858
Hf 6.928711244102163 3.8781475150329165 3.0172412031160945
Hf 2.8908269382745924 8.289142237207312 6.047276341360858
Hf 8.062979454239347 5.76389395327666 7.587720365588079
Hf 6.42436279787479 10.132447964452373 10.579070781605814
Hf 7.173938237641106 7.43938780184956 11.603748388779186
Hf 9.173531813561558 9.11168358940049 10.805379591849738
Hf 2.2241129663623056 6.4689529613543435 8.22095068244569
Hf 6.205403338327056 11.10400875926872 7.820638370189703
Hf 10.677477043905077 8.281283753346043 8.529567869287401
Hf 11.073418563682912 5.545186432312535 8.070332909332015
Hf 8.55525722733867 8.153999803926393 6.091080574273781
Hf 8.989278681903468 3.5313566212277028 8.526465321464276
Hf 4.648473253116589 7.254347174584468 10.43109145393936
Hf 8.92739048608824 10.772934303959977 8.484662228169526
Hf 4.185870190302921 9.150689971914696 8.466685414050486
Hf 4.86425668324454 6.312483089515169 7.500223414357788
Hf 9.423346549116916 6.18569121625308 10.341164452466154
Hf 7.106458132267765 8.312177276212012 8.726758282199954
Hf 9.917995371082423 9.12024385206437 3.848045719297252
Hf 7.109035610447202 8.75843537449066 3.5308633389982162
Hf 4.876634255537934 3.332661095988835 5.106940422730322
Hf 5.880299594235119 3.302183558244963 8.00338541884904
Hf 5.562133936634672 9.162699160470984 5.860492134660606
Hf 3.933290102410816 4.597720180231265 9.728290025377296
Hf 11.243787386752786 7.194937718249125 5.637821256812638
