38
Energy = -324.0413907 eV
Hf 1.9775287879786767 10.39101758888156 4.710440859498529
Hf 4.102320564540058 10.61180969479018 2.845837416232879
Hf 3.5222424908480336 8.174084951923826 4.16145856821166
Hf 2.9124696250529833 8.424699342071618 6.847408171478199
Hf 3.0962184188008552 5.605828944479948 6.421946950170121
Hf 4.684851396543974 10.714753953674679 5.663575783331137
Hf 5.582768685935845 5.899718421532889 4.723775837816715
Hf 6.1699974760170795 8.793480216259933 3.793561378704947
Hf 6.825876547745803 11.397548794130968 3.5147971734043497
Hf 3.483554331014208 4.024253329330116 8.732649951031892
Hf 3.4957372747060673 6.885275126205193 9.260401040022542
Hf 5.990611055754065 8.415930063628387 6.930904618185825
Hf 4.17185624029611 9.833458803529595 8.817523435029347
Hf 8.047852281659479 6.673666262569522 2.8593124954056597
Hf 5.002031036112016 3.335239323944648 6.190676813860074
Hf 7.588658297696922 10.93733737310289 6.139530942724149
Hf 7.758144539996488 4.0420194274262276 4.103673205433976
Hf 8.235887929874297 6.636695106674767 5.850886413043334
Hf 9.000647220593674 9.127742760276671 4.456195107604873
Hf 5.8985999952432815 2.7417651079481917 8.807934531090837
Hf 9.974564176193464 4.59886005582305 2.316252345094271
Hf 6.150399240828907 8.123410669775682 10.101648002928599
Hf 5.732924632936583 5.55779684049254 7.786230899646585
Hf 5.553524385441448 5.021481465019364 10.630672939580194
Hf 6.829524135295964 10.650034108464649 8.811167115067137
Hf 8.016910216631015 3.8512588968030452 7.015146639073999
Hf 10.763795446688684 6.87156606479968 3.7065282032695777
Hf 8.415588813037251 6.468682174198921 8.87567992146332
Hf 9.05141845944461 9.029638423059241 7.676020196545991
Hf 10.376624206731652 4.511369915996465 5.21097211485445
Hf 8.227170712322469 3.832876440045627 10.105180709008765
Hf 10.998419074823028 6.962369840278288 6.629201300268106
Hf 8.844178576327696 8.94871576131182 10.63152265240429
Hf 8.200454740847999 6.292811358029747 11.786907896328144
Hf 10.670956586943657 4.680784802741896 8.359971438593357
Hf 11.142817047964877 7.270281366120307 9.615554329357277
Hf 10.697888813042837 4.992952567720414 11.251207417219335
Hf 10.681617224725732 7.4900510466713754 12.3822397061557
