31
Energy = -263.09393253 eV
Hf 10.109424748114117 9.302710414847217 9.76618830322228
Hf 7.800570803100881 9.343210726586253 11.405895914998766
Hf 11.448102415775011 6.646287501196792 8.692373640455013
Hf 7.942300203130592 11.453849740667298 9.498831925031451
Hf 5.43057449166974 10.335264290478769 10.126102839114852
Hf 8.827082599718642 6.784672020966349 10.57162690969051
Hf 11.343960651786643 9.26104386109672 7.274128844468641
Hf 11.69377166150953 7.038295157505107 5.649057063775551
Hf 5.75258440907841 7.430384713994864 10.723696440565691
Hf 10.58345730038824 4.658584138784121 6.382836363344758
Hf 7.323724352928981 8.75039729026486 8.628133005081471
Hf 9.508824086979576 4.578358905425933 8.930464248863935
Hf 5.996432256125392 10.899053020937897 7.294561742329328
Hf 4.1333318947998805 8.66613214118118 8.216265811145611
Hf 8.908056980743016 10.771520728414979 6.904473691565498
Hf 6.68578973738412 4.955069912943562 9.376690819469419
Hf 4.047162864946987 5.938903002861312 8.980240377256985
Hf 9.152015956521364 7.088816389951807 7.151010936139456
Hf 9.961985130651865 9.032536120914097 4.828505763297132
Hf 7.202387777310036 8.863992760844082 5.331581201396742
Hf 7.804530331005785 3.735109914541434 6.879066694082585
Hf 6.066320149937125 6.5386860284194155 6.740130310597584
Hf 4.2704500140196195 8.945806936288792 5.345957896664313
Hf 4.851581641566397 3.9496799182540414 7.094944438811929
Hf 3.1042507681553553 6.418352703493579 6.363719200637247
Hf 9.026852566954403 6.432353257570687 4.361720793560826
Hf 6.817838570411957 4.57861331165992 4.356611317904827
Hf 4.019019593177619 4.58015740324221 4.310010695041478
Hf 5.783455273329004 2.228669187088204 5.0726697879319
Hf 5.512500851441793 6.995276174780593 3.680437912814002
Hf 2.7270289435849966 7.139317372973916 3.6572016783506296
