36
Energy = -310.64241375 eV
Hf 2.719907269574413 5.617004187910962 8.831285263217818
Hf 2.5121923742965886 4.891139394513457 6.050696023247482
Hf 4.99257083355634 4.131950128517165 9.918214380011252
Hf 3.44886208663941 3.0126286370568285 7.773661941963069
Hf 3.530639231601104 9.408813845152075 9.101797573401768
Hf 5.29447686873871 7.135200018486455 9.540178890427127
Hf 3.0396932983439027 7.635482509008633 6.662349013161948
Hf 6.670254171184578 9.686029587466598 9.807365253478116
Hf 5.1309346736662205 5.3422176171988935 7.290558622879175
Hf 6.2274813243456535 2.644369822953041 7.820782670368767
Hf 7.727774780715274 4.832291640391769 8.99115644525065
Hf 4.941268163216204 3.4604812690519187 5.173675112228461
Hf 5.49816944092036 9.10832483105983 7.063600962110503
Hf 4.544033815336485 9.229259869638287 4.204740215278829
Hf 10.066896452031623 3.5054171247850263 7.863490978014177
Hf 7.891785049143023 4.07439833147099 5.92363767001402
Hf 4.21288860585789 6.181540186509467 4.095346407380733
Hf 3.147934602326979 10.595179050400686 6.5190678883075135
Hf 9.805531281209214 6.173778556873365 6.86452294817883
Hf 10.525706710458964 6.040897937604648 9.665273665383785
Hf 6.797779270503895 4.929644166576092 3.41094914768105
Hf 5.6272114429841285 11.565507721691333 5.521904844417393
Hf 8.02054209317375 7.13084556003071 10.776224039873998
Hf 5.151795863283582 11.690458000446586 8.256690388928812
Hf 10.793622202458222 4.220012564735747 5.1280875047792485
Hf 6.523435156546162 7.613997505873161 2.7883309663676563
Hf 12.368594042134532 5.153710447107778 7.401082586954254
Hf 6.751330045877881 6.900655897480753 5.464199749216254
Hf 7.788699339773453 7.702053801395355 8.00396556605636
Hf 9.163724928569058 6.69020716234492 4.071355049253331
Hf 7.462227431189906 9.740707330826586 4.516941654798042
Hf 11.942549517776243 7.89835734560386 7.841329510197283
Hf 11.891019173346079 6.944276809224257 5.170670259780922
Hf 7.891220915294551 10.815238024866314 7.409204075959501
Hf 9.919914702200492 9.065994620391919 6.052396436348362
Hf 9.81069494022478 9.029291630440506 9.27396427879743
