32
Energy = -272.28188165 eV
Hf 12.608988448721588 5.957095302835758 5.521624568588583
Hf 10.220912850939692 7.37121967747312 4.4982633878312175
Hf 7.408233596401113 8.54313274937919 4.209868446154984
Hf 4.728804379748297 9.596332123000481 4.165746633827501
Hf 6.698526293983047 11.063518921650967 5.676613874097053
Hf 9.352346121447873 9.650717892666941 5.9956864933143414
Hf 11.677126347484448 8.151393705428122 6.809231751727034
Hf 10.03353050344144 4.649329470518772 5.4893973054275556
Hf 4.959370908431172 6.735966279659726 4.062532980957465
Hf 7.645851133203322 5.533358365990705 4.106298669517887
Hf 5.6071142299254 11.39013962125607 8.410083147667283
Hf 7.907133739850752 9.700429588693677 8.634596068182491
Hf 8.629988509224946 6.992067017564218 7.054582923854586
Hf 11.062451880493182 5.616577824819963 8.078503800833035
Hf 3.81762075043197 10.821521486019275 6.451427290515221
Hf 7.725314469360229 2.9539497866195297 5.18846706967998
Hf 8.519649581679007 3.904611041252149 7.8396645352281995
Hf 5.770186760129094 8.597922611795816 6.776351692024067
Hf 5.02540632851499 3.6023824389925774 4.613515156331017
Hf 5.889543672967863 5.277256921188903 6.653425990077589
Hf 3.020238027156927 5.359666642113649 5.666674589862364
Hf 10.333905060649535 8.067436010401009 9.321317887178301
Hf 3.712254627159811 9.261384284733534 8.811480965683963
Hf 6.181163735505863 2.325478207475048 7.27226060360092
Hf 8.197901424547002 8.235863333197836 11.257799244866588
Hf 2.9792931611572935 8.094646901087996 6.153046319365808
Hf 5.90304273752875 9.732219851447658 10.712511117916772
Hf 8.951768331384832 5.720689539005624 10.10039272498724
Hf 6.374865436427983 7.135743532521419 9.417486497776027
Hf 3.629990508164325 6.2043267595273575 8.422061048364608
Hf 3.724471903015682 3.4520063596105426 7.453549351085898
Hf 5.817059100903968 4.271095490824382 9.355596166119483
