36
Energy = -308.36935657 eV
Hf 11.173605368230849 11.84266734591878 7.873172193245051
Hf 10.112346469128587 9.586806725885523 9.438578142496311
Hf 11.25502983284221 9.30538727514519 6.698623053572957
Hf 8.812327428699529 7.1754867585660635 10.924296265865111
Hf 10.67806682506308 6.922320002169273 8.54764332838948
Hf 10.115748082611598 4.734939838779356 10.200273972632573
Hf 9.811880617048164 11.493915701983099 5.491449156660817
Hf 8.289500837241615 2.8175682489758063 9.327559426886806
Hf 8.373900818634052 11.384279950745716 7.902544259341145
Hf 10.522859039408617 6.350581105763275 5.628052077691842
Hf 7.1364557178911445 9.213694472152484 9.753106120703514
Hf 9.918311349911201 4.0187058877113095 7.311111093695625
Hf 8.444990613695396 8.524538294241838 7.112338154021134
Hf 5.7457205190098275 6.678339139945581 10.724549054576972
Hf 9.66934634467355 8.844443360875234 4.354125163952165
Hf 7.788893631999125 5.6906284322891505 8.576462901591297
Hf 8.767916456917805 3.8837670427876296 4.4129662328288175
Hf 7.548020824366784 4.599608810678436 11.349857703506155
Hf 5.524048432006861 10.617000163256192 7.802729413303965
Hf 9.29172749563294 6.402826655541603 3.139374004138485
Hf 7.022774134144033 10.54407591526705 5.384301408150337
Hf 5.4987808469491055 7.601295644846188 7.534371977608695
Hf 7.31329883254926 6.10930417246219 5.436253503119504
Hf 5.549960497739922 3.9461995321078223 9.398874753150794
Hf 7.10294074419112 3.1036393337607455 6.822356395182344
Hf 3.9925799802631263 9.0231021480257 9.59041819470392
Hf 2.8286786810796203 9.945481442316593 7.160155946509032
Hf 4.535427430874875 9.028597355488463 5.029884636962752
Hf 6.845023832723621 5.398880861153184 2.615731446880731
Hf 3.4224818192109137 6.075549519430526 9.112735505356955
Hf 4.502457302669169 4.642332991307917 6.748647601007401
Hf 6.903305258364234 8.232241102251292 3.379131919061956
Hf 5.795183699562687 3.696665480610779 4.412447140105093
Hf 2.7829574190687265 7.174961431018558 6.440671555900923
Hf 1.432143471940771 8.154307234237159 8.773381531959329
Hf 4.610353967170364 6.345072437041392 4.116869889363462
