35
Energy = -299.01315523 eV
Hf 11.612965067223397 7.238940040206511 9.815024554532393
Hf 10.274920557218612 8.268147798638775 7.503170204834637
Hf 10.436429684320546 5.3107582343694375 7.953149198290953
Hf 12.730439421819524 6.809011457292158 7.395475600610719
Hf 8.961998829353842 9.094040799229683 4.91572152598509
Hf 8.879465180288621 3.295976112828764 5.8765128571866905
Hf 10.750059938413585 6.550252078555364 5.265488246434779
Hf 9.010432453384393 9.074198817839944 10.128181719119809
Hf 9.160215906506913 4.961628142814118 3.60955359857728
Hf 6.942571090041974 9.970790272069376 2.9470403735347617
Hf 8.861751054348163 6.149484673355457 10.32203043827976
Hf 8.106922917718764 10.560042374110129 7.594638070861444
Hf 7.176984843803852 7.096502328518231 3.3353106145997735
Hf 7.9351022085794325 3.7342730872649588 8.548074615218416
Hf 7.3176908002919445 7.738939122485845 8.35920362075943
Hf 8.0146418529793 6.057462635884245 6.010016580843393
Hf 6.560379538825182 4.106467270569096 4.241341137950826
Hf 6.291885405273439 10.150784874955157 9.701186397019582
Hf 6.013275850036835 2.312046674650235 6.5402373761346375
Hf 7.165637885895997 11.507999051170293 5.230072359732429
Hf 6.109488477480537 8.673315740910784 5.533812211780129
Hf 6.1620440816928355 5.298761527075293 10.271664824471303
Hf 6.466644479512234 7.89497371890056 11.102946347152523
Hf 5.322074576098534 2.8746369096627307 9.273759970008188
Hf 5.308234874876265 5.069082140487415 7.1962737759538244
Hf 4.4849423090400204 8.604335789377162 3.0057808972812685
Hf 5.075455386399703 10.7805157076327 7.201790059035537
Hf 4.349905786918811 6.290640934478191 4.466536982521044
Hf 3.783593042971133 3.6034533356253835 5.047395838039815
Hf 4.450722160854892 7.813564588014018 8.314506722774174
Hf 4.610401617107174 11.024033664198802 4.329544804857768
Hf 3.180179812397321 3.0481312450304983 7.573243346665655
Hf 3.445457664206272 5.189546189944765 9.425133000336972
Hf 3.229985066129581 8.806037585722308 5.630886047027018
Hf 2.5646107291278275 5.771530364260509 6.692721960354859
