31
Energy = -262.17797164 eV
Hf 9.974266476269662 6.896043946601605 10.374626501781327
Hf 9.049137133479666 9.667518460090223 10.683444225711433
Hf 7.849742178158953 4.973773356549778 11.006409880208988
Hf 6.936751582422578 7.799537293331529 11.175041190519988
Hf 10.92344598414739 6.166044506559269 7.695459635748588
Hf 6.4279104965156035 10.620309784041734 10.58374450318776
Hf 5.006317817926788 7.029978793587952 7.864322626037806
Hf 8.044280640306178 6.289629957347637 8.377238543006538
Hf 10.315592847618092 9.080876681264892 8.172976163155415
Hf 5.2617140533651225 5.579203579873252 10.194725601810562
Hf 8.70557809991827 11.506413811968766 8.712692760710029
Hf 6.838348978339006 3.5998233572239604 8.60144848425938
Hf 9.744690349700937 4.123775908609133 9.121670026633131
Hf 7.2144057360425515 9.137321512353012 8.322124475392021
Hf 4.43553215651315 8.630686315333547 9.98303125590967
Hf 6.2115247298588345 2.6863769647944093 5.866930967088707
Hf 8.970983439685536 4.435042390020824 6.2597656183437
Hf 4.254078653355585 4.240660170523932 7.379762691979161
Hf 9.284691187331878 7.469012436392012 5.822163894986624
Hf 4.511347702805298 9.565630797266568 6.893505065093956
Hf 8.465719649593586 10.422565791871204 6.09734854616694
Hf 6.437318586663989 5.504523705879919 5.746190127495598
Hf 4.227636046583248 4.167357392383747 4.476592675952902
Hf 6.567219170817649 8.388531192081459 5.18707043410555
Hf 3.5890881927628144 6.931698544080385 5.487528566822551
Hf 6.867949146581423 3.9830286642649635 3.4441057724036233
Hf 8.14738884635553 6.624399731909742 3.1447744774849906
Hf 9.159322508704994 9.200208055184433 3.580358224879027
Hf 4.231333377805709 9.178954427250472 3.8804065787249358
Hf 5.192470939564395 6.503895653788119 2.99568677093577
Hf 6.648207014750177 8.929520538350152 2.314019768813138
