34
Energy = -293.71827066 eV
Hf 8.074009907659741 5.04105683299729 2.963381207208506
Hf 6.253640283993449 7.100525606403193 3.6943922613804667
Hf 9.69036392498162 6.600224292027365 4.942053512285955
Hf 8.528753824127337 8.838063717066898 3.2801918021609837
Hf 7.3131953812087644 2.5051620760066484 4.090170127043391
Hf 9.646330825892257 3.715564532792788 4.945653357535851
Hf 5.21114549433175 4.434576742271854 3.5694312636397356
Hf 3.4796229379873624 7.621148443847609 4.313595670547026
Hf 10.34411604368058 9.510129635631621 5.391384516340199
Hf 5.700973717880323 9.77876256743313 4.076660336335788
Hf 7.097275499890064 5.0673824257865805 5.789903052751514
Hf 7.7709661798545815 8.553958477568926 6.0835823049264635
Hf 9.66816344658877 4.882798898673567 7.570385364860682
Hf 8.176810863721034 11.262689604995211 4.810599933388635
Hf 7.91171879917607 2.5463366803131864 6.994470005755207
Hf 5.216418015556991 2.7077965413504694 5.86046247997133
Hf 5.243837655700845 7.94863295518093 6.605717857609285
Hf 8.948303440889651 10.775266765263925 7.557310948885648
Hf 3.9704254556389174 5.283680561668836 6.1494594785804315
Hf 5.74307763516572 5.087485310550201 11.035952204765248
Hf 8.21712665214707 3.922243031280246 9.987405942314453
Hf 10.007913450072069 7.978407997734997 7.954829517117479
Hf 10.173693320779844 6.095110607478853 10.12583920513846
Hf 2.4440208054068804 7.702016953813401 6.994503843792893
Hf 5.961898858552877 11.015750159659975 6.781750905017735
Hf 7.423541955459496 6.539608561464501 8.992538663318484
Hf 3.3042139780332915 10.119230407219565 5.796708012095704
Hf 6.757307588324505 9.503531244655306 8.947790143301596
Hf 3.8901826256825798 9.596111910287636 8.593608413716172
Hf 4.276879165597167 6.65357246152302 9.113695153039139
Hf 8.851832766556955 8.580906489844427 10.643421252804165
Hf 5.715669530950397 3.9801942492230116 8.386589681508905
Hf 8.117677381832864 6.127738625200422 11.967075521312612
Hf 5.987330221165203 7.934010451042369 11.20617432518572
