31
Energy = -265.29950699 eV
Hf 3.611578503063715 8.39188219485109 2.8620434090188884
Hf 3.090208583840857 6.943753796643535 5.218421472269808
Hf 4.984005606245685 6.020185397182445 3.2281796510876575
Hf 3.2235020393380345 9.824727209865937 5.432732961814958
Hf 6.6059501464664665 8.371212939815198 2.2254541863703756
Hf 4.9969311624584485 10.712768853049 3.294917141930142
Hf 5.444440690735862 5.468094531242537 6.101281026729727
Hf 4.354698728173583 7.854870583404148 7.558669336116062
Hf 5.795741994697948 8.475481223154453 4.926449459964784
Hf 4.391084625377421 5.026191488061392 9.020640114899658
Hf 7.823878975626034 3.445463729995982 5.814156437044945
Hf 5.363356165601831 2.846934271930874 7.242469323631409
Hf 7.611474385531414 6.072451424201713 3.944991874397125
Hf 5.787099584561258 11.312061407985153 5.930963439161231
Hf 7.687510998820654 10.64351777689576 3.8916235491352005
Hf 7.869357783758483 1.9002385304668465 8.233705383115746
Hf 5.897803544526077 2.6466242511305196 10.01910515575645
Hf 7.645475523648041 7.572052183117468 7.059314656645951
Hf 6.205860318324447 4.985510298875151 11.349609677238394
Hf 6.016521393863968 7.4166565408501635 9.905858491449338
Hf 9.172420425555215 8.369884442051651 4.461069504565848
Hf 6.165422611127595 9.90807702838699 8.369352993827556
Hf 7.295834359058897 4.780720481337949 8.524520318428392
Hf 8.502622027510748 10.375982696705655 6.690412765126983
Hf 9.710501927573377 5.700954382300703 5.918053883790553
Hf 10.009088589846593 3.535457528782839 7.819256471122256
Hf 8.760247774494632 3.536454826278948 10.564973111943482
Hf 8.473561183329435 6.452753987360773 11.042406194670477
Hf 10.479982953467776 8.282396972997882 7.044474187231753
Hf 8.735021617338994 8.85727906685664 9.338290175353446
Hf 10.147149126554764 6.149677821451936 8.888027786735247
