32
Energy = -271.64556118 eV
Hf 5.809648581077627 4.6856699522553065 11.429159626292703
Hf 6.0026284331780895 3.2823275813698967 9.024589718819644
Hf 9.785770498608207 5.619234705671172 7.6175991143849435
Hf 8.50664493881315 4.0213223337037105 9.71668711763952
Hf 8.12142597029788 3.1232275866777197 6.874395199218054
Hf 9.919043203060221 6.501888319846982 10.421781876919413
Hf 6.355063199148738 4.409240840809531 4.474632534770537
Hf 6.988637192473796 6.637543605316005 9.940348501529426
Hf 11.062268796414422 7.609848394471743 5.617986416566803
Hf 4.768570176680169 7.367691091851419 11.515352072121438
Hf 4.1836647159587175 5.9055650414484795 8.998224636354639
Hf 11.55825679418446 7.8092134550671 8.512713790904067
Hf 9.272156407319525 5.1979256139357215 4.6527556530160545
Hf 6.62613306050795 5.544021924556299 7.097404715656555
Hf 8.81176476415624 8.330752635071487 8.521503028332376
Hf 5.284131272331171 2.8812622690238365 6.501574353851021
Hf 6.456234630041162 9.609064171766775 10.38513946589853
Hf 3.9077746043380417 5.229354687600034 5.936032672952431
Hf 10.390890474015837 10.164398569366963 6.963610900316925
Hf 8.099922553406339 7.825030814486708 5.424886499901717
Hf 6.0264668652671425 8.324120698368539 7.7021062371834095
Hf 8.248667346068792 11.13068059607227 8.699883804829243
Hf 7.3253916070292195 6.458427255258881 2.8111710582146747
Hf 3.8017248099885608 8.925458843348203 9.413884581418682
Hf 5.078030226248027 7.286740339934282 4.326312174666469
Hf 9.718271663304366 7.615530448460413 3.0213564664513783
Hf 3.408691984241972 7.927521269793412 6.713755829747184
Hf 9.841313470549752 9.995651982415396 4.3113454541789915
Hf 7.623676534724683 10.949067103950265 5.894611361421544
Hf 5.471120094415478 11.051959013610704 7.983902058399283
Hf 7.187391091919833 9.338291484398999 3.234698757333946
Hf 4.999757265713204 9.939951414251917 5.310313063391953
