35
Energy = -301.89323251 eV
Hf 3.7527514949509158 8.849714661380355 8.040364630628542
Hf 8.58829633496422 11.243856836076459 8.404392336811624
Hf 7.371294180147478 10.386590104957811 10.747173500536016
Hf 10.32886369276225 6.849330454287015 4.424072686396734
Hf 5.163010307348866 2.9843832867442495 5.864651750805002
Hf 2.5044212747469903 6.232775205980929 7.897668623380833
Hf 3.777287089734388 3.88651956909834 8.07845895964129
Hf 7.006855400530069 8.012707789469308 5.312419403813314
Hf 5.149984602337724 6.053203453352721 9.69157635320055
Hf 9.594821366664497 8.988079195180973 6.69612723916224
Hf 5.528882344059727 11.20085465985837 8.574685824626538
Hf 6.91844168838114 8.905993392698724 8.217630709914411
Hf 8.204451204352278 5.460929527225549 6.019546652279552
Hf 5.168131831928675 6.0675588997636565 6.701993578762045
Hf 4.784032533954312 7.254227519835041 3.5117831702154563
Hf 10.638143617230899 4.1777040011922555 5.66776364312128
Hf 7.997664167174332 2.7507704959122976 5.402285186476962
Hf 4.77376991363963 9.95556740486729 5.615901250027064
Hf 7.627854743958024 4.513584102996932 10.738192631229062
Hf 9.537826321572854 3.938626582966154 8.452931422633458
Hf 6.666921104437824 3.502584742467786 8.192169881917112
Hf 3.143017774761291 4.8806759259533985 5.220416819566913
Hf 9.668949375612042 8.877719671011885 9.726283817607124
Hf 9.086726545697147 9.38301091984078 3.7734732918710847
Hf 7.47990737365948 7.431037568177643 11.310306694744673
Hf 9.028375839708897 4.471696371925737 3.405035988523679
Hf 7.9296608432551645 6.376156237669223 8.656916316781862
Hf 6.126141884452148 4.674361505122536 3.8064595709628755
Hf 5.061114934383839 8.902866067416015 10.518140393920046
Hf 10.750370034375898 6.4292611374071065 7.55098241610246
Hf 7.790916485074426 6.995438496482883 2.698990387530317
Hf 6.3794455305028475 9.64254923949323 3.1220461973837215
Hf 2.925333541305599 7.747562478210716 5.5768776129700575
Hf 10.007049206266617 6.05320281719577 10.443411028027517
Hf 7.474598068659108 10.80997943692345 5.769655921816499
