32
Energy = -272.48242058 eV
Hf 8.167669168407699 3.4845957645031227 5.450115994575011
Hf 5.576639301182554 3.293249793783222 6.410992058283258
Hf 10.215508682065252 4.046678174897403 7.447675552959432
Hf 5.50444029629829 4.541012243674658 3.7086199863162506
Hf 7.566123370332637 4.001893181025687 8.420650587224605
Hf 9.79898128887147 5.304301471281854 9.897808341388943
Hf 8.230531757012734 5.0809338328990705 3.0757550833926666
Hf 3.5574424094290187 5.230286541907196 6.038811384560318
Hf 4.7884625855220895 4.793945130791279 8.785749364863763
Hf 6.916423626174475 6.320772392256505 10.149775110379213
Hf 10.209700770947771 5.57442294026171 5.087765375493192
Hf 2.4251850873438228 6.2420740039395985 8.407417779070048
Hf 6.702464618507935 6.094013823036656 5.596783447139827
Hf 11.706583007568012 6.424190844111027 7.979798620253807
Hf 4.088853010749516 7.057673253822325 4.0650706079809265
Hf 4.147762133033135 7.09560162647599 10.550077141228842
Hf 8.735431267142548 6.834707695358409 7.746835230599253
Hf 12.490499253571684 9.12123478844551 8.11148319041345
Hf 6.527282818893381 7.408054888135622 2.9242164071306336
Hf 9.270294262808367 7.580955923036567 3.330733922449517
Hf 5.1568304670599465 7.776431029808629 7.808009551467701
Hf 2.6327214181332046 8.204285827771482 6.188494391646896
Hf 8.013943487183901 8.797234163766898 5.6376172231135895
Hf 2.598767501055857 8.868326197769573 9.027907053246276
Hf 10.90199581451008 8.318070672745284 5.714242233262548
Hf 10.55722679131072 8.076674644193403 10.026132043507221
Hf 7.75142683569592 8.930188887960913 9.620653968505167
Hf 5.204165551550613 9.48276892966365 5.079840573978503
Hf 5.048594746895009 9.88991399309703 9.905891479875825
Hf 9.781801959197171 9.801589825402896 7.868770950242721
Hf 6.658883659040856 10.488655535933665 7.496494112191974
Hf 3.8906339191322488 10.579061687791645 7.367168612342636
