33
Energy = -282.92304798 eV
Hf 7.75026751778775 12.794298055156563 6.0658550755737854
Hf 5.902542261236391 10.955037265241705 7.384638401030047
Hf 8.894356482078328 10.930789209793387 7.894702532498974
Hf 6.860712637046291 10.549587018654684 4.547983971114292
Hf 3.7954220075846523 9.142650065640685 8.868246662345571
Hf 6.860054991776691 9.325178274853807 9.590796312527107
Hf 9.61609128555894 10.989485273720172 5.138208320941558
Hf 4.605509149372621 8.876822096744561 5.818708740285612
Hf 8.880805993295649 8.476064671864899 3.9283920995001975
Hf 7.665557227130484 8.642254093855541 6.594575786989741
Hf 9.86763384558428 8.41987681570752 9.575041154796853
Hf 5.031909910953083 7.642949690149462 10.998729652165071
Hf 6.106616492062649 7.6850458226671865 3.331356530394742
Hf 2.670716187678863 7.193632041959273 7.060422870413589
Hf 5.44522525675773 6.975181544397931 8.126367406208612
Hf 7.73812146408741 6.750949325631092 11.083919441935144
Hf 10.58978550349761 8.796328382172678 6.742698340177164
Hf 10.338606901454131 5.634805789500547 10.368361998203437
Hf 3.0578487632166538 6.330854325078841 9.62903490043247
Hf 8.426104826352745 6.222081186859778 8.287308208194009
Hf 3.9574118928869004 6.014914829653675 4.798749830886278
Hf 11.377154382201264 6.424228210648684 7.995696132917797
Hf 6.779234903308407 5.913485025999342 5.560514764321291
Hf 5.937063486560721 4.769639167742541 3.041902575133177
Hf 8.413997246630021 5.85585761994473 3.073540911397559
Hf 9.921797002264915 5.947010632393211 5.541690968296318
Hf 5.51790975965502 4.802525779265076 10.138606531342804
Hf 8.222996314199575 3.9164587709845162 10.158947260061549
Hf 3.9336642579263503 4.504030208911576 7.504515824597753
Hf 6.894060047131642 3.481189193368239 7.652868815700733
Hf 5.2854996416651305 3.348320244056629 5.28050940529528
Hf 9.934191658228073 3.883249100955841 7.826040361043986
Hf 8.141920336071806 3.5411989787776004 4.852314570677778
