32
Energy = -272.63910046 eV
Hf 9.140609556626103 4.69660704920793 9.902170831918102
Hf 10.469845105285923 7.3369174740406375 10.250835636745938
Hf 8.295319703897249 6.848710116024045 11.849662378017575
Hf 10.572130890325134 6.247744404203145 7.746338985986561
Hf 6.257530649297519 5.128626379706844 10.836270456558141
Hf 6.5364760424822075 3.741559840853247 8.498368179425004
Hf 8.235140207266964 5.2295753819361925 6.6484342838015875
Hf 5.7861151229888135 7.947384116567831 10.95218232902189
Hf 10.371937781875515 9.103181222477287 7.921868886071116
Hf 7.8025517141723055 6.946669292523967 9.057935671249524
Hf 3.7911899356629792 4.226851765671201 9.158580927239534
Hf 8.318661220766211 9.461773913725718 10.358798557829067
Hf 4.584682665313432 3.639121676877783 6.435141042626172
Hf 10.141938350915352 7.639830151278869 5.22084100501269
Hf 5.006811113878176 6.569324946106217 8.34890117343344
Hf 7.058661653751134 3.4709432344047104 4.864691358819751
Hf 5.68220760254818 6.434310442483286 5.305365650877531
Hf 7.673692129747759 8.346819040034998 6.556666074346835
Hf 2.964571238473411 5.890076065970881 6.392894904071006
Hf 5.767387047214431 9.66443450918763 8.636179075378488
Hf 5.013660101327678 2.056695425167714 3.8214710344256764
Hf 7.899901325305076 8.723885557405243 3.5533598228497105
Hf 8.242209138492845 5.850117608180733 3.7162593625810536
Hf 9.360857706578404 10.384273676306732 5.456443082175208
Hf 8.113704314844506 10.966452833961876 7.9038933752428395
Hf 3.893111078157531 4.638214817006254 3.6863516108145684
Hf 3.9915902401616967 8.776624044607521 6.358404560459255
Hf 5.584885989609328 6.767160149988814 2.3586437835267415
Hf 6.345051129230543 3.962706587035525 2.232756284773628
Hf 6.399346357178023 10.749828437469251 5.708012951105789
Hf 3.2155121692242026 7.390312601184256 3.9401270333209726
Hf 5.138963580289091 9.202598857281677 3.792997722482034
