33
Energy = -284.2945348 eV
Hf 9.93255584586815 8.562743612990838 5.052131290262872
Hf 8.16930763543913 6.793303469452423 3.2170537671739123
Hf 6.897732755275791 9.368643892593719 4.787704206997098
Hf 10.525968374156617 5.739246281858925 4.598045981543861
Hf 5.340362045887622 7.622571758175781 2.7381436807161523
Hf 6.449120513902355 11.404932727456954 7.026743258140604
Hf 11.403544078805014 6.8603390321100095 6.906881467949172
Hf 9.039910539142358 11.102940888061662 5.959083571568754
Hf 6.029256178788393 4.896630858151326 2.923830029475106
Hf 8.296986399528684 4.077295112423583 4.520331412864351
Hf 10.725411459384901 9.489972869178047 7.877220397077002
Hf 3.9298694495683097 8.729884047061883 4.864068015006219
Hf 7.951808470468314 9.009333944085775 7.689483829362997
Hf 6.005892044542985 6.653999063077871 5.270516792229524
Hf 8.79786142193682 11.593902027311353 8.70802779254664
Hf 10.286829221776038 4.242343828344307 7.192026071785522
Hf 9.056347409164388 9.382424524652325 10.391909499325513
Hf 6.394201705366567 10.284260634741294 9.786592211095616
Hf 5.021426099302806 8.942638014872232 7.48097960098674
Hf 8.495415215898047 6.230567879671427 6.683871831472792
Hf 9.909452817142808 6.791513250219141 9.317516630939695
Hf 3.493873112236262 5.791081566871216 4.301898754897718
Hf 5.504094682413008 3.5089281060376987 5.387524265133041
Hf 5.515294918444455 5.7679926943461055 7.95890129301251
Hf 7.074641423640993 7.353312506720483 10.165826004679154
Hf 2.8549433169750937 7.00514122076729 7.061047209493835
Hf 7.658566876112796 3.0922457852574183 7.113078891090298
Hf 4.152724715024737 7.58550623102958 9.838688678604461
Hf 7.9693468682796835 4.466317365897111 9.447269904331048
Hf 3.188675621506732 4.1442298063172585 6.706802044508851
Hf 5.387121397895461 5.153574055393297 10.789130048983923
Hf 3.0472246822105347 5.0044611812365325 9.258538216433156
Hf 5.210780804623026 3.0859118680367614 8.67350671096869
