33
Energy = -284.14428417 eV
Hf 2.6231440930338406 9.153438004510328 9.077818870302703
Hf 3.4079236489647653 6.430344543719697 8.796085028712564
Hf 3.293206403954821 5.3146645395886125 6.163888856182049
Hf 2.819662817018902 8.157156969521303 6.363560341718834
Hf 4.212325218251922 8.07316691041592 11.167751639913824
Hf 5.650607343638456 4.372459776397827 4.883933715194711
Hf 7.299244562263552 5.380986436704711 2.4676552140131216
Hf 4.205517558022342 6.75892969659983 3.834525493712968
Hf 4.519430701580131 10.776224756758815 10.323188259058705
Hf 5.519151686321282 4.466961297824409 7.948676202924576
Hf 4.327279055267988 10.816064671173951 7.2577367490835645
Hf 6.357025047546449 6.263563510107911 10.29430900646114
Hf 5.526909258868282 8.648339321554328 8.667348523992022
Hf 4.709813695413689 9.495147017161997 4.667521915540388
Hf 5.598504325827181 7.1403936484363815 6.2422934607746114
Hf 7.960177844709112 2.8578514375199817 3.883796503510429
Hf 6.809273329466698 11.247708321427325 8.852063865055705
Hf 7.935210878411544 3.037949846941786 6.874296678717681
Hf 7.010593422812193 8.011487147136503 3.8069667440956536
Hf 7.029258914950344 10.051466182264075 6.195915483629883
Hf 8.451497091467525 5.449203320516949 5.044686430591104
Hf 6.952414265763022 9.205635027689835 11.043043576176595
Hf 8.00015519037742 4.061791165406652 9.546017134953546
Hf 8.047191641565206 6.367792546206217 7.719621565427528
Hf 10.10257273606215 4.45706733855136 2.9071819285464233
Hf 10.351318325221705 3.181071080273389 5.376101086081996
Hf 9.6346301197598 7.175445708261 3.0320056721408752
Hf 9.454631056952689 8.44149666802131 5.657302836583582
Hf 8.682824091369094 9.095175352251143 8.635215852297407
Hf 10.360276509982207 4.5286931768606244 7.943084674610997
Hf 9.325644323524452 6.539298623317743 10.216222670295833
Hf 11.229584600876455 6.046110794473842 5.2833871811668605
Hf 10.844083488023806 7.360424689809451 7.877618922754884
