39
Energy = -335.78480178 eV
Hf 9.953660145561368 4.519737303255679 12.595417711387174
Hf 11.107275404353848 6.610315973167047 10.9415658265486
Hf 12.524254162243949 8.625693296732544 9.181433337726993
Hf 10.391695743518607 9.357109411741773 10.92144713575077
Hf 8.4238159850649 6.816106672116531 12.340420199318196
Hf 8.910913087627565 11.453266869512879 9.809364739223554
Hf 7.309355825458898 9.029753846038574 10.23340723138568
Hf 11.174865839155135 6.35904596981275 7.98435510296496
Hf 10.275351957227672 4.068480301111607 9.722192440574064
Hf 7.6074923921151045 4.142446990302729 11.10068376714671
Hf 12.0566680717191 8.842263959301249 6.4949465825819095
Hf 10.927623976285554 6.39957124567335 5.013109611515699
Hf 8.457642901732571 6.445227852181333 9.48227092581293
Hf 6.2199034935376165 11.502548263566132 8.966874153585541
Hf 5.846320192367388 6.544197476663029 10.962255524349143
Hf 11.436716200687407 11.074639555977864 8.677813398121526
Hf 8.964461799447202 11.829305939966542 6.943228734852732
Hf 10.4623519310309 4.077013456714968 6.560878010134756
Hf 9.588114885182113 8.96040516036837 8.108237805518158
Hf 6.164001050868886 12.61961920552302 6.411269225070227
Hf 6.825232303862616 9.742162245488183 6.575132892304895
Hf 7.948099022257994 4.007883649861404 7.981674686014975
Hf 4.019997885590305 10.72234876153501 7.1468628821912565
Hf 3.3472642652812508 6.430134328691468 9.519410110326815
Hf 7.7402472386779735 11.44247885230264 4.349583825814286
Hf 5.1621263289248525 4.386228795532134 8.954653703874644
Hf 8.347435755087975 6.728214014451617 6.333856868124858
Hf 4.40794601328725 9.213265387287004 9.752113961237303
Hf 9.472249489091453 9.245636295441725 5.009419020173225
Hf 5.654493247295585 7.153820809714897 7.87032499382865
Hf 8.708709260911611 6.746456252092271 3.3951030746487665
Hf 4.994264311722813 10.992929701304332 4.448408583896246
Hf 8.278957744700032 4.284144885683971 4.859011675643725
Hf 6.741496658065582 8.8102495393925 3.685814894015862
Hf 5.757630918631222 4.056070990371304 6.243437237275266
Hf 2.7908673969195976 8.241018998154296 7.5887275451178855
Hf 5.975922954964931 6.134617995305387 4.445564145678715
Hf 4.17640517825742 8.363768182309716 5.160893584038353
Hf 3.4836629523486295 5.628054297735048 6.707644784313779
