39
Energy = -333.47701857 eV
Hf 9.648177154940598 3.4093436519692 3.404274615020773
Hf 7.4033632101154065 4.125026105541314 1.7891080573899822
Hf 11.829943885242221 2.9178416248690118 5.461649149155733
Hf 9.249268332576923 3.2618997583988074 6.321297775290369
Hf 5.457719427755967 5.703453614392727 2.9115117893149725
Hf 6.970752886689697 4.025368345780974 4.622205026298816
Hf 10.835888005468448 5.451973732748594 5.050843506263912
Hf 8.497398290228128 6.192587148180882 3.4333658052079015
Hf 11.091981197067623 4.776837987343068 7.77501848139802
Hf 7.539825543619692 9.562897804559887 3.9792691062415506
Hf 10.60761686049689 7.7671685250768965 7.989452503399162
Hf 8.60700484450067 4.451144744356803 9.460065729250037
Hf 6.34220551452131 4.085025484526476 7.728733035186943
Hf 4.667615961344903 8.376093007604123 3.094671146919005
Hf 4.16791993022704 4.932239088923666 5.898207721185032
Hf 9.74475718253892 8.367345378760987 5.323518153026505
Hf 10.714508001308195 6.206380433745763 10.291576120996215
Hf 8.45329123221905 6.015437172712132 6.730606950502858
Hf 6.18697080139388 7.17047171950395 5.227529334337157
Hf 7.501006483039605 9.32456400623314 6.9734441295587
Hf 4.84751742867224 6.932458632857005 7.9682754203874335
Hf 9.352033801305101 11.235456985241251 5.742421047758348
Hf 3.8369919952561466 4.252186067536175 8.804917319481731
Hf 9.727689101842468 10.527289754996882 8.552283362384088
Hf 7.687702223621099 7.46674018299276 9.43897686773292
Hf 2.060262559913232 6.022623125012741 7.590771169354062
Hf 5.833178299636913 5.571958702525843 10.600424930998644
Hf 9.629605116991835 8.746743371337532 11.02619707259127
Hf 3.1364767129769677 7.803156966904326 5.648598809190115
Hf 8.50789196129324 6.013717458007891 11.872712474413973
Hf 5.00813036106191 9.958227212735022 5.306831161973754
Hf 6.801196341215055 12.15048353704736 5.09033530778978
Hf 4.936744553672862 10.333188963892454 8.162675336538726
Hf 7.499096563079961 12.09376307575984 7.805612485164923
Hf 2.5092270435813675 8.67834635095616 8.516231720795048
Hf 2.9351808248661455 6.476472336540452 10.269199506007519
Hf 7.240932408315929 10.383487840131558 10.141890876463455
Hf 4.780294452096648 8.743637636974308 10.425744258899288
Hf 6.999729964865102 8.219627740585397 12.162737372716427
