34
Energy = -292.68579675 eV
Hf 4.385944720754435 9.334666669995078 4.205796164180784
Hf 5.206027639185289 7.600299587987556 6.361554930147828
Hf 4.2196145566821555 10.309687440222362 6.923858142696575
Hf 3.5220944320470755 6.553725821764232 4.178858005233782
Hf 4.0190069550425855 8.598789345353094 9.154509169573592
Hf 6.927628378106417 9.71621584446227 2.8946755925431518
Hf 5.936081732753253 5.001600637283279 5.064748282551858
Hf 8.140853327220142 5.30422847754517 3.3718141540208837
Hf 6.3393575086740155 8.07278159094044 10.688325453195725
Hf 5.996748900103883 7.094402789613586 2.933211764309308
Hf 2.5595927355928167 6.284137218113506 8.920927082773474
Hf 11.012616791966986 7.390505985516778 7.567674442326987
Hf 9.319951869491547 7.90544828081359 2.6793662473069593
Hf 9.203961493140735 10.467214102561288 4.197074282287791
Hf 8.580522228766684 3.673228720017353 5.71674181063665
Hf 10.427363880824153 5.865188736183504 4.797690047360142
Hf 3.3729142279288244 4.945745141200413 6.51036242626905
Hf 5.887437532116464 3.151748091849946 7.344187668757859
Hf 8.37952432752781 6.138397837419651 7.47015661466209
Hf 10.816682679436719 4.46821417886968 7.237242716829445
Hf 8.003770190831656 7.941750002346657 5.115978315916085
Hf 11.000672703302214 8.616706678470907 4.987638144039183
Hf 6.759691309909815 9.343494995415426 8.202937754048834
Hf 5.642673055702806 5.861815744259691 8.649814644760662
Hf 6.729170276940117 10.732228519603066 5.603339268688089
Hf 10.288502806633918 5.593874382234723 9.706595877711761
Hf 2.4687090481603047 7.9651672542619325 6.517172189864097
Hf 9.406435144956776 9.849526252644393 7.05400157690171
Hf 8.506593371876056 3.4767361493742617 8.736044673957334
Hf 3.620264456606877 3.7839126664678537 9.137031901655256
Hf 6.059688007890552 3.396404783653223 10.244552723012
Hf 9.044391874932565 8.108528913335377 9.73573418049215
Hf 7.707953212174198 5.67325890452578 10.907652326238104
Hf 4.551405943484195 5.7690116063706505 11.150764354704386
