36
Energy = -308.28014717 eV
Hf 4.760780451583571 2.153747203110459 9.049481769907272
Hf 3.8414756361125444 4.65284221519422 8.033650845727275
Hf 4.27043187934609 4.25825524026626 10.813276385253753
Hf 6.399037114635194 3.4329221133542953 7.048116612665664
Hf 6.925404057631961 3.641263878461403 9.978865970942193
Hf 5.549151162921747 5.72649519598971 5.660228401421936
Hf 3.374214115260216 7.544238576963087 7.0883983635009296
Hf 3.918586246632454 7.071883484307888 9.861487507314024
Hf 8.105483544371696 4.637152200369153 4.389636061327063
Hf 6.37270928875786 6.099730160978646 8.536045771353407
Hf 6.4157493562800205 6.115801049026156 11.429768295339262
Hf 8.813385539291831 5.326460576035735 7.147252293883016
Hf 6.329517600183298 6.34028232528833 2.93178992303428
Hf 8.984626834533495 6.626274790623552 2.4402187583150647
Hf 4.827273567821789 8.423714811082327 4.166591732856934
Hf 4.0744093086642375 9.866459157607155 8.680817834113185
Hf 9.048156334157534 5.7817445944371215 10.268638806874575
Hf 3.6100232483770736 10.198964108080348 6.0132446208511965
Hf 10.61041513602624 6.090807510414942 4.809722215680851
Hf 8.08888487413385 7.493040259503178 5.105758183517365
Hf 6.115258868511718 10.860305155881115 4.949470922829741
Hf 11.25581575737117 7.386873486978439 10.84153583547692
Hf 10.25869139892718 8.803051208188869 3.5987523203338774
Hf 8.754411400744788 8.352247145286245 11.835349240065751
Hf 6.415968315034513 8.806535475626486 10.042381534054876
Hf 7.417645297030975 9.19418453137161 2.9015442392832687
Hf 11.255461712987437 6.320010710547818 8.20746087549459
Hf 9.142514484949318 8.48490379590519 8.801468641748505
Hf 6.033870305521804 8.583636499976173 6.932952699344028
Hf 10.826243029629433 8.57142452096141 6.333262033833904
Hf 8.87915837631093 10.519979291306067 5.433248091106014
Hf 10.872083002580794 10.122745266209206 10.872645117189958
Hf 8.33029044953877 10.90582613889743 10.467384986898981
Hf 12.177756957697126 8.98973960230773 8.703566247638127
Hf 7.286045598117028 10.881131576978746 7.885686700583237
Hf 10.22441571820307 11.185759286701417 8.208995241570445
