39
Energy = -335.17500571 eV
Hf 5.843285811731609 13.494124710584066 7.534477163260553
Hf 10.408250192823443 11.991754562873341 7.069886036668235
Hf 7.939513371821703 12.538476706985028 5.83406394656157
Hf 8.269625069194356 12.754262895386853 8.842088608216832
Hf 5.428239404714307 10.92500953494678 6.465237649163416
Hf 11.595325222239678 9.261051129847269 6.994967186062927
Hf 5.655806458597773 11.294988980570308 9.460750035828626
Hf 10.30426633097401 10.387675522084146 9.58212144212777
Hf 9.68510258161578 9.900695537072071 4.8882514376026105
Hf 3.4585005099689865 9.77258437634144 8.380542002951916
Hf 8.252665393410691 10.252268117328812 7.490222718893273
Hf 7.718522894848452 10.094142808458647 10.832501444179313
Hf 6.703229079599589 9.100616972571729 4.712855392055018
Hf 6.0024754356742 8.45351923022067 8.138790520330314
Hf 11.95305001975933 6.383656650985816 7.344651291360339
Hf 12.002037858679289 8.01107761283778 9.888612992262566
Hf 3.3966565608182644 5.905982965500144 6.177626777461026
Hf 10.103761328972574 8.608165270831467 12.011823857558378
Hf 11.131536004239914 7.291871434116391 4.814798475477415
Hf 11.564808785263198 6.070752705886741 11.941026904812137
Hf 4.043996687064672 8.548098675777464 5.737925908991389
Hf 8.832780572113375 7.553309656483131 9.692459289546008
Hf 4.957869101388729 8.763680055633174 10.792929871288635
Hf 13.32432632304131 5.582944593748218 9.867268865682396
Hf 3.6680320381343665 6.841227470837649 8.888469325951423
Hf 9.1850515358115 7.596325502635725 6.773528111055017
Hf 7.421601609938976 7.695655347169503 12.371293720718631
Hf 8.424040829741386 7.094088433311963 3.9449490042557613
Hf 6.49301546556268 6.04571431936775 6.321393887097024
Hf 8.747690087999102 5.32486361635742 11.537115985618149
Hf 5.263913605960805 6.5821590691558125 3.8233951844656935
Hf 10.706725949888876 4.839445334903248 9.5039650233749
Hf 6.063751240478982 6.113408284866698 10.375903546578376
Hf 4.910880738070481 4.239780406287035 8.073398470269632
Hf 7.95009983436998 4.7770307717852365 8.69409322536777
Hf 9.57485085589951 4.885258665415103 6.038216627040246
Hf 7.419376483345685 4.436647628637097 4.0456101219642715
Hf 7.1780611087028285 3.1291961422994485 6.555621331667944
Hf 4.896160756029839 3.917995231312813 5.125802610429668
