38
Energy = -324.56862498 eV
Hf 12.556640605563393 6.522038128144941 5.116228984713275
Hf 6.602358498388874 3.442437253795997 10.589348385883461
Hf 8.267928379229353 4.328832247661466 6.575782457340279
Hf 13.082705644289769 9.149544744472347 5.219098691006389
Hf 9.203681749767235 3.7459007995007356 9.312950959997615
Hf 9.975903898623415 5.430233085942821 4.374919593245456
Hf 11.074629685482163 5.035135691739054 7.171364700978809
Hf 10.504421808194119 8.306239685523002 4.133132398435192
Hf 11.92119414006405 7.849055286109355 7.551235456234852
Hf 5.78258355523754 3.3400022865369188 7.659920446601459
Hf 7.1710474027146835 4.495647606002806 3.7639276580651275
Hf 4.1876311857173265 4.407435437647137 9.745258554400271
Hf 8.437411273091106 5.331638748441917 11.531625854396667
Hf 7.7394180693221175 7.215443240196119 3.793620009534171
Hf 7.000798663999535 5.897758769620466 8.938426562706544
Hf 10.671480372838444 10.141312508869385 6.325601303726924
Hf 9.122671122264151 7.241653295361802 6.601466141002981
Hf 10.088195383508962 6.503963644618499 9.537479604571777
Hf 4.854404550548472 3.4529345660043553 4.77433170180173
Hf 5.918634527296812 6.016631870034742 6.099165561156168
Hf 9.469963286637977 9.370811174989848 8.828739544324035
Hf 8.025449787336974 9.871695907596662 5.245275162204264
Hf 2.411496272345974 4.642556647281264 4.063642325093646
Hf 5.6870918508015915 6.065580422318984 11.537537459806853
Hf 3.2426182070817386 4.507894672039525 6.9115091733826555
Hf 4.847741037460056 6.09725270819787 3.3446061999706824
Hf 6.487544349651262 8.937389578529828 7.83076915439986
Hf 7.78633362895296 8.076848035370181 10.951029005778494
Hf 8.27444417014722 11.628125911225943 7.520542329970387
Hf 4.175260744530256 6.91945330934262 8.362332384775652
Hf 5.202989147327045 8.832726405538365 4.8674901906207335
Hf 7.134924886438506 10.91171614389461 10.07751950893722
Hf 5.07946424565161 8.86081330170894 10.414450177806186
Hf 3.068806792162069 7.020830558784486 5.492376554784177
Hf 5.60529365021619 11.422874793133815 6.3797746844057714
Hf 3.605211189106162 9.54467353752895 7.1486967675016375
Hf 6.29431155781601 13.315085173554342 8.566546041803452
Hf 4.512004737499879 11.320603192447381 9.078459870445409
