38
Energy = -327.50598111 eV
Hf 5.910422415179618 10.05670304486843 11.565953392447998
Hf 8.821327149141656 9.508660163079888 10.833122132081266
Hf 6.988099594472407 7.474863053751557 12.217176675338544
Hf 9.811464340215473 6.7860220827665065 11.379045401702877
Hf 7.131773079599798 11.615953378230591 9.520027437596495
Hf 4.305166786353494 7.810891188540443 10.434416312475978
Hf 4.407728213712018 10.601480118658493 9.2256567454483
Hf 10.132732662469264 7.756828189176601 8.712125410537196
Hf 7.591218385922785 6.240096078014262 9.537361712181557
Hf 5.34308890299982 5.209051099135698 11.215804948833037
Hf 6.604846651600087 8.884552781217291 9.055674279231338
Hf 8.979804098790973 10.219210279205212 7.846966845000285
Hf 8.031027171833545 4.692662105654422 11.880215619133255
Hf 9.711469297057773 4.4867134812405585 9.43100953348204
Hf 6.295412940231082 10.582921139263973 6.746634067429096
Hf 2.8017314561364466 5.84827363930704 6.737104594687533
Hf 5.092797756926034 5.568556304202345 8.252776982205043
Hf 4.190159012772585 8.42641710098774 7.336773443621167
Hf 6.849134331785713 3.449795222319985 9.569693641531178
Hf 2.679414644667923 8.000423204400544 4.839976678019993
Hf 7.737283215672333 7.877767527589142 6.677630455787037
Hf 7.673298750697476 4.302587373420579 6.961069428184507
Hf 5.232832028101857 6.52987097218361 5.177549390151812
Hf 10.314241054190363 5.70353483267061 6.669244295071069
Hf 5.227123027491192 9.353591477163 4.07890316985034
Hf 4.73448008432477 3.77911668628801 5.840159454279836
Hf 2.871709787761464 5.2042874500696525 3.9981581641072186
Hf 8.296493923751894 6.161751856020609 4.569871931335375
Hf 10.383288103855833 8.221459091153637 5.3289297250297105
Hf 9.710118768843222 3.540997412305757 4.700411867863487
Hf 7.0882673401090175 3.2857211004396647 4.253295403859611
Hf 8.084296992119212 9.443282954626975 4.171322998887249
Hf 4.021826301417894 7.309612319129099 2.5276980275846093
Hf 5.489606219372833 4.852133406971624 2.6203231970410426
Hf 11.054519323497576 5.7881007007011975 3.841851448214797
Hf 6.804550956108391 7.5488353316770755 2.2564731761739547
Hf 8.62537454801412 4.832060965683741 2.1936818856473375
Hf 9.647409365965043 7.710104332744538 2.4559333800194367
