35
Energy = -297.79738656 eV
Hf 9.725700514419499 7.438687776074106 3.4428791625571393
Hf 7.774172143114604 7.538563220170304 1.2403177022756033
Hf 8.241258612443191 5.071861259910594 2.589251002089755
Hf 6.15495247126522 5.504546535855201 0.5280158607950519
Hf 9.86025725434895 5.028987188694236 5.009678602575123
Hf 7.2910226607921675 3.506866403165474 5.305254878111109
Hf 11.326082842922032 7.2494199806390585 5.976045901855831
Hf 8.812508703921159 3.4466790727193937 7.699946421017548
Hf 7.332337576700319 9.240234237876544 3.479148282492849
Hf 5.2769778258781255 7.2944223310054035 2.632895919504503
Hf 5.48478404706434 4.494654723319516 3.2052599840490457
Hf 7.211491223669076 6.653457433409325 4.912010610242212
Hf 6.060094659660352 2.4680187036645993 7.861517427183339
Hf 9.109972960946994 6.385974347002496 7.62635189661845
Hf 7.78090150117554 2.1593758616091376 10.106476961635353
Hf 10.863292034982608 8.72415875808248 8.149458099167623
Hf 4.537642596337314 3.2488061367894057 5.642581032075159
Hf 6.133458402226998 5.439015616163139 7.73320165930429
Hf 8.850383735562948 8.962006776257528 6.033837630917531
Hf 4.074203858742809 5.926406079945694 5.2256910556013985
Hf 8.26596145059153 4.918383069866454 10.046148559244171
Hf 5.46941278869026 4.03838125024022 10.313046700484424
Hf 5.077576556987141 8.844285345142662 5.206247644332968
Hf 8.95526282172247 8.038068251860636 10.145922103350877
Hf 3.4333266869718653 4.40915982091949 7.91646890955585
Hf 6.4653260446416345 8.640312244614348 8.135110263660874
Hf 6.671832450110659 11.005448361032093 6.367165031713216
Hf 6.328271853306681 6.906109904508912 10.838177947862318
Hf 3.7712188015577515 6.280869278976042 9.908870430263345
Hf 3.4546453255954757 7.541976196357694 7.527127400380507
Hf 8.626888912251015 10.600241884612256 8.653666047485688
Hf 4.061945431251152 10.345359595335866 7.352292653682623
Hf 6.979468598416085 9.741618738019557 10.921094897268988
Hf 4.2609862815450965 9.106493746330232 9.987757938392438
Hf 5.870610697284825 11.432234542685803 9.071405179438441
