31
Energy = -265.33353035 eV
Hf 3.2727566368264234 6.953681198080464 9.123717388395248
Hf 4.622412795507313 7.078151424721994 11.500865507537938
Hf 4.043082506339993 5.077891335667189 6.922669231938332
Hf 3.819822439818637 6.671905617797525 4.190661676133417
Hf 4.9155340196243085 4.536197722438025 9.824782704522818
Hf 4.509660646670952 9.558863053830658 4.656733066581444
Hf 5.76769941157856 4.091141794608253 4.72103283408391
Hf 4.918556954372251 9.4167559404993 9.599418044435447
Hf 4.532281547166676 7.964513017849177 6.898968604738916
Hf 6.317839439206232 7.014204732211307 9.17460835991747
Hf 5.3722000569074835 8.453572218086233 2.303085281874479
Hf 7.062856010989722 8.491979833108058 11.537137782762274
Hf 7.018512310070874 5.641247431865937 11.659367003269786
Hf 5.893159034234576 2.9531320285623983 7.523760784186196
Hf 7.1667880390006555 5.348991735510188 6.866896231267016
Hf 6.528291026286638 7.300826363682334 4.663385675596
Hf 6.351409871165364 10.261822177319253 6.861759411041986
Hf 5.987748342620291 5.703152112092701 2.3080060134392806
Hf 7.863555199058559 3.997451909420053 9.413275627725247
Hf 8.142327125036887 9.694214829545809 9.124645472392599
Hf 9.143441802656389 7.048837878202614 10.138997906006086
Hf 8.05398471201149 7.663985894996715 2.200629546491023
Hf 8.289907541148537 7.776042261593274 7.000061773132299
Hf 7.415049490092602 9.98792809118233 3.991725202899722
Hf 8.708562790813515 3.281779954371911 6.38391875138978
Hf 10.110003759601502 5.201327473091515 8.231306209169881
Hf 9.189134659474288 10.339187443339945 6.342033444839267
Hf 8.41984415738667 5.165250588145672 3.7587477443134065
Hf 10.83053045173307 8.046070710841887 7.536825004417547
Hf 10.376085369504402 5.708375574826921 5.711737809530041
Hf 9.797930313760602 8.165088673418026 4.477225216384418
