31
Energy = -264.05174003 eV
Hf 7.208144753536121 5.838231706416568 2.840986855713742
Hf 9.467707272442102 7.871716636053467 3.296656061061057
Hf 6.568959066060922 3.627078959775778 4.884067210265048
Hf 8.337677770838235 5.803842341496088 5.289747279743479
Hf 8.569112525806064 10.588921825972466 3.5696794674264463
Hf 6.556088594706673 8.544566139132183 3.3074904017164064
Hf 5.067821316917904 6.295971362422877 4.768420340681662
Hf 10.854080224751947 7.2335757683952 5.797397464034242
Hf 8.418533580023931 3.305171744461826 7.296047910554533
Hf 3.899549308190407 3.93155900872188 5.859384937009475
Hf 8.165454431717857 8.820723304870567 5.826837560350734
Hf 5.649270039956683 2.0670200688899967 6.99726962910475
Hf 10.762887037751529 9.917739897054389 5.117729294050129
Hf 6.229055502853031 11.077146531014193 4.861885445940211
Hf 6.02320816688787 4.800859819940105 7.813171140352108
Hf 9.173750671880619 6.366171221607518 7.858370843163517
Hf 6.603154641787853 2.448053226890986 9.48495953548971
Hf 8.689924628462506 11.493361669112662 6.5021216257601875
Hf 10.36061025025821 9.235361179060211 7.876729581453263
Hf 3.7730867423499865 3.510248036930956 8.828357409419604
Hf 4.442876125637115 8.983257393891083 5.855862350451704
Hf 3.359964823434164 6.512436569928511 7.127148556219243
Hf 6.343462212739408 7.582425741474029 7.717535380643321
Hf 8.196665309371253 4.805785746604837 10.061925805656156
Hf 9.204366756393462 7.655963488528679 10.249730309485054
Hf 7.829698108623083 9.797613392602106 9.170092952258099
Hf 4.317708532888149 8.92545399955572 8.899816925839923
Hf 3.9013859057792692 6.310310352769212 9.79272006553979
Hf 5.942287299126701 10.753382401282579 7.499828228029321
Hf 6.449980196778542 7.303993312274454 10.735857574938397
Hf 5.553893522017227 4.5201531197729645 10.937864803457495
