34
Energy = -289.2069185 eV
Hf 8.12792723256102 11.823092231274698 7.41738642955599
Hf 9.120825496045722 10.236974965878042 5.144947515995985
Hf 6.421527336885701 11.398698150700845 5.184560331987866
Hf 9.182150572811574 7.549345566542696 3.4192038793135207
Hf 6.716499203639226 9.075999508870082 3.697315767278607
Hf 7.373163773884723 10.039658745819576 9.64942340266879
Hf 9.67369192287916 7.476693325415973 6.3235371111462255
Hf 6.801425285539438 6.528451214913826 2.00699894358126
Hf 9.019332910461186 4.8236577488690155 2.671081438515207
Hf 5.405237739503872 11.342897534908804 7.788656693242268
Hf 4.367023149650565 9.397381080694108 5.843161630568135
Hf 7.084684567430608 9.054880626514512 6.883370449505282
Hf 9.859841915143022 9.77506590262166 7.989874634008863
Hf 9.13157711199703 7.576404531965844 9.721422251385617
Hf 7.057630721747626 3.5024006552471056 1.4152456882948485
Hf 4.491557869019692 7.123506151106871 3.8149433087717677
Hf 7.109563571172524 6.214750476496744 4.957482496897423
Hf 8.190907395528985 3.3488271398139715 7.623337031069122
Hf 7.594231777256058 3.0370696850241585 4.344723624620503
Hf 5.239299411292724 4.36797974067663 3.267742185632842
Hf 10.188146365631626 5.25450641609624 8.25930167865924
Hf 4.409152566367725 6.619584644318549 7.0838323108661205
Hf 6.347171428918819 7.186607078231817 10.550653849510221
Hf 2.948004765218918 5.055909884268781 5.068671195058461
Hf 4.732559928474094 8.88552518346302 8.82466289331441
Hf 7.351837594527116 6.183537190742256 7.905895417341963
Hf 9.634147871569727 4.697452319531944 5.493351818408237
Hf 5.434542920441143 4.017333237607572 6.176600057894286
Hf 3.7654717546837144 5.967669169688259 9.975639120869511
Hf 8.187472757786903 4.783008739123969 10.263838844096
Hf 2.9975378960269214 4.203602307431529 7.87837907394282
Hf 5.459344507949951 4.665099847721354 11.854253970745116
Hf 5.669177455793089 3.808451635567237 9.199707260628722
Hf 3.326210456844093 3.3245292086912257 10.68276742155916
