30
Energy = -255.35562453 eV
Hf 8.917228843305717 7.831089530345289 3.8670055926151723
Hf 6.60545184706723 9.30093956679381 3.562693666230217
Hf 8.560823353111166 4.941644867730697 3.639358795419558
Hf 6.0011446498903185 6.426648280966696 3.5153651591822377
Hf 8.615421936773542 10.828472292292165 5.064038085648686
Hf 5.675637140126174 10.966745044674283 5.483802649585057
Hf 6.215789940722302 3.6993594634593845 4.739768634369652
Hf 10.499559095103352 8.749280042013352 5.924139285815039
Hf 7.351287965286372 8.883921927412898 6.59085333668032
Hf 10.295001275438343 5.842045729237315 5.801917359522491
Hf 4.530438098791487 8.303156868989744 5.402216080320615
Hf 4.398720244641515 5.412405549603869 5.68446990551195
Hf 8.60462863915798 3.4080206899834633 6.0316333226682355
Hf 7.341801568400347 6.014292719435994 6.068001117608173
Hf 9.040383121520202 11.72735744765471 10.397535158357845
Hf 6.116097854800756 4.051894878800373 7.840703807284008
Hf 4.822582388331045 9.785046400325271 8.009344223734933
Hf 7.216577998286457 11.641721610641222 7.716867618065029
Hf 4.395957888730109 6.815400310031982 8.048549208309122
Hf 9.618686780722449 10.083496496961569 8.267921782028992
Hf 9.403513613415315 4.582681543355374 8.427170407892296
Hf 7.402710300897693 6.910749427026892 9.181769216840628
Hf 10.449156476247037 7.330530025597166 8.431358485344832
Hf 5.121210522375802 5.4101297394185615 10.406529719338726
Hf 7.008846031888121 10.016160465414954 9.934109422132531
Hf 4.950377474343288 8.145214334370745 10.526257990912649
Hf 9.429539460659258 8.772154499710663 10.852673171417594
Hf 9.667896923612972 5.96388622058671 10.880399211805937
Hf 7.523478600638529 4.240624235357561 10.646105548957523
Hf 7.153359299205075 6.848239125297216 11.990751369890182
