32
Energy = -274.0949589 eV
Hf 11.622853281154278 6.385465199952876 7.472643775065163
Hf 10.250166136552288 4.600919207734818 5.330811554902955
Hf 9.480091906402354 4.744931256623897 8.297801949086276
Hf 11.639257701409312 7.212000310946837 4.94476152019909
Hf 10.500586339991983 9.271613016949798 6.885747357518966
Hf 7.133345298066333 3.269486857809937 9.023171588035853
Hf 7.815369479514229 5.332332300053386 11.270461368147867
Hf 9.695733896637188 7.412483369346731 9.229978869071166
Hf 7.206985452765542 5.203106667012065 3.453056168456526
Hf 9.024798656032326 6.985731196872901 6.212933124640073
Hf 7.1714026087906255 4.292423458709032 6.29850229357882
Hf 7.562891732738742 8.395350109119514 10.856239330243143
Hf 9.692018630777131 6.459448555222161 3.1599107066810177
Hf 7.024041444248888 6.225743767424119 8.880853587478114
Hf 9.91790394374379 9.126880487672544 4.0118453558019835
Hf 5.135041900900853 4.35527400440381 10.576869249675473
Hf 7.564428550746123 9.221950811908624 8.050637383275776
Hf 7.540059206838705 8.22876525250415 2.58817838688469
Hf 7.703867834993283 10.214514076450287 5.308506027432176
Hf 5.377482115784166 6.89405102056997 11.474359060481852
Hf 6.415258818853906 7.516749337253159 5.112408087611322
Hf 4.577050683325065 3.8879539456466046 7.774567693321504
Hf 4.800531927709832 6.88046059140654 7.4549538868111815
Hf 4.586412694064403 5.036488109160463 5.010427148602894
Hf 4.874280437668154 9.00235281964837 9.613552212552003
Hf 4.94861678184746 6.948977388420027 2.749287801452906
Hf 5.004666025559139 9.848255757483562 6.651247733153821
Hf 5.2430188471188695 9.680119111010717 3.696487267676114
Hf 3.117180758368029 6.481772989838192 9.716899186374963
Hf 2.3208185724788217 5.751078564838846 6.926257580955257
Hf 3.2987922789607103 7.859399605868732 5.040725027418593
Hf 2.564161411909797 8.530238989999587 7.783269937080246
