34
Energy = -292.49173679 eV
Hf 2.828507524549748 8.281076348075189 7.184929575594494
Hf 3.2255986483617027 9.107368712690988 9.961868608335974
Hf 4.736113682985757 10.580614937893314 8.029238922094342
Hf 2.6007026768645907 6.391387585041744 9.380181183149338
Hf 4.704749639596661 6.968253183997145 5.100572389240728
Hf 4.5394774404397396 9.79312049246909 5.398347987038214
Hf 3.884819680359658 5.1582807895521015 7.075512685195154
Hf 6.100483474553194 9.339340952638564 10.595136757974371
Hf 6.59045270478567 8.835485236020517 3.7811526148924295
Hf 4.504280963760678 7.028801241495361 11.430417700179078
Hf 5.173772673990488 7.418858480695428 8.6074196081396
Hf 7.388006867821088 11.11323472005742 8.695973781530093
Hf 5.904382161857472 6.314883588454031 2.5800398653017713
Hf 5.547470370533118 4.175255372347952 4.678004996174751
Hf 7.136124298087037 8.675323181113564 6.766967501299287
Hf 7.045587526253495 11.261412117984595 5.767968220974373
Hf 4.778516389435517 4.57655466104303 9.704510035480963
Hf 7.529898731961244 4.167267386647369 2.6188968510828294
Hf 8.784394308902948 8.644559783712346 9.41649485430203
Hf 6.040062034729946 2.6781368165000963 7.602421417720527
Hf 6.992731977328575 5.199215702464701 7.354228254432425
Hf 8.113683822615473 3.0466000229224033 5.27046619442785
Hf 8.009830827536335 6.20938442186828 4.763446098657798
Hf 9.486208970356882 10.369049753639306 7.159450279658836
Hf 7.242381483533759 6.5702719251103 10.784682030686543
Hf 7.442273930146252 3.8137128033239045 9.993774736221967
Hf 8.80738298081816 6.835683285396639 2.2181700422972663
Hf 10.072393288413808 4.4496481612245375 3.461865899444016
Hf 10.31413944300737 7.685412780836729 6.942980429761117
Hf 9.194059748278644 9.20982061380734 4.585370607365538
Hf 10.413425953708476 4.776195092404755 6.251697564906932
Hf 8.93441709961239 2.976542364383098 7.956587696923558
Hf 9.458534311762355 5.702595505987458 8.968349036323712
Hf 10.90317358176217 6.925957668550406 4.300233346078739
