30
Energy = -256.4345587 eV
Hf 8.509429593869621 5.671337373319885 11.69176364839679
Hf 10.106857421336766 5.310498095315544 9.527434976204953
Hf 7.7226858027069465 3.3928509832059746 9.91002303142476
Hf 9.184672577858347 8.003811496792057 10.045312324228544
Hf 5.791999434434396 5.0579963403198285 11.471891560067377
Hf 6.613116968383622 7.804225132940364 11.396015515530058
Hf 9.208062082014818 3.997943445180468 7.14560733293377
Hf 9.73278838909503 7.0595183172509435 7.301297831301434
Hf 7.202544503778898 6.013991555204237 9.080291252495188
Hf 6.724995828011974 2.8095214112587406 7.236666569934579
Hf 8.8875872747645 9.800489799787677 7.1508170658646835
Hf 6.463707453255955 8.826376376868277 8.621279711287388
Hf 9.529029350367866 8.475661644211703 4.552668312364754
Hf 4.425053409016439 6.985470103209745 9.863107755093141
Hf 9.643663913356527 5.578712897966391 4.816801178137864
Hf 8.090351216669868 11.040855014780314 4.763627174319805
Hf 6.30925721143431 11.144109744250262 6.880528238386589
Hf 6.954865053524457 5.72752361098929 6.095344703402524
Hf 4.822435231760899 4.155805577375078 8.8975650736744
Hf 6.626107151716846 8.534092563030512 5.382089146480669
Hf 7.347326840169299 3.6707389250521074 4.496958491743402
Hf 7.681142578044265 6.473080594901517 2.9866568819371384
Hf 4.3128998627230155 6.541512332658523 7.139969696944009
Hf 7.574042102966711 9.436828554584023 2.6326567900051545
Hf 4.139779575092267 9.4623710497008 6.918178799738861
Hf 4.571730576314843 3.9076702974094033 5.882301049518038
Hf 5.144425445751758 10.56499750759871 4.165566932542773
Hf 5.086376321903362 5.540767453998405 3.7339322709929688
Hf 5.271543961324684 8.061790888243973 2.6121371883858315
Hf 3.57192459545989 7.950562246117147 4.710864154202309
