34
Energy = -290.53167385 eV
Hf 9.982484024794195 7.977157069423667 1.9771747071774544
Hf 7.489636013400663 6.492360908221879 2.745952233852909
Hf 7.752508000827554 9.326349975797516 2.736860797954175
Hf 7.129983433956754 10.577888571619173 5.210060247507067
Hf 5.29456171916408 8.351344269855561 3.7774362685122234
Hf 9.985887594735829 6.472734765205926 4.309342782059985
Hf 4.429893256548084 9.638811877128449 6.506260482831525
Hf 4.839208580462402 5.427610691523943 4.184451796264504
Hf 9.887035280723094 9.399872922634867 4.6175488304259105
Hf 9.066597692914486 10.556036738396694 7.4838988082992435
Hf 7.585378540219006 7.720431836007031 5.446673646147315
Hf 2.982302488861047 7.553469138927346 5.134709407331768
Hf 6.2592467755371635 11.529234852973712 7.692719264103187
Hf 7.6695614386935995 4.7322053619908875 5.250538611967435
Hf 5.142762153619558 6.490622985535187 6.9087306610184145
Hf 2.731024604963607 5.049693179261421 6.123334362895081
Hf 10.066839638202417 7.640130153996523 7.121368407489481
Hf 2.799898260564054 7.602310523768293 8.060400507786499
Hf 5.16660763822933 3.5703009731458835 6.597807496285161
Hf 6.955819393249685 8.689242391609712 8.323041425158635
Hf 10.326298047397309 4.585556810094043 6.805430333853221
Hf 4.674355177686091 9.876130261955781 9.523621794386015
Hf 7.960605531334224 5.752878115107898 8.023612808852508
Hf 7.641935180045475 11.007511253727241 9.957055271639902
Hf 3.47364220921272 4.8235634584670235 8.733016659694055
Hf 8.139092333553982 2.7775220648113255 7.5523750052562
Hf 9.42101558597066 8.731269660612051 9.918847912662399
Hf 4.932172916854365 6.902217350640004 10.11583450505001
Hf 6.069970926413389 4.076329994901397 9.4309090617293
Hf 10.60432047305243 5.768759268885978 9.476180252035338
Hf 6.75845530432423 8.808399177370356 11.296892436366257
Hf 10.915274512142826 2.8189977592457343 8.798597883797704
Hf 7.9039343022319954 6.301046212109061 10.862195524711503
Hf 8.789382674058478 3.6896635296157356 10.168839016071367
