30
Energy = -257.36748761 eV
Hf 10.834107078519244 5.673600022718064 5.496184264299613
Hf 8.942392644740233 7.242828119089273 3.7609293024380275
Hf 6.586725874648332 8.927405009445318 2.9118764359562155
Hf 10.320268734868868 8.594681762392518 6.214105632305398
Hf 8.329768956718967 4.330148518852666 4.507463760788674
Hf 8.684494002775724 10.123264325882216 4.344339907340636
Hf 10.895592880009366 6.363870880555003 8.243250482057581
Hf 6.0238513896909005 6.184181112218366 3.5450972802384944
Hf 5.441256077831535 3.4788068810020323 4.308400979306352
Hf 9.32454332645017 3.855826572436975 7.429299343944886
Hf 6.00495333412116 10.927813397969324 4.872143700735706
Hf 8.570614676000789 6.4670941695066295 6.7386913920917815
Hf 4.188183890462064 8.528989869090365 4.597356389473492
Hf 7.058218174880312 2.3865013951114746 6.326764010276536
Hf 6.779884922992596 8.331835093890847 5.6910211392207035
Hf 6.452499475400108 3.5813787453910133 8.91673880849556
Hf 7.925016455135292 10.589686815616036 7.1211545439626
Hf 3.5472250370797043 5.483989382255384 5.378101686626152
Hf 6.113292511395422 5.166225115678531 6.502531222672773
Hf 4.3383011169208885 2.9990862695600824 6.903958306032756
Hf 9.132529314333187 8.547662631779827 9.121101798562332
Hf 6.128965061590752 7.415956807901877 8.43879712465566
Hf 8.531348110653916 5.685025982719398 9.85464585726479
Hf 4.798135523622311 10.071457735524135 7.358921108767699
Hf 3.31185083447209 7.699972484498127 7.237413090687229
Hf 5.632619317946403 5.61418042199944 10.745103252313589
Hf 3.793097020282785 5.291434220475877 8.58411902426225
Hf 6.577951232323674 10.11369044783355 9.592273120678486
Hf 7.088241171893945 7.896571592558925 11.102220786304644
Hf 4.270551731496811 8.23274107039579 10.103976454660861
