35
Energy = -301.35246852 eV
Hf 7.3268324513761245 4.094156369306692 2.0110746229256287
Hf 8.742566857942926 6.522202614248689 2.08226840300319
Hf 9.713752209057281 4.11663120042799 3.6775704667827016
Hf 5.975665683052514 6.476970965597374 1.9748821478581458
Hf 9.951510381601043 7.8861785277918806 4.244834022731429
Hf 7.277421280446578 8.641680707064628 3.490984507052025
Hf 7.2117886146729555 2.6261037336079016 4.2939563208207225
Hf 4.882388374244765 4.332600588551983 3.687727298247539
Hf 7.4445238558203854 5.640581771096583 4.577742680202077
Hf 8.820807495702669 3.3523742465506645 6.359527923712301
Hf 4.555832196564036 7.160972246693184 4.318761299631431
Hf 7.914547934576695 8.17842817293726 6.543374042738826
Hf 10.887766143041114 8.570293794167656 6.803404425345598
Hf 9.008997701009326 10.389365493370779 5.583215530605013
Hf 5.737952463347644 3.736615469267241 6.4981579106657446
Hf 10.478652475600471 5.71414609064589 6.15145887248055
Hf 5.371850402467139 9.65025585243212 5.576825571033895
Hf 8.2342662590285 5.600843615200739 7.9339914039144235
Hf 6.903359812389762 10.99825426949007 7.558169935628041
Hf 3.0585110694201503 5.411566332541765 6.205709921822244
Hf 10.17387572157377 7.252995583162422 9.175926783198042
Hf 9.301445067116207 10.119441501827792 8.647039607156017
Hf 6.945556321780975 8.007430900044353 9.42078348228871
Hf 2.971919655707923 8.281762269545167 6.407475879186881
Hf 5.344553241248641 6.652893604435988 7.282462439932862
Hf 3.964507387911528 4.427114518829944 8.731480454971758
Hf 6.6082381185740635 3.9542173093320745 9.367015327605898
Hf 4.464052522710064 9.780033844009546 8.34293345286747
Hf 8.24059758358208 5.942485849695379 11.048321033471536
Hf 6.79182029753032 10.544446052733342 10.548720244786887
Hf 3.054572793381918 7.11049650756945 9.016451485977562
Hf 9.125221186971903 8.811098743674789 11.250607298394113
Hf 4.416578771898343 8.805344714993906 10.942141652718162
Hf 5.185765693434409 5.949328206914156 10.91736907665943
Hf 6.68400705068651 8.074056312632012 12.274674506483052
