30
Energy = -250.32244893 eV
Hf 3.5102459572826104 10.659622529128315 10.747504577350433
Hf 8.945321829008579 5.876810048402148 10.182636161339026
Hf 10.18575811660201 10.293296115794556 4.643919472836722
Hf 8.702951707140748 3.279026525262035 8.651814221497352
Hf 7.117493255547039 5.5077986057893895 2.9700764090402916
Hf 5.0646782234079915 5.598342342155082 5.174194542145369
Hf 5.512093991207324 3.0647578085148384 3.86896427581199
Hf 9.856009738747954 5.3474823239512554 7.018311102573533
Hf 5.587542595204269 9.215929118233134 11.999040658703134
Hf 8.918801210801377 8.117524930710733 2.9698700150919994
Hf 5.040783998595747 3.064758424885245 6.555799730945508
Hf 9.838688744916896 5.518184431553643 4.010087974946012
Hf 11.175578459470069 4.6087444779492746 9.287638286115612
Hf 7.783667858906128 7.615926041806433 8.079856338216931
Hf 3.1766777928613177 7.845578696172117 5.41886532097944
Hf 6.592276121811949 5.06509993258942 7.911809534698443
Hf 4.043096951544708 6.571773415698899 7.883893436764164
Hf 5.709580717353748 9.69457763414306 9.29892898104336
Hf 3.5454946610084987 7.979789284789057 10.485648723845369
Hf 10.628020206328353 7.6478142159352 8.7212119000434
Hf 9.126879763425704 10.00080932920269 7.413039673299492
Hf 5.809965796584927 8.153275604541376 3.5486432199992355
Hf 7.752796324611082 6.939287328065366 5.308099882859424
Hf 7.561518786766689 9.922072611462678 4.865288821814669
Hf 5.481614883536682 8.768761888833644 6.483819516889217
Hf 3.02418328817329 9.344167426715774 8.043548437688624
Hf 6.091723786302891 6.797229466871377 10.415342077602673
Hf 7.654410040564203 3.9102892120313135 5.504097261693658
Hf 10.583860945126379 7.859540797085489 5.624121611976535
Hf 8.334819794521604 8.770183024326505 10.442921121204398
