33
Energy = -283.78609524 eV
Hf 6.23298090260051 11.394762668668552 8.148355107632606
Hf 5.459460381415401 10.478600880426244 5.5526627724131465
Hf 3.6022310658941916 10.02560725515656 7.990678723529077
Hf 5.387270171324856 10.014608155445782 10.405273129423847
Hf 4.78336256673658 8.972342814138006 3.182797171434251
Hf 8.322476666192285 10.22105005231877 6.6027917766491315
Hf 3.129872101420705 8.811715867579835 5.33580093732991
Hf 8.194219492347283 9.774436277045554 9.70669566442174
Hf 7.674923876575552 8.996416395016073 3.965372510259339
Hf 3.8106779752640687 7.7999615523073995 9.971427707996213
Hf 5.9278878639439965 8.48940800225016 8.034749435706502
Hf 10.553691663675632 9.397911959774534 8.187950729920042
Hf 3.2699110958090425 6.890324555894773 7.238637758616777
Hf 3.644982446828957 6.327472775283004 3.8401543059035905
Hf 5.785975514489666 7.203748715600169 5.340330923328417
Hf 6.268657181998409 6.839672217254352 2.4947759127600286
Hf 6.69007245502778 7.43893128658222 10.728007685195397
Hf 10.184852750735997 8.070496102464107 5.564892110354348
Hf 5.168747433404243 5.52582867821796 8.956936767001848
Hf 8.70636180909086 7.165256603732112 7.947824857357633
Hf 11.66169775977858 6.962531092952386 7.9251315888661145
Hf 4.396487622488174 4.211603455984992 6.3514279391124635
Hf 10.031162470743144 7.392944709512551 10.350176988760758
Hf 8.631605645249664 6.120491202962208 3.9377460963624173
Hf 6.024679559348006 4.381850847300025 3.88375093641445
Hf 7.297017177986608 4.866373773779221 6.665008604646584
Hf 7.832319247589177 4.77166678449996 9.825038875059908
Hf 10.463745034374691 5.033092171836226 6.139445096989655
Hf 6.057923442169114 2.878599148131805 8.459442238242334
Hf 10.411595109947395 4.79919514641032 9.00037277127708
Hf 8.726075645489942 3.3500937204074126 4.613684831149567
Hf 6.47046422187293 2.255343113893186 5.809519740546907
Hf 8.891428612905795 2.746676531884611 7.515307933144386
