30
Energy = -250.7678335 eV
Hf 7.8415232142358775 9.699902538711605 3.6389132171166256
Hf 9.960392041422647 11.57228995399372 4.853670639449272
Hf 5.782617179511197 7.313973488089342 4.135833825255845
Hf 10.350027619935176 8.921349976183715 4.984511533364314
Hf 6.9667484929628705 4.863128144824504 5.007911155829018
Hf 8.689543606164895 6.9009169508212915 3.947486571212865
Hf 5.253286777445113 2.704353680585357 5.2935753418942815
Hf 7.583890309457653 11.326991510352496 6.187528602330971
Hf 4.284541083832267 5.335086156273262 6.121840188076116
Hf 7.477951110691845 8.368337882746227 6.171932280993245
Hf 5.310881671188938 10.017330647561492 4.9896589234977835
Hf 7.858854873277711 2.5825172379840553 6.478578185274723
Hf 4.597867277734699 8.204613722501417 7.340570708783587
Hf 9.627659937015546 4.821240726400381 6.2543362575012
Hf 9.927138245879867 10.226905781526169 7.620080104184763
Hf 9.950062274943608 7.401915095540216 7.358784058869573
Hf 5.513439049734538 3.298926946908799 8.023588615196466
Hf 6.838358437285275 6.002017263275648 7.8464242819240155
Hf 10.914958870779452 5.443094724240968 8.928036061568177
Hf 4.875348883218108 11.125645412127579 7.548653224103756
Hf 4.082803069080306 5.608644128114675 8.874991794729487
Hf 7.111239037914482 9.564793730285103 8.805020540062205
Hf 8.52793545383453 3.8285593281852317 8.904431897128218
Hf 11.313794699003948 8.241527433823133 9.63502230401918
Hf 4.404465018769065 9.884640410180072 9.849730468832206
Hf 8.590121817359401 7.1433417914997746 10.08096414945443
Hf 9.365165753382577 10.11404072916999 10.564178435255862
Hf 5.42835906558793 7.419831584797657 10.439323732622436
Hf 6.445272754627216 4.8021759203179855 10.443352924207126
Hf 7.108520391984874 9.244675121239178 11.653837995523459
