39
Energy = -334.97615609 eV
Hf 8.311853782533115 11.836722586323795 9.948846876533922
Hf 5.6064732085623135 11.182685295163378 11.090928985928153
Hf 5.802951088009156 12.075137682440198 8.535597637261876
Hf 11.097124118193296 10.905127098525044 7.791042021152011
Hf 7.84995088445692 9.901808610462199 12.0217742187484
Hf 8.179998550698759 11.230988439097612 7.019905776272723
Hf 12.277481885646576 8.917629287444306 5.81576099723093
Hf 5.02216294634026 10.450202393541225 6.361315915780933
Hf 4.0636657107783085 9.769226476751932 9.065103431834805
Hf 9.986694981456415 9.328900624414617 10.072831607498165
Hf 10.278373082599673 10.670931129293722 5.081421962701527
Hf 5.463770567873442 8.217163687586352 11.372168131366676
Hf 7.001251895535308 9.398078404971361 9.221923888159111
Hf 7.681575818236535 9.715669302060778 4.314796696596508
Hf 12.342136926107775 8.245344843232315 8.528814800456665
Hf 8.229169624390458 7.101260099754492 11.577931597884033
Hf 4.910162156287855 8.881368433985765 4.013518166825061
Hf 6.6486256780218085 8.137588963732682 6.449298457766759
Hf 3.478049266835051 7.842005888530493 6.219653007414534
Hf 10.414825643477348 6.5022400298432625 9.59234683779777
Hf 9.673228887505891 8.511349554545964 7.066111272352027
Hf 3.8672350046099546 6.132509044302134 3.811515328853937
Hf 7.698382014429348 6.382574697553629 8.623404939211294
Hf 4.77266051837913 6.91466626325202 8.678196634285394
Hf 5.674999236591252 5.49332847485238 6.090381243162567
Hf 8.6390805398422 4.380376035866292 10.539986857647177
Hf 10.035780343553556 7.939962325465581 4.154103382959697
Hf 6.0250859897660485 5.351625017326364 10.880527315379053
Hf 11.489699388507022 6.151044976482868 6.4307932771416905
Hf 2.976392114162233 5.018335458912108 6.523788754032745
Hf 6.834330074328879 6.896478794043727 3.581443557182995
Hf 8.601808397559092 5.877500503685093 5.61950889583407
Hf 6.582312639503831 3.657515217444321 8.535701206572197
Hf 4.910957324328784 2.6178102394892635 6.184808894511887
Hf 12.45546240513675 5.011892888548182 8.77293024458772
Hf 5.896701724153779 3.9209186518700183 3.7173037660713204
Hf 3.138599458960681 3.379480193262589 4.239847872787947
Hf 9.671172737155027 4.168758214102282 7.8431852889092495
Hf 7.614304356323722 3.0890380640287636 5.850986682456255
