32
Energy = -271.74278887 eV
Hf 9.393770586438011 10.180161532789635 7.185947577072443
Hf 9.870801000168994 7.452903705088506 8.05681304643899
Hf 5.702536084570024 9.732366892386146 3.6305638375195546
Hf 9.542849435243435 7.524158588642571 11.021770275842414
Hf 9.618422513884118 10.250141204320398 4.257946812694844
Hf 9.158768208591313 10.180483522204288 10.235654058506112
Hf 10.207740441838125 7.583399392966241 5.012692684040065
Hf 7.747883626006229 11.107067544574894 2.4609344729486393
Hf 7.542784774516582 8.174827395842543 6.069003527868534
Hf 9.308643513058891 2.56386896439361 7.952947491132294
Hf 7.186421043530214 8.164614275559144 9.076570567273544
Hf 8.048192152918785 8.197563841925204 3.0876563077292842
Hf 7.300202371348105 11.331809939929531 5.424006609702974
Hf 8.088552380480376 5.6231053720693565 4.514077849080906
Hf 4.847037443248105 9.51270465233316 6.298691658512204
Hf 10.272707471355405 4.892843200993148 6.466753529184694
Hf 8.06919441797647 3.1373039919334658 5.550648164436272
Hf 9.960030429444853 4.928516659863033 9.563030700068133
Hf 6.368554593349316 11.006973981684235 8.059780192818849
Hf 6.499214339890282 2.344895904392086 7.704477510632101
Hf 7.650829282404019 5.1652896319262736 7.72843018525056
Hf 8.470306179336934 12.505145733889863 8.752249225740234
Hf 5.376298203935303 7.072159395696018 4.586343267360137
Hf 6.66000927654897 11.361650785352623 10.750017601545641
Hf 7.671104304052351 3.1984023865448807 10.08052034678399
Hf 5.4301822005406235 4.433697422756133 6.040939283697562
Hf 4.797590327990382 6.967410460946847 7.650318243993768
Hf 5.169565055498788 4.469049883640209 9.140008538763583
Hf 4.618595495963832 9.502751415772973 9.612524719471423
Hf 6.992889207248835 8.718548965196755 11.833952980447528
Hf 4.843763839047164 7.0184934528506115 10.656553313817176
Hf 7.358537568810932 5.765128092950853 11.013165795827943
