31
Energy = -261.18929567 eV
Hf 9.045085085756162 5.648336181049484 10.252996337638258
Hf 6.2769811340483255 4.970041221865604 9.462105393005691
Hf 9.824362416027773 8.475073309770554 10.02921441412623
Hf 7.666431347708683 10.11479978259004 10.89542007370169
Hf 6.770843173496918 7.415358847873517 11.010625562996777
Hf 4.111584225335954 6.953301844198682 9.834397012980636
Hf 4.896674455223978 9.741483263495875 11.014202181791829
Hf 10.845123679354892 6.377460601265985 7.9906455939696786
Hf 9.610551406934313 11.36016507753005 9.29551543709517
Hf 8.646187434644439 4.104449793384075 7.854623990971657
Hf 5.800080970783797 3.5075872334887865 6.565752898044508
Hf 3.6095444838125754 4.456587407587429 8.248551252432792
Hf 6.500948247821285 11.94888841368243 9.24121712653869
Hf 8.016936092934326 7.212456876030502 8.110996908822926
Hf 5.752996547469926 9.136196542465742 8.569179973531304
Hf 5.343627597538512 11.290297672332889 6.665726166574473
Hf 5.144182724391166 6.441122582514407 7.094679273613141
Hf 3.615147519334319 8.764559046207568 6.495480708543717
Hf 10.830122633546848 9.255406525632601 7.382002657678423
Hf 7.501902425198864 5.937656618316485 5.501331894324348
Hf 8.200533380339433 3.253917140542525 4.933245822562706
Hf 11.858765791309283 7.180265859191581 5.331903316484639
Hf 3.547117891295242 4.791438203049892 5.354839475649047
Hf 10.430076740127664 4.769294750613274 5.733345410647242
Hf 8.069147796089544 10.295912663743499 7.418962744082566
Hf 6.275407934286103 8.941290359676136 5.378969394982767
Hf 4.592881954885649 7.102791878811793 4.08136134849855
Hf 9.341606753039747 7.953159037519929 5.220268499973554
Hf 6.01197645609067 4.583965151371167 3.5859772426464853
Hf 7.170529361841382 7.376778048842479 2.9937790367532826
Hf 9.26165208325899 5.495190430672188 3.3170786702066284
