38
Energy = -323.54961178 eV
Hf 7.162505324654403 13.206354346850206 5.902510078560868
Hf 5.557812871878749 11.458115517977673 7.71210058417242
Hf 4.306304496077257 9.081017195240372 9.07985989130121
Hf 7.3275109144563615 9.366422382612033 9.244605151572532
Hf 3.5169298802217415 6.683146099449024 10.368379994955426
Hf 8.465220160459394 11.097805376798606 7.182568038727175
Hf 6.444589031146881 6.768818837890336 10.618098371604184
Hf 2.4875584102767405 7.200229381712271 7.743939029195761
Hf 9.310242276309095 7.6779361693269745 11.011350062291255
Hf 3.692364815109835 9.656737859337227 6.32973905462652
Hf 5.202138279962381 11.576258092589436 4.890409998872639
Hf 10.306932881832068 9.11207533729883 8.644601242483683
Hf 7.891735755917945 10.798676251642261 4.312115383553236
Hf 6.5291183123617875 8.980952587760324 6.2829677076909975
Hf 5.434088795518489 6.6084915630487915 7.939696396283583
Hf 1.9460509018778975 4.709458041655912 9.32336348481079
Hf 11.081757563953841 6.025121489753129 12.402366348477209
Hf 8.513281504367987 5.063271812283438 11.960176464112706
Hf 4.818663646244846 4.1991273214015274 9.608402588263651
Hf 4.352648045044774 6.872577762713419 5.204501660633441
Hf 5.591842643913567 9.12154391259362 3.529557668920157
Hf 3.5102410061407285 4.530465977697632 6.990835287996616
Hf 8.478092000468687 6.856924005467361 8.086705320326091
Hf 7.782192591018525 4.3162175085894665 9.374966705004077
Hf 9.496374082224081 8.560613221723651 5.829453083085663
Hf 10.604456616366228 4.9467503215108675 9.879125852540978
Hf 7.284413790211201 6.2382872493963415 5.211916278046145
Hf 6.36720796458086 3.797969380905589 6.954595489771849
Hf 12.08444973485952 7.386584639932595 10.22046863446401
Hf 8.231640578776263 8.066037858825888 3.0962054880932595
Hf 5.240367655641154 4.126215336967989 4.336102819042707
Hf 5.985052244217841 6.27708058601414 2.519613442774733
Hf 11.320216025247499 6.646402199000654 7.453884132483341
Hf 9.514285373472237 4.3044795855535245 7.033076494532121
Hf 10.1214970656006 5.783545485985356 4.6833478804375375
Hf 8.173991191655313 3.545861681769178 4.383521079638384
Hf 8.67725176988347 5.371685759359631 2.263147472085331
Hf 6.660610014900419 3.5266316523792063 1.9042375684116388
