34
Energy = -287.6223475 eV
Hf 10.388587273962305 3.0535137660185745 10.185403185164589
Hf 10.26827930228374 5.826774193806557 9.80996764834656
Hf 8.557186024193689 4.470998438411788 11.677612742622525
Hf 10.202649003955981 4.150795344304689 7.487554601375862
Hf 7.885941125204497 3.5735198876881284 9.043546010060913
Hf 10.179426578053102 6.965527927201388 6.950989228845442
Hf 9.39426909582858 9.091056469141375 9.184264664199487
Hf 8.220013700129801 7.404055610430343 11.326331727275134
Hf 9.96294910959556 5.364969895056202 4.556245922284927
Hf 7.535698036659346 6.643874954696899 8.588950823878752
Hf 8.713431391248779 10.412510812705552 11.510635185388859
Hf 5.9047882875559425 5.1983704913153055 10.577338557040193
Hf 7.687901406844364 4.659844540858276 6.183750768974344
Hf 10.80078706583538 8.098907575272978 4.294378560058541
Hf 11.084218649865198 9.663261026339793 6.551172984229493
Hf 4.954814172418141 5.0335308817051345 7.796353716024814
Hf 8.086296244025112 9.299286409877785 6.793860239668113
Hf 5.206938668967404 4.266799864764954 4.764193278513491
Hf 5.604155106239665 7.00572016311356 6.035051380309301
Hf 6.6085177309855405 9.382003366414681 10.099532055455645
Hf 7.42739823108102 11.582699779499134 8.84323572771753
Hf 9.557716646341513 11.870730296586466 6.979656119503016
Hf 4.578344793424324 7.439303448686729 9.470806831946692
Hf 2.9522476503808637 5.239197573539213 9.684573748207836
Hf 9.124686533859077 10.565323367571267 4.430556855988341
Hf 3.036572978766155 5.892313667845128 5.07277064989882
Hf 8.040855732177533 7.556893184641612 4.25113369352023
Hf 7.415288235699026 4.994320610381656 3.2670627543613593
Hf 5.130910524502633 9.677126582016728 7.449600952811537
Hf 6.914420279760373 11.835247085843227 6.038018367079052
Hf 2.822286983297459 7.435832494975993 7.461957773713582
Hf 5.080894283162876 6.855496064260579 3.2268640961218256
Hf 6.080927841345216 9.608540957358493 4.519933785079842
Hf 3.4729513943273806 8.688313227191921 5.014200776067368
