33
Energy = -281.93315641 eV
Hf 4.694060435029175 6.906433502386802 3.7642218296912464
Hf 2.8894965382676285 5.9637163745611605 6.16217247192178
Hf 6.0623415861125585 7.751624662202963 1.396111425033924
Hf 3.977505070697693 3.4751664173616184 7.335671644666594
Hf 5.48033074442121 4.634461171879439 5.25626951887824
Hf 2.49134978613422 5.2258492248495445 8.980708484253997
Hf 7.236593211305944 5.559077916781509 2.9236067460650395
Hf 6.7358902325747625 3.555540914071775 7.976725836855661
Hf 8.34610331975542 3.9797542946629614 5.127269038360395
Hf 6.284271719587398 9.430376926802566 3.7527173244400998
Hf 4.446667587218335 8.514898837806346 6.0647981275364495
Hf 2.7751280694061045 7.865742998712664 8.3450557354178
Hf 5.219225322193293 6.143884280347415 7.989675466360788
Hf 7.355501636889198 7.204940171251079 5.442494551639113
Hf 4.790405536958856 4.0388023552480545 10.016145918654694
Hf 8.534895911609206 8.14293961720693 2.5636440265456724
Hf 9.828980055164381 6.069789616532073 3.977517116064206
Hf 10.992625562689696 4.656783511535861 6.175328105002061
Hf 4.323555545035055 6.837285007718591 10.664873132486699
Hf 8.761731294451936 5.4439400775019955 7.679027645848434
Hf 7.115514783772187 5.665271659241838 10.266360454146726
Hf 8.914194770344086 9.705417403846145 4.884099496258721
Hf 6.793492993479946 10.35752551308251 6.633958772652074
Hf 5.213000526237843 9.144498464612369 8.937480925710307
Hf 10.446045170859271 7.638455214862973 6.487539357544234
Hf 8.202331856849469 8.310377236561584 8.428410126965213
Hf 11.49283262125257 5.945367792586776 8.614346078506369
Hf 7.111361466439835 8.481574899674154 11.111948808901062
Hf 9.766039783607587 7.129870620439085 10.648213298560865
Hf 9.568288909243773 10.720483303960172 7.657572986171919
Hf 7.313220419172621 10.970777154426575 9.420959431866745
Hf 11.393044734651157 8.776408322613907 8.924121565233525
Hf 9.553829964890689 9.928846382492768 10.57783675488325
