33
Energy = -279.93217804 eV
Hf 5.449649602130301 5.986613121684007 3.2531410550672804
Hf 2.5896920967124206 6.9621729984224245 3.355191309280417
Hf 4.629928726961241 8.68648020312663 3.0147434408877296
Hf 8.370463425043726 5.526028144894211 3.8880948267468978
Hf 7.489426471882567 8.214900781575968 3.01644903920019
Hf 11.079437510107592 5.155891073562128 4.677048351970825
Hf 10.302150649108954 7.618204234578702 3.593867717074482
Hf 6.265750225522472 4.5159322551434355 5.900366710053046
Hf 3.7115008683539914 5.8781917072229914 5.627685184449243
Hf 9.24143373493218 4.004064650168206 6.519062188452994
Hf 3.5167932576090273 8.771182149332684 5.620980839504636
Hf 6.34537380132641 7.55374156579054 5.581117263803105
Hf 5.8886421349845275 10.388857031883628 4.9832392525259674
Hf 9.493417858617423 7.08038844760986 6.315649289119894
Hf 8.757136626456525 9.680912480844958 5.306922087049437
Hf 4.584522904760885 4.353162025137923 8.266527445308538
Hf 11.568962531399583 5.404427642068001 7.422918853384521
Hf 9.605263263655731 4.518369518673666 9.41150366361449
Hf 7.557463906421099 8.90735566408893 8.010307463654062
Hf 7.49106230593204 11.74136266631128 6.932411760096763
Hf 7.176271947172163 2.970077720315491 8.471956470863189
Hf 7.283301006313883 5.913345041047296 8.419784252413027
Hf 5.186591576660484 5.851461594676529 10.675423575176413
Hf 5.002068432467129 10.384095686203347 7.840583407650404
Hf 4.609801576312316 7.306132671230594 8.059901085815671
Hf 4.960666148676498 2.819284158294768 10.524411848923522
Hf 8.744538918565027 9.549405646367767 10.726692317724961
Hf 9.74319419753264 10.565343093871705 8.246312517469951
Hf 10.019299076074375 7.476174893187535 9.124275156752564
Hf 7.919694518614244 6.838220127077238 11.129640634735068
Hf 7.304325284185958 4.014735649605073 11.100586440236468
Hf 7.133480037966194 11.392728168583869 9.58650285603151
Hf 5.857515313605011 8.888676807222042 10.429084148123689
