33
Energy = -280.0750631 eV
Hf 8.746185480919683 4.948981898056648 2.480613123099864
Hf 7.451556136624864 4.014250484526704 4.775747566930805
Hf 5.938288971646253 5.483321542247056 2.517493816355446
Hf 9.7932675395965 5.809662545867536 4.959756257603814
Hf 5.757556759931198 3.053226031251142 7.146216597088241
Hf 7.495629652598033 2.310089932625863 9.169465544994015
Hf 4.575275734716707 4.9455546479587245 5.0936331498388325
Hf 7.66296983116026 6.449537308798499 0.4318337284792149
Hf 8.81662616676201 7.8143397833822315 2.706893350292793
Hf 8.105516619041554 5.072196716413623 7.453286217919913
Hf 6.051599106670898 4.501898093329631 9.832870586047848
Hf 7.150841407254329 6.923724639185717 5.084896995452706
Hf 4.5795572432415685 2.24848114556917 9.555005597501257
Hf 3.1871644056739754 3.8989494466749384 7.428994536575878
Hf 6.113876716636892 8.237589733979917 1.8204388227132937
Hf 10.49459435799088 7.0091401115062535 7.74070389893564
Hf 4.445163415504002 7.610339265884113 4.074227048536947
Hf 5.438145350221725 6.399286140781658 7.648642963844742
Hf 3.3113855190366994 5.611444417890688 9.580547251954211
Hf 2.7566736851552913 6.668224301602899 6.772950824823739
Hf 8.57871050358744 6.1665500758628236 10.202715222384583
Hf 6.838906446939454 9.648569452370163 4.136158974682291
Hf 9.426378963684138 8.768140391744293 5.437913415911054
Hf 7.954394643798513 8.226876423286113 8.216922565432641
Hf 10.297351644347188 8.565826654452552 10.146647557712209
Hf 5.607996226822239 7.298682117121623 10.625359814258742
Hf 5.175586038041037 9.045467780020097 6.535163321516339
Hf 3.4997603240203397 8.359240902389494 8.914633732817762
Hf 7.799102118372452 8.791568545598162 11.275243010562551
Hf 7.600056442554901 10.79328040617911 6.93781320550138
Hf 10.323878596458359 9.930929565803103 7.708164184815273
Hf 5.848926627342615 9.990749427825218 9.324845185168043
Hf 8.624367951832884 10.867632201827755 9.653349867365026
