31
Energy = -263.15938067 eV
Hf 4.876747628434273 3.6344761811324418 8.260199179481377
Hf 7.6872186271959935 2.96342572732051 8.830893503288774
Hf 10.642677116504892 3.5454190962519383 9.332267906864768
Hf 8.793654732892524 5.456918456675092 10.037193575839916
Hf 6.005430506543493 4.900675576381061 10.625826925965631
Hf 4.245149673746288 5.202886958389302 6.058820029623594
Hf 7.870893951623017 6.481047206448916 12.454408330504275
Hf 6.843673141231195 3.458873570038671 6.049591273968863
Hf 9.506043862452508 4.132046977302624 6.975973138211652
Hf 4.210281592809812 6.4955493246576665 8.811082540796972
Hf 10.900976679738692 6.411379734530818 8.318650664417072
Hf 6.1948535934025815 5.27202268201856 3.8496384039478855
Hf 6.617566703757771 7.695718192949178 10.291721543520234
Hf 6.786064815481187 5.701464440310603 7.7563803764871615
Hf 9.50657520059827 8.17537099256129 10.532278877409382
Hf 5.10435556429627 9.295966421710672 8.379873203729966
Hf 8.538461287026719 6.195433825573711 5.246203812521003
Hf 8.392040289016853 10.474295182046285 9.248066323396927
Hf 10.916286590774263 8.040359004875667 5.888300775859568
Hf 11.024625414390751 9.357267734039933 8.413076360310328
Hf 8.497312261693356 8.155615902631174 7.598784224361165
Hf 5.946525254575815 8.020310378658706 5.630753106195583
Hf 3.941961290767029 6.747441487087985 3.72451571458143
Hf 3.1348474242669613 8.014237901735699 6.297167568451625
Hf 6.441996037691906 7.94877473573608 2.7648230477895135
Hf 4.3833744448584016 10.613197040563222 6.090908881006753
Hf 6.91412454357789 11.08828297380446 6.958075189527891
Hf 8.798291446337194 8.879243197111926 4.260780781113812
Hf 9.63159565857174 10.684289873030346 6.449341786459672
Hf 6.587469050268863 10.630386284280766 4.124943575465105
Hf 4.0714437690096945 9.414289020424718 3.6566232001057535
