30
Energy = -256.8063131 eV
Hf 10.574067986426932 3.7928385830854925 5.331632753569134
Hf 3.3063099192719703 7.761615517003259 7.126965727171537
Hf 6.248400128068816 7.488858459002694 8.842967649052158
Hf 8.143644424741693 8.450059274442614 3.209776882764191
Hf 9.990879020328935 4.346875250607066 8.129476988266255
Hf 3.805324228545151 9.38884053988082 9.572417262833065
Hf 11.144376767920436 6.306605856225478 6.3499241317226955
Hf 6.322768976936695 7.808834379457442 5.77868182433991
Hf 6.3497469881590165 10.333871874566446 9.892025243355043
Hf 7.177124177762772 4.386930405299194 8.54291829893761
Hf 5.575079929057791 7.920080573136954 11.519595629053645
Hf 8.14791635223624 9.914365505161685 7.761006929340082
Hf 6.703829849131476 5.900816216702044 3.1520071698029652
Hf 5.433583483022028 8.470345339782478 3.0315210487323316
Hf 9.851674928901902 6.172419493105671 3.701346446580506
Hf 6.8961381961393595 10.40923251411246 4.816368945458613
Hf 3.4716494171576833 6.693186000461418 9.683576759994502
Hf 4.096835094272684 6.403697770255934 4.600897191675958
Hf 8.265151699245193 5.511491659652232 6.022308736628816
Hf 7.997804779867289 6.019434964999501 10.856083938269856
Hf 5.377414039679118 10.500745684798598 7.308080833641927
Hf 5.830085146955714 3.9278533711366355 5.1427850542685185
Hf 4.023976970865622 9.502135989232679 5.0677227964415925
Hf 9.350192242079183 7.159524955895635 8.440447285482767
Hf 8.267152084287167 3.6149038754918927 3.7910677244655377
Hf 4.5749837937818185 5.22204354229882 7.471558039413227
Hf 8.394635939052854 8.750286576708552 10.567727948834724
Hf 9.487026760535677 8.520484748471361 5.596147715706035
Hf 8.193713578041534 2.625698547132713 6.458030793322466
Hf 5.405381932964181 5.08338094612843 10.531985943921358
