31
Energy = -265.34523191 eV
Hf 10.432023359170202 8.2600321813975 6.030493527370316
Hf 10.493464504208339 5.76899730340094 4.517300941191144
Hf 10.280918938350696 7.869732242701029 9.07032495214601
Hf 9.335770633683513 3.35789628811029 8.095475957782714
Hf 8.017737574860991 5.583993429156726 2.8095420082428175
Hf 9.68537186261525 7.986701469709544 3.2355023785480883
Hf 8.222377796151433 9.148334618384347 7.827931891477209
Hf 8.623275332134385 3.8883551660137035 5.3804091494877815
Hf 9.597623407387728 5.360302327072206 10.37049644118345
Hf 8.225090002030878 9.891827125392743 4.828668055966027
Hf 7.079469404137771 8.37505475406737 2.6756026003897815
Hf 10.58605114607838 5.701945481436372 7.380578749028705
Hf 7.749451251247855 6.927496042443128 5.299939065393029
Hf 7.957452696718842 8.040186061997275 10.59953740378717
Hf 7.480460329238803 3.3321167911264356 10.01736848133414
Hf 6.56463431036953 11.241293938624974 6.736169542320619
Hf 7.579385306114613 5.900557615218344 8.39775707752644
Hf 6.529153436993661 3.175796785922922 7.275910540064287
Hf 5.242751770992745 9.627496352554298 4.525414379991939
Hf 5.65126479954968 10.30728262213214 9.291156748732218
Hf 6.808692119431701 5.598694963846085 11.319168406759463
Hf 5.091899808873416 6.746050075119063 3.72746655631569
Hf 4.966230260184953 4.6205191830212025 9.347005620944682
Hf 5.507340331935779 8.356674434137815 7.230989169461502
Hf 6.043496866169412 4.164820522925206 4.440556366004916
Hf 4.917533591969311 5.577878141782955 6.466670088919158
Hf 5.058937512026843 7.515082862330119 10.15283579021757
Hf 3.8803418235959235 10.780491772852718 6.812765040098295
Hf 2.9742263321585303 6.472246874523167 8.266246724178698
Hf 3.011880673827178 8.153213821594553 5.905770125208477
Hf 3.0630880692378764 9.13423123814771 8.796606143304318
