38
Energy = -326.58461257 eV
Hf 2.900032029350951 9.158313070444734 8.236616210455324
Hf 6.491909076394411 6.943975102711746 12.01219805803423
Hf 4.520622790297714 7.869438820054784 10.166003315777678
Hf 5.8271023307494865 9.920568995138842 8.377207928713872
Hf 8.268021666746804 11.487617589222548 9.132742002018341
Hf 7.7850025156143685 9.06567501954671 10.607700274296866
Hf 10.619296161709922 9.799809914428804 9.654018951945362
Hf 3.972754618111063 10.37228035177219 5.881542204171515
Hf 7.49863261362991 11.323411358275774 6.306585433729764
Hf 7.314135311193726 4.44114106423892 12.390345880504064
Hf 10.212313899833209 11.434821258996719 7.105033431969762
Hf 9.09233436103038 6.461375209052437 10.934134107823027
Hf 10.709820964263024 6.957506508130803 8.625783936005309
Hf 3.078501568320384 6.217417091142076 8.18394650208462
Hf 4.937615081972407 4.989274703087133 10.583875034055447
Hf 2.157869833210169 7.895847620343354 5.909571593071236
Hf 4.971195297778474 7.750052095011618 6.532967516711627
Hf 6.8980912254605125 6.80264359767348 8.92696569691847
Hf 8.703969961645429 9.004129924771457 7.69768462557372
Hf 7.7298922016948755 7.35855680458722 5.692827536513605
Hf 11.67402069605048 9.089148732651864 7.089877309649585
Hf 5.569495202190503 4.499959311688846 7.675308845111814
Hf 8.782473472038934 5.0386420773229155 7.3754847270309325
Hf 3.877056460635872 8.367078933819235 3.8324264497525533
Hf 6.3896516898644045 9.633673949139784 4.282820030105973
Hf 9.604349469892252 9.582850926444237 4.929532823567909
Hf 10.612735825287247 6.783478396964711 5.707772194043593
Hf 3.769882906809837 5.494482291138916 5.132111316362976
Hf 6.742412127958814 4.71448043308167 4.916412618566808
Hf 7.51563909856467 3.9859483763966908 9.70614843102551
Hf 4.878937575829776 2.57565998379654 5.463230710861866
Hf 6.128974613921744 6.827509870446349 3.0519571313597385
Hf 9.008409732381894 6.573735148199629 3.302619211155549
Hf 9.466428381133936 3.8807889365491195 4.544536627011154
Hf 7.588926020265175 2.518493900948955 6.5805963559330305
Hf 7.712956365299926 4.376768373697175 2.1625798913712244
Hf 4.9668336825215835 3.952461113935023 2.890835446077732
Hf 7.140619578989604 2.139235741685624 3.734887870690878
