34
Energy = -287.99871301 eV
Hf 9.941904773973834 11.166098403815319 7.1971067942206215
Hf 8.342462329870733 9.933578638520228 9.316005935619518
Hf 12.287817461498802 9.609489820496785 6.3125212436836815
Hf 8.16551321446384 11.532001982196485 4.932232381824743
Hf 6.280603387869221 8.415288729787017 10.968330638494123
Hf 10.75890399099077 5.137221696618877 7.843746270088564
Hf 5.355927208455808 9.83108166858762 8.460304327218546
Hf 8.544153392138275 6.906036301664867 9.369900602181724
Hf 7.660931560826765 9.054566998256098 6.554389474722234
Hf 10.06457789607031 9.420019168169421 4.667073902705598
Hf 7.1649685075025555 11.835716072718727 7.549353970689657
Hf 6.791763669713807 5.590328352445109 11.206324265191872
Hf 4.5402082869476565 6.928465964655951 12.654058524305702
Hf 10.560869536767441 8.558787100293658 8.122968913163717
Hf 5.795797430265993 6.906371765661094 8.360890121303019
Hf 11.120304657252957 6.9440850902951965 5.666701684397736
Hf 3.5560568272985837 8.047487140881078 10.224249097305199
Hf 9.152847474413079 4.077186239647444 9.810126133616524
Hf 8.800833848528876 2.9931890256168803 7.0720310560611415
Hf 5.447286190880192 10.866018699472916 5.3654785718979925
Hf 10.181361912191454 4.318416056726155 5.079705959242946
Hf 6.542975412094987 4.125424828984059 8.712621968658068
Hf 2.951155809123643 6.319196013043935 7.954526867347321
Hf 8.181422472551203 5.911209449156 6.529667111026338
Hf 4.058163886011328 5.2576817018688145 10.366886809229358
Hf 4.4841480033168155 8.247794061617176 6.188024907102079
Hf 7.209942534483617 9.410580438256641 3.4039960256383743
Hf 5.9549950146984285 2.644155005551742 6.338123407464111
Hf 4.353895414703986 8.942601989369026 3.3979464227807803
Hf 9.000705799141599 6.737261778942418 3.7333754475971266
Hf 3.8160407551522244 3.6382209484369064 7.855073628479946
Hf 6.246924435183679 6.875563443184503 4.114721442069639
Hf 4.806099856081543 5.2030095846716495 5.783560839177974
Hf 7.406513538225444 4.138258854630223 4.377774124301696
