31
Energy = -265.93993175 eV
Hf 5.0043046580192865 3.5233437306278197 8.029719931339676
Hf 7.372592353126362 2.197579454828055 7.131740379841624
Hf 2.8816184687696524 5.384371642716826 8.115564880793583
Hf 7.664433227590938 4.230691940260004 9.190673152580587
Hf 5.473043538004683 2.9189070827852044 5.0841170338578
Hf 5.380626885595059 6.820320986649726 8.062224702417685
Hf 3.0966041579741193 7.729782904078716 9.529290456327598
Hf 4.038720109151023 5.339089186671215 5.453848660402475
Hf 5.103331518371932 5.579636969921947 10.404050343412223
Hf 7.060181085004973 4.913735916496124 6.266134224742068
Hf 9.824326714235436 3.779675980889396 6.913933802756044
Hf 8.22981525886267 2.9771023364877025 4.5324167798683535
Hf 10.172687426544634 5.681004708053515 9.080266121426268
Hf 3.0102824816724225 7.881120508887238 6.522962339112772
Hf 7.942416992138443 7.159646237380352 9.90030494139114
Hf 6.5712058941887435 5.211505924691213 3.480791619247014
Hf 8.74159957065389 6.966990063766042 6.840185776009214
Hf 11.487402978819953 6.196042691622359 6.678543773618298
Hf 5.5932708926622645 8.597214850925205 10.414035254181254
Hf 4.366390581153932 10.027196017403503 8.20863755593044
Hf 7.505467919077521 9.873943217033919 8.640938144080485
Hf 9.669097064698684 5.4750062789075775 4.386036534641957
Hf 6.174885815392697 8.61493304934491 6.189346196268412
Hf 4.821312273446076 7.758631780183801 3.8387534453567893
Hf 10.338055622291593 8.602273502465334 8.199295165069595
Hf 4.04074731614953 10.257556227529983 5.258724261716517
Hf 10.60636201185617 8.2130229973387 5.0358236564301
Hf 8.031164620140233 7.838822994080329 3.753465050745072
Hf 6.287699869845261 11.45691555412232 6.527484419295855
Hf 8.777694129778236 10.169052894225306 5.9502255208133334
Hf 6.5159977551328865 10.233037458295938 3.921266540969849
