38
Energy = -328.74214132 eV
Hf 11.23710197299381 8.006613808251632 9.142290751456448
Hf 10.215001627295964 9.960635579845569 7.142922258243364
Hf 11.735385068400312 7.601345954835078 6.377722063314651
Hf 11.025307300476944 5.230924646449979 8.249315754658689
Hf 8.959825898322284 9.64052098228302 9.793736846133404
Hf 9.31181004209113 8.305098430925959 4.602507139997172
Hf 7.9977152140320475 11.658426793570902 7.8163365441608255
Hf 9.053249799881016 6.132422519566524 10.180898527460938
Hf 7.281033811851382 10.43575330991246 5.104449412231137
Hf 9.13913140877653 7.273579931743739 7.441809331068649
Hf 10.353531372635942 5.497796533102034 5.081020313497695
Hf 6.256789103111189 10.735745560062709 9.853964736246732
Hf 9.014937453981897 2.961737768964842 9.340758602569888
Hf 6.679387440992655 8.323491768876462 3.0050811844168654
Hf 10.255612331134824 3.062253883618017 6.535282196637585
Hf 5.22587020573886 11.211986219359295 6.981497088135649
Hf 7.969708721762984 4.57290091684474 7.6050964358295525
Hf 7.000921668790379 9.043481581990909 7.7103796944724845
Hf 6.537136413718681 7.714803733611137 10.389203435508827
Hf 7.050167575141784 6.364548064362469 5.221899001164096
Hf 4.963262987055736 8.306578911432302 5.707527281587596
Hf 8.539197961820252 6.025572647069902 2.850056381906018
Hf 6.370345557547693 4.67052516058962 10.372783045296847
Hf 3.913423926883547 6.327280333801712 10.171013352793306
Hf 4.1173973920360725 9.046801887587538 9.106038094374574
Hf 5.600941869354951 6.194190915995401 7.913614100387541
Hf 4.055070057624781 7.338446973139858 3.0322055860364987
Hf 4.171640257880428 10.188517209700155 4.1135064488577315
Hf 7.890836635604774 1.7630269699292493 6.810313631962793
Hf 2.7003522968095806 9.847660433126883 6.783741213617975
Hf 5.7689003991816135 5.0405051444386 3.191512066616727
Hf 6.075091240001265 2.5052675882965487 8.63457078113973
Hf 2.6267519058714637 7.00207157137495 7.605612620643026
Hf 8.201788912615294 3.587999076877524 4.4724329064281685
Hf 2.1938360119960656 8.02374496295654 4.835313962173064
Hf 3.7764874180219414 4.168110865674633 8.143352511106087
Hf 3.6055008112152347 5.445304017826343 5.281654658883888
Hf 5.575701615838251 3.360738008149421 5.839257020109289
