33
Energy = -283.73269147 eV
Hf 2.5067024686156976 6.155710231587733 6.6250406347048925
Hf 3.98473604644554 3.8859140653282926 5.541289079956427
Hf 3.6522949945570025 5.971127333629512 3.618201854338264
Hf 3.654475438392618 4.045044180631969 8.252798382120513
Hf 2.471472834072153 8.443038184043463 4.760900699610421
Hf 3.8519554176333197 6.775315791271086 9.30595165022492
Hf 4.292959009700964 8.913902912996816 2.7924082772035312
Hf 3.254403969312052 8.822407126640371 7.31549986276367
Hf 5.874849841790985 4.5304536247225835 9.912537221222161
Hf 6.1018311171858235 6.807693028983649 2.3769624580529567
Hf 5.576772516369918 5.871223028726357 7.236966635573194
Hf 6.388962454708871 4.694777832736056 4.3486984284606
Hf 6.256282347151766 3.137008340332287 7.193759489711452
Hf 5.331589255780059 7.712506208987974 5.1267592998113685
Hf 6.505878488882986 7.514221207734519 10.59120291114223
Hf 4.701894410356695 10.412680028117528 5.319480547757982
Hf 8.69334604434848 3.4579306042511 8.98309006964306
Hf 8.064016512452083 5.197024591861257 11.450141201774649
Hf 5.893421624340546 8.942962851574071 8.00811807532731
Hf 8.814755964012654 4.556526403159297 5.952560518703441
Hf 7.071434242972073 9.407374811041086 3.4369433978350825
Hf 8.130398468862053 7.795327277391511 6.271159502103989
Hf 7.744284346165259 10.623984984732791 6.0886150383106195
Hf 8.430893742861162 6.2575255316340135 8.769810344087226
Hf 8.649455396706141 6.601012098832465 3.666476425861523
Hf 9.727168846655587 9.269893421662399 4.3748310014188805
Hf 8.543984550002131 9.402317036322337 9.062758308905066
Hf 9.367498982315455 7.658208532699603 11.189571512700901
Hf 10.64507770110037 5.2305566777486305 10.398258373618617
Hf 10.891649376605924 4.8822699279463775 7.715801358068873
Hf 10.377846055035622 9.701476197749837 6.948384831060225
Hf 10.851099331455607 6.976612259358751 5.778348215995642
Hf 11.07447433366788 7.635655027961372 8.794672489296694
