36
Energy = -309.40427181 eV
Hf 4.272938585719705 8.873789143870235 11.679437821084933
Hf 6.457177853754574 9.97837390392591 12.828011250460728
Hf 4.371053357332155 6.385448622698755 10.131770424934727
Hf 3.86262701193183 9.059497779776626 8.786704695064047
Hf 6.677150098498475 7.34148102880474 11.688014778555077
Hf 5.961618752144682 10.593556591787788 10.0799522804902
Hf 3.9940832324499853 6.5054050909773675 7.254759216972396
Hf 4.779574110083877 3.7538865721271772 8.061844575710557
Hf 3.4486021550284347 9.252143469554236 5.99993662571303
Hf 6.900849477885477 5.012814412293362 9.758313017208634
Hf 5.6906645429103655 10.623465662815867 6.915345824631467
Hf 6.56918971681224 7.876679437446463 8.75090813137649
Hf 8.508197754572782 9.500347177091946 10.890403705929716
Hf 6.036903675746963 2.283877607230337 5.893271578155711
Hf 4.371697350555124 4.540059198185298 5.071955521048062
Hf 9.558213980848409 4.721582003916636 7.950017645233902
Hf 3.533658076400595 7.2496910354484925 4.311424171262469
Hf 6.867524684773259 5.109205610737908 6.562882659181462
Hf 7.489945100081605 2.69698061160871 8.191834174032136
Hf 8.396314872884783 10.470361118788032 8.220297603155473
Hf 9.285937620310191 6.9450900079264235 10.017135221246388
Hf 9.365299915032184 7.750894460842884 6.922908756973163
Hf 10.983227813071666 9.21677080789176 8.976063191982181
Hf 6.160600748553381 7.881908004387978 5.688568212435575
Hf 5.293523694698901 9.687893716830251 3.8624711726563055
Hf 6.8582389930081415 3.7910849623948057 3.7396525216623986
Hf 8.824745289341312 3.1406811893652806 5.652907503538854
Hf 8.095105446578073 10.290565795071249 5.146318762058429
Hf 8.673109613127986 6.015728852385969 4.358953494476173
Hf 11.66376331266872 6.476436700537004 8.465301121335218
Hf 10.614456227818076 10.49609189710516 6.426585362093425
Hf 11.203974874602334 5.800305803703392 5.703691275520392
Hf 5.887058084644832 6.402536264194427 3.1384608398753184
Hf 7.8165378714008975 8.430656900921718 3.065881254679737
Hf 10.455090671129303 8.47708050972556 4.31136722403967
Hf 12.309331893675818 8.321330904917625 6.522036933866361
