39
Energy = -336.83710169 eV
Hf 9.21593971544577 2.5985914160929604 6.127676135971015
Hf 11.117189321915403 5.379723662410514 7.872859315069535
Hf 10.2670129054962 6.006717603884317 4.420507558926884
Hf 8.285214338585154 4.010077171528804 3.6518705172668158
Hf 11.452698572956985 7.876472366078676 9.269901549850596
Hf 10.424449837025668 5.644332267873411 10.909196547539278
Hf 9.302667237558449 3.5296127835924427 8.97518267440469
Hf 9.662300443862286 8.73392814514547 3.609123787121277
Hf 10.451721666885309 8.036884203302423 6.540107990994611
Hf 7.746908694411878 6.604742847853698 2.5323692929552526
Hf 6.442657212723668 2.7237686656063165 5.126896777564258
Hf 8.438727611577164 5.10330970165051 6.579116802924403
Hf 8.75314953876951 6.779999185313822 9.112422002554434
Hf 9.652695627055174 8.501868826246216 11.262703670185314
Hf 7.880986977817494 7.5688725141474675 5.268089849815764
Hf 9.210957940851845 9.854751295207583 8.664944634766178
Hf 5.764708134982112 5.716429421012692 5.120668737186329
Hf 6.791539180995198 9.437477341853917 3.2260244194124996
Hf 8.343742650079564 10.439598970466676 5.7730656598489745
Hf 5.472040598391127 4.4242610480609 2.8309285692442274
Hf 4.8984400198732985 7.365738158198739 2.7551412896687175
Hf 5.735744133242814 11.330114413778478 5.077365756269324
Hf 7.687869645563934 6.6906400870493465 11.912368593894337
Hf 6.63129747806952 2.705493656583769 7.996496928967587
Hf 6.844489197751987 8.44077721160124 7.780944448954323
Hf 6.0866842813473205 5.637287081466515 8.054951088395045
Hf 4.866502767852038 8.528589836649145 5.861429426523423
Hf 6.164110958462065 11.104885419329891 7.947213611601385
Hf 7.03216701288011 4.278107172271429 10.549220957332912
Hf 4.096761965607341 3.793248754720937 6.57945766403803
Hf 6.8599763193186565 9.209584760382018 10.528979170582078
Hf 2.92739581217976 6.637876330851596 4.644146628987021
Hf 3.3442561928664087 9.689053101245632 3.9592615580898123
Hf 3.5151562849256166 11.003390863816296 6.644098085059058
Hf 5.1713858849327226 6.716480324452726 10.576988388154453
Hf 4.335910663040561 4.065307176621905 9.44136511578901
Hf 3.2899910952822395 6.354220211591478 7.641484914811843
Hf 4.099744663122426 9.034835954311342 8.825890027557504
Hf 2.0604011366763983 8.68461285529675 6.484563947752425
