30
Energy = -255.39412848 eV
Hf 7.5329961836762305 7.89687705234948 3.8703250221301437
Hf 6.8783305969579 5.61228808606392 5.775593903620356
Hf 7.434166661828657 10.502148568621347 5.285427968912499
Hf 10.010888819739197 9.130233802433471 4.414339040703415
Hf 8.789636037245986 13.072119861997868 6.5111995295942116
Hf 9.681224256842576 6.204709404690636 4.7081652673648735
Hf 8.764518478859829 3.409876431058548 6.866902103134756
Hf 8.536689636017977 8.000733504607943 6.606927300489135
Hf 5.4196925070659105 8.475798815164406 5.7896033665724485
Hf 9.51412071605826 12.196491974902658 9.272878571386288
Hf 6.138577380606249 3.949140139273857 8.049872575445088
Hf 11.099811837584761 5.223505479359628 6.934205705599462
Hf 8.4625852160119 5.746866756663712 8.53870357179872
Hf 4.918032929858309 11.186457729276064 6.8028226993841265
Hf 6.894916138930751 12.591226694758284 8.534528098241529
Hf 8.046171731769826 3.0255585923742214 9.769826798158253
Hf 9.80957314410648 10.564413145028842 7.016540403956299
Hf 7.447435327575336 10.767754663606144 10.880983833738098
Hf 10.613096948885854 3.8307160142596133 9.193966571223942
Hf 3.8234685208127677 9.03846332887399 8.259155327282967
Hf 5.443972902870579 6.708263194162676 8.257808682454868
Hf 4.7970003254567635 11.214376954526275 9.710145745271419
Hf 11.422701301998542 7.983235873587912 6.7391451311700745
Hf 6.826581388847794 9.567368735229735 8.352989586523973
Hf 8.02153220438116 7.752788916187062 10.807552406402783
Hf 6.379768750738991 5.295238264489781 10.6142322269556
Hf 11.241179345682566 6.556205360408738 9.491532846824873
Hf 5.295724392909691 8.543474638908478 10.67147083837695
Hf 9.866342664870873 9.135812529727964 9.303420740562313
Hf 9.22367835222251 5.152270187820983 11.304148837134703
