38
Energy = -328.25258085 eV
Hf 1.6309797167885665 8.345553124418398 6.851270450123713
Hf 2.955861831150378 10.120227753559343 8.645060805008626
Hf 3.519358500340344 10.240800790592392 5.741599535455461
Hf 2.462925470192444 7.356528884938266 9.494353963178025
Hf 2.3605759389703236 5.5583239723840965 6.949071280428852
Hf 3.2310940492234734 7.391343800566774 4.7312574718494975
Hf 5.230017098485219 8.787551768936165 10.073348282279122
Hf 5.573955862226725 10.750428483146433 7.767506104569883
Hf 4.500703248641576 8.131720606342652 7.334487783263756
Hf 6.329176041028283 8.95234934402391 5.266225115684668
Hf 4.484445890367185 6.146969181800579 11.173660387828077
Hf 2.850417166863727 4.480867691041819 9.573979821531461
Hf 3.9751427009397133 4.507466506644002 4.694566132101296
Hf 5.517275158737417 6.9425007619267545 3.048750170396428
Hf 8.445427037385656 10.778609684272716 6.043888784577893
Hf 4.222495769298293 3.077657567709139 7.518176116329776
Hf 7.568818623438587 8.863552999427755 8.215339470272486
Hf 5.236776271655023 5.622875995820841 8.34676227777239
Hf 8.552232681695916 9.559377143960893 3.3702464773259213
Hf 6.379188430791641 5.91845251210584 5.604203187494018
Hf 10.95902068204531 10.348454532385043 4.814962378662578
Hf 10.65944739534121 9.504625493077555 7.762887342585816
Hf 9.416032559375116 8.04066298243078 5.611119147163663
Hf 7.30420412231524 6.172724985515203 10.184986101749084
Hf 8.377259903668628 6.46836228173596 3.3513778779707852
Hf 9.729923001193395 7.715610769481835 9.903368338519702
Hf 5.492526926656252 3.6522214585181643 10.296561740736987
Hf 6.4493643242097995 4.274742092495086 3.2441090919503055
Hf 8.784214158342815 6.117421192547704 7.594467923382152
Hf 11.01052062148214 7.930811991546351 3.2626826783484444
Hf 6.280799139410744 2.8881259155409222 5.633378343111695
Hf 7.5441420211077235 3.615360827998759 8.16262034298169
Hf 12.378576059527601 8.176363408839567 5.755887675224873
Hf 9.925107490058936 4.882710349732454 9.867157980476621
Hf 8.8010631675366 4.1173888058151515 5.114275390500709
Hf 11.67730359593926 6.531477693165145 8.064232938669265
Hf 11.315119489000546 5.620971213238292 5.218818934411533
Hf 10.560045102020167 3.8188961463255655 7.3710293060390155
