37
Energy = -319.10896007 eV
Hf 7.062625631771311 2.5882973887037535 8.909041131152087
Hf 6.667461213391984 2.3604823619127653 4.252982730039061
Hf 5.206043736288298 2.6860476818869548 6.799922872580326
Hf 4.024546775242137 3.2029630445499344 4.259312802179498
Hf 8.349690069012567 2.9501887209547792 6.448119959420227
Hf 7.14354436341209 4.4676994597041055 10.839995937599264
Hf 4.655108993629118 4.301285667436788 9.265842025213708
Hf 9.502361487272001 4.243304223383436 8.941693242543936
Hf 10.596242482188138 4.653252202021494 6.227849186190598
Hf 3.3070361064754072 4.984467867023969 6.4398629641045
Hf 8.875963118951217 4.262442810845638 3.8568624791898056
Hf 6.026453058363727 4.5368206261914334 2.4153975103347816
Hf 7.0149393662849 5.506528631930642 8.134273162390912
Hf 5.984137282440717 5.13236760906344 5.168390960581282
Hf 3.521664054287685 5.7470568946135465 3.512811512478363
Hf 5.814742463448641 6.942830854890038 10.407058195659516
Hf 8.791595341046989 6.795642819206946 10.330194777340632
Hf 8.406200099432931 6.598896223955294 5.749575030525485
Hf 7.51978277565078 8.941311108310591 11.629721102441136
Hf 8.186070276933775 6.608664474940637 2.676334889673159
Hf 10.549591683734935 7.00789231384986 4.548494883163625
Hf 10.384928592392882 7.022233397482821 7.899292446081355
Hf 3.9554565945680342 7.421154883943394 8.321058844335932
Hf 5.554053407434503 7.5729542816502855 3.012725307744485
Hf 3.3352510056813323 7.816023470242966 5.450468202166276
Hf 6.0494411481397945 8.127586232266486 6.212299148531446
Hf 9.904749006850617 9.542752221191968 9.867756472961634
Hf 7.414344883740503 8.955289156957258 8.669621634428736
Hf 9.603108730953407 9.382015656651216 6.485335790470487
Hf 7.853277847875774 9.11735501204639 3.892188494203774
Hf 5.008664318569644 9.79004863274872 10.115542011171192
Hf 7.5751146289789455 11.369944472840624 10.526717597351826
Hf 4.127378539482838 10.070412237037738 7.212874687174153
Hf 4.984355262500829 10.064559066693766 4.412678437046644
Hf 8.88499160506126 11.591490801821099 8.136272419677628
Hf 7.29407471545487 11.006037309645672 5.911089990846993
Hf 6.048948289765117 11.860128613857327 8.290521736683246
