35
Energy = -298.90679068 eV
Hf 11.727804431593796 6.871972747099495 6.768215490212904
Hf 10.326669287679785 4.426472469864887 6.914286253486992
Hf 10.646658498432908 6.25891037011263 9.30758259282396
Hf 9.394864209212887 3.6273531525148597 9.480541263250213
Hf 10.669074374095398 5.969363283498613 4.219438520443276
Hf 10.905348366531271 8.79638439989702 5.1304432726053095
Hf 8.417238418584002 3.981309468217813 4.749186175366859
Hf 8.799676183792103 8.176173772830754 10.87974370436546
Hf 9.873318836525113 9.097230076215721 8.026396347049609
Hf 8.929455096714698 5.38351191877664 11.492496752006367
Hf 8.773731154796032 6.920696868003314 6.004183112911145
Hf 7.45410733934341 3.3624032054104607 7.455348012785893
Hf 8.001446611795904 11.702416378309387 7.525167648918301
Hf 7.681458963333904 6.106949544979332 8.918770938307759
Hf 9.045898340654682 8.203669024867876 3.165474426876089
Hf 7.1895445612854205 6.06731108333166 3.380466372215268
Hf 6.62620792493884 3.914276895716574 10.370416097615843
Hf 5.549009325973008 4.252264289401022 5.369587077003147
Hf 6.490347029053467 6.504181806593829 11.76335070872178
Hf 6.028336056241004 3.752852950144924 2.695448842611633
Hf 4.844810594014732 4.236907711820542 8.098922497672763
Hf 8.084087878288472 10.765320808525486 10.105329005056582
Hf 7.001379414195813 9.048641546662584 8.06490080628537
Hf 8.341281434751519 9.935161905729757 5.3743755066496695
Hf 5.827596784864532 9.014532925253722 10.757883793053496
Hf 5.752014289671159 6.9788798544709 6.416629824772837
Hf 4.6186438828469365 6.484479713592985 9.592447623563558
Hf 6.154880639934373 8.702409111228537 3.8588234034774125
Hf 4.388769348451939 6.3781731607802366 3.8713364810572046
Hf 3.167241905882966 6.096732647902329 6.681849066475454
Hf 5.4521403890948665 11.383382093205464 8.91680989675386
Hf 5.477549164915135 10.717371692976181 6.098694253208069
Hf 3.935294471197424 8.975310941118755 8.292403246574153
Hf 3.5481839357830407 8.719775906989327 5.382489645526844
Hf 2.9421047716479998 11.189512078427667 7.062570245028402
