49
Energy = -426.84734905 eV
Hf 5.142265997408166 2.9501165629429527 10.408178384252148
Hf 8.42416526616408 2.351026109226336 9.880401318104264
Hf 3.9218642554447944 2.941108162540474 7.679119027333296
Hf 6.409151209989837 1.852408537200287 7.882294376396813
Hf 3.206477047438514 5.2549595975961205 9.243492403775711
Hf 7.7617260852599 5.187891039310954 11.52453802111795
Hf 5.111259563683896 5.827266773741373 11.35999472338626
Hf 10.442232332328823 4.071347639870974 11.339645306120358
Hf 6.129354714653362 4.636828976927558 8.663309120212725
Hf 11.140403449240873 2.7762130621008394 8.857988706481917
Hf 5.7846311512165585 3.5337945213780335 5.349992633356793
Hf 9.045520099110957 2.5642402234367334 6.939872169750816
Hf 9.363593228067437 5.006390058023291 8.905510934147777
Hf 4.9745424200204225 7.013699176810793 7.25246662387538
Hf 4.2108748690530655 8.078585931681523 9.94294415375083
Hf 2.9918505800216857 5.201465204136728 6.180167162579417
Hf 9.889466624232465 7.059946863944959 10.955807022016645
Hf 7.328345788341351 7.2016334811971285 9.296643538537003
Hf 6.576132507765401 4.590723838384607 2.3984328086404285
Hf 12.103659045405896 5.4282935401237085 9.340376306731072
Hf 2.2661577046938866 7.733073675916959 7.7162556316216495
Hf 3.9598139997450015 4.929375621036076 3.384021014302705
Hf 7.874850674567264 5.210449442658612 6.594865184871987
Hf 8.786726097906866 4.409848914734067 4.141592040045427
Hf 11.088073181611485 4.7248298547921435 6.413050711457432
Hf 6.900657021789499 8.261409088648314 11.637678904884726
Hf 3.4496202864473426 7.666205359975554 4.490569817616181
Hf 6.210565214217001 6.398422462545687 4.57846326463966
Hf 1.7278868503305216 9.790184714355723 5.776645727287202
Hf 5.20109020233618 7.110521598518248 2.0307316534547137
Hf 10.609899962332191 7.6144446143023785 8.112580456176328
Hf 2.9992363226592014 10.617900399826432 8.42023004190748
Hf 7.6675337822736385 8.599742725185651 6.6732012093283775
Hf 8.936800923841853 9.60723328578108 9.34255207163556
Hf 6.140038531225885 10.067485506561743 8.972045114960238
Hf 11.199647634436301 5.941062136374324 3.4391632959638856
Hf 9.57624296491718 7.110291832167647 5.316273195713362
Hf 8.35370378699853 7.265019517561722 2.645878756651923
Hf 4.672318748126201 9.935104296460535 6.248746073370409
Hf 12.328134179100376 7.4933270063651705 5.708308545122106
Hf 3.4353420798953276 10.527031641674617 3.6439497948351183
Hf 6.069038137605071 9.303262263300685 3.6912881897445096
Hf 2.941375185133469 12.268727597855294 5.933111748231576
Hf 10.496794801567354 9.839463816839565 6.235532551973094
Hf 5.192941486104681 12.506838599738485 7.537801713878208
Hf 8.657126999687494 10.145237009002528 4.084401009964443
Hf 7.565956575754951 11.307756257692647 6.611649397734105
Hf 11.00584458142189 8.768827140251469 3.491375945667051
Hf 5.575544214575313 12.207102110172405 4.632936131478226
