43
Energy = -372.52067144 eV
Hf 8.378411599674962 3.8479056528628064 11.966976235369629
Hf 10.525269969139575 5.322541697819326 10.918207404321201
Hf 10.124673149807402 2.6843563483947226 10.005182945727508
Hf 8.040577763232564 6.759085247639738 11.359562615392578
Hf 5.786641458134713 5.007998772329918 11.164622689149558
Hf 10.966621869975427 4.788020606137107 8.021093542045675
Hf 7.228741432574242 2.055619288056424 9.695322972359389
Hf 8.167696574366872 4.607762734140307 9.205555425444343
Hf 9.78851860409763 7.504851529541414 9.076246124981482
Hf 4.964030558223103 8.296813556578917 10.790059733561469
Hf 9.25641409952317 2.5072759724450964 7.334183341318102
Hf 3.402807577485767 6.463010421661034 9.450442312509972
Hf 8.402357196837231 5.074080997849022 6.357263150136922
Hf 4.837499645871695 3.8092295045743185 8.866465201640793
Hf 10.875436757078557 7.339067389390646 6.5587659001420615
Hf 6.226160627775461 6.613365586846085 8.860784688250925
Hf 10.691063775005297 5.452663850361254 4.559310719869895
Hf 6.575753709185424 2.7885571400412767 6.886608306417139
Hf 7.508984335007062 9.253859756059784 9.409903035694692
Hf 5.220369727682552 5.265068068966059 6.382394521923506
Hf 7.798368231591577 8.02091387447595 6.634049091413318
Hf 9.623536507524282 9.960645192780156 6.806284285970673
Hf 5.180913004776453 10.980125582795464 9.81587507891658
Hf 2.6087326467306426 9.612975552331827 9.418900438183083
Hf 4.748129273846878 8.851145354721535 7.81488706580496
Hf 8.658520914503002 3.7412378010702683 3.554434904300431
Hf 9.806374946863942 6.12543626250964 2.03319901578404
Hf 7.720530871639335 6.402440538674642 3.95944957849378
Hf 3.326385057865009 5.555025228493997 4.186712559347898
Hf 9.965596261727946 8.380933149980633 4.075001690875364
Hf 5.2646942747313545 7.824657811947859 4.915391006409588
Hf 5.727613380330661 4.200331767531317 3.560635938950929
Hf 2.1740993736181373 9.681562593372698 6.414051222785834
Hf 2.6957247182259483 6.869389508480635 6.5144403622043425
Hf 6.726582459385936 10.963428864154766 7.125177417577511
Hf 7.2772428929249715 5.193710324727449 1.4010370749449563
Hf 3.7646889175618963 11.607317433333268 7.610366142914636
Hf 7.493141252825223 10.072683779846496 4.317877564770132
Hf 7.689097690353319 8.214009258398205 1.80992402233802
Hf 2.821202155639538 8.433235427665354 3.8105247329208
Hf 4.950691937526376 6.70197535107226 2.06784797171201
Hf 4.524739151286985 10.744358317377491 4.979731496278943
Hf 5.223123482883137 9.522289806391738 2.5480865018324406
