40
Energy = -345.48026435 eV
Hf 4.573482367016171 4.448916311374954 9.181981542393647
Hf 6.634917094857403 7.038315261225114 11.057940828812564
Hf 8.134879513900557 4.56085951208305 10.402106980248828
Hf 3.407188550058007 2.6527390631946286 7.387027218948077
Hf 4.128642907773918 7.561819173210785 8.882414241031947
Hf 9.435149112894168 6.759363498396583 12.050764759916829
Hf 6.524067715228932 3.049944605200091 7.1439932763385
Hf 4.5215448972415215 2.3364467063481347 4.72899807183663
Hf 2.1799253287625477 5.387006395570944 7.611883910489646
Hf 6.593075086966597 5.907390979813854 8.272806531453458
Hf 2.1287516177098467 3.766077123179925 5.143110209299613
Hf 6.582371620175041 9.289884475472457 9.148071497719688
Hf 9.738288868141906 4.335416093860349 7.923355756934241
Hf 1.8500215889159026 8.300198594315606 7.240657483326036
Hf 8.590264565769873 9.233546965423125 11.123185547689543
Hf 10.988924896280457 5.261570791530037 10.31037188260828
Hf 11.298438513885001 8.267018672381438 10.201666404251004
Hf 4.725964071073797 4.822798401332753 6.08313223794257
Hf 8.964392594484892 7.081691660682352 9.231524074918266
Hf 6.693512148171849 3.8952766835941084 3.8953913935387745
Hf 4.144989253728619 7.533024137088356 5.7563027984432855
Hf 7.924889885284873 5.416827342970334 5.8255816421871245
Hf 4.257979439312045 10.019317929676856 7.151849160435035
Hf 1.6784684100581109 6.629090405118986 4.730408348880072
Hf 3.9613768369426356 4.939703260366012 3.21729680117442
Hf 11.92845129653659 6.320296414588739 7.8807351186467995
Hf 2.4599206976083665 9.558568293994655 4.787413750358104
Hf 6.796194614663884 8.298795829360857 6.448537591888817
Hf 9.501808384343114 10.26391317161555 8.532942653784827
Hf 10.828900183627063 5.24671321896242 5.342070743735128
Hf 9.616471093001744 7.795452610444549 6.474921514846602
Hf 7.564486555881228 10.951080721927474 6.251337992504142
Hf 11.984165544499303 9.17039447984779 7.40790158354051
Hf 3.6727104079946136 7.859031682291835 2.885847749999756
Hf 5.396905354088657 9.79134161831805 4.374778106972078
Hf 9.262463168403187 6.459562674138616 3.4587272909690223
Hf 6.357584233845118 6.881980404498154 3.648354647690578
Hf 11.403741440323689 8.175878063010805 4.461522681849502
Hf 10.304357351212476 10.543934746513045 5.731098519918786
Hf 8.520464249132765 9.225431863850734 3.9052027443674433
