49
Energy = -426.89793173 eV
Hf 3.8683973664132725 8.471489293639845 3.4335816723036277
Hf 4.923200248699651 11.090441074010286 4.500687377099739
Hf 2.7337127180387433 9.508663814605677 5.787238418767278
Hf 1.708744715762993 6.925225552172061 5.062488014817424
Hf 6.4337178340825085 9.370227291779903 2.6051440224065883
Hf 2.900662348428576 6.063019880739909 2.2717388313483697
Hf 6.088259164413381 6.378754049716532 2.6314064161834048
Hf 1.9792898341629739 4.099156584758617 4.185645650777895
Hf 6.163502308306987 8.978356729460339 5.501481631729564
Hf 4.4204202249034354 10.06836860449083 7.870115655683834
Hf 2.24303125298744 4.8038292553417214 7.015635475011148
Hf 4.293713651870867 7.178826535086465 7.006188905812612
Hf 8.070118664632682 10.915587761927757 4.466963619050505
Hf 4.34624303275881 5.5099044891337785 4.670271674323278
Hf 4.375340598443028 3.6752877379904128 2.5566319229769863
Hf 8.907284521177072 8.093734284218547 3.7081781225547576
Hf 7.108071735875653 6.2571326762904125 5.5039594530107605
Hf 10.939992478090092 10.154315584530982 4.5306401105259955
Hf 4.517457183302556 8.25264235160215 10.030170093300448
Hf 4.294889166118095 2.5933405436160695 5.3733935712598475
Hf 9.959808266220323 11.912079291492118 6.5109567201703324
Hf 6.786388995064035 8.280087605713447 8.196913635501762
Hf 2.034209211504201 7.7725648057228565 8.182547071814652
Hf 7.221567679690234 11.241033628196362 7.369527244326078
Hf 9.212002753468454 9.115614213942258 6.520377156842694
Hf 9.638792947571703 11.032767152956232 9.208230272317405
Hf 6.750581820869068 3.7423851610095835 4.19756681323715
Hf 3.804580629129806 5.384723948000006 9.458887604510972
Hf 5.746509268279006 4.29305181717404 7.319004604532618
Hf 9.63235102046421 5.242542750809135 4.465696189826568
Hf 6.993618033313749 10.191571060432347 10.366515467475582
Hf 6.948632012178218 5.723416464521837 9.4414751711531
Hf 11.883239877586117 9.889629528439357 7.322453799191324
Hf 3.6346797369987054 2.6054936893819844 8.2762110893286
Hf 6.867590001931927 7.6657900136650055 11.61322046089978
Hf 11.509678957039842 7.387959707592527 5.334681358502742
Hf 9.26233356076439 8.012944309978474 9.54370077254051
Hf 8.65782244448785 3.4223330274049726 6.520212849113038
Hf 9.268624716186102 6.1521412818704 7.352184999173554
Hf 6.327932588877327 1.6019781908950839 7.754280437285427
Hf 5.61655207195421 3.145332598764735 10.159329660045914
Hf 11.769651577259662 9.379866792753614 10.15348565984376
Hf 9.491124677699544 8.898662231302099 12.021053081184148
Hf 8.241592196686312 3.0929283653903266 9.384152094023037
Hf 8.934448625166597 5.750242189465953 11.577099395473672
Hf 11.484004219877288 4.663778762054603 6.57925162385307
Hf 12.165246710380357 7.033852872046797 8.290716833385561
Hf 11.493544814143638 6.841349180243756 11.134336962048584
Hf 10.735434845933401 4.679961292010878 9.43489763391554
