47
Energy = -408.78155871 eV
Hf 11.116881042496408 5.212410235430925 4.187290453440142
Hf 10.994347548895023 3.498197974685157 6.63867566901392
Hf 10.14302926585068 7.689149209342216 2.9272437653813554
Hf 12.467166083592376 5.806898845083943 6.6843949158547336
Hf 8.549150782709955 3.41875993770335 5.031268593436752
Hf 11.756830387553155 8.114044827820287 5.197081765548142
Hf 7.955147541898321 5.940876203892153 3.6716064824075936
Hf 9.607623956295425 10.522054070765504 3.5470730606100798
Hf 10.682730401180683 5.299250207633355 9.084963478414382
Hf 8.476329265532101 3.535025686020098 8.02625394215779
Hf 7.5172013764920775 8.513006220215118 2.728935451126239
Hf 8.844850688390489 8.813529731312382 5.4438638272981335
Hf 9.525350720560207 5.979815339692901 6.35884589122245
Hf 11.359334393408384 8.027492080271967 8.123371761423922
Hf 6.133201718997328 2.162161662768274 6.6974720744906255
Hf 4.539432390024058 6.903669318268869 3.5535421744658326
Hf 5.777684528638884 4.078339464594955 3.5505456621257636
Hf 10.77017349773403 10.683706959162889 6.845828635089775
Hf 6.5137350747181735 4.953137344520154 6.388093278283875
Hf 3.003964729052924 4.590075329290836 3.2736571240857955
Hf 6.56519655281679 10.503966890549707 4.25375945490187
Hf 6.378314892751705 7.751403705283466 5.574543645368862
Hf 3.9526157388296634 2.425195876386733 4.868475143209378
Hf 8.42031000861392 11.866231601310112 5.834999668192215
Hf 10.858324529553713 10.389204387371173 9.680459219547114
Hf 3.257844311366598 2.860630160592503 7.639047974355668
Hf 5.804077461753225 3.7680583081467627 9.148174998132777
Hf 7.753486436485383 6.288673412046328 8.875383689161835
Hf 8.478795214873717 9.15520265542087 8.492147070650464
Hf 1.4963667372392548 3.5460200815742424 5.356193227519593
Hf 3.7148007075492266 5.372893534618778 6.1451263899811375
Hf 9.901677493352512 7.730335461170979 10.784910007567278
Hf 8.249282504703919 5.092207083872111 11.177174568844526
Hf 5.264902160306202 7.6730039562377526 8.384245413918064
Hf 6.096987803113923 10.700938012974714 7.028681293297639
Hf 8.563838518639646 11.948230231707553 8.740096642254473
Hf 3.7548132159130745 8.920752241937594 5.587907069611854
Hf 3.409535833864977 5.45771338169321 9.249377191451861
Hf 1.5600658991022853 6.5843271503548335 4.8982132942413745
Hf 8.58733259659832 10.351596014751872 11.184000728464364
Hf 1.1081270881355716 5.091521709988393 7.533322918395275
Hf 5.407223807681131 5.740233035589357 11.192422034772546
Hf 6.975727272190608 7.922490668147442 11.347497767223219
Hf 6.009185866945159 10.269259234511177 9.87269438975308
Hf 2.3371905925135024 7.627713575689433 7.735512312104652
Hf 3.599798129574535 10.09492524661133 8.320253162790502
Hf 3.81115146105839 8.220241854875033 10.662440352288636
