42
Energy = -364.20163878 eV
Hf 9.246770677267035 8.724196305240653 10.855379996702451
Hf 7.004032838916727 10.92520724058394 9.583340316525321
Hf 7.580460150604101 6.470683233034259 11.628755306947127
Hf 5.7996821171377535 8.510537727792945 11.128355199228807
Hf 4.109266496535757 10.520087328340779 9.983341963135818
Hf 4.856844889578828 11.69156062383206 7.431088262609323
Hf 7.628191633435515 12.579987127160717 7.331511573404642
Hf 9.66751647638413 10.541905262834836 8.119242192035681
Hf 8.031172120416711 8.08574371889193 8.76411236281655
Hf 10.062543859570948 8.84062004149286 5.667404709933798
Hf 4.752034177146577 5.551281317399971 11.230895883084983
Hf 9.460173735370201 5.6375467422768075 9.760857476418114
Hf 7.211141220073688 3.909965846516628 10.77092062309977
Hf 3.0313552489067837 7.827750611914522 9.9663516478819
Hf 10.975297948520701 7.458177836383769 8.142592201465412
Hf 7.273053523952597 9.826797348635589 6.582574127782352
Hf 2.603439541406516 9.774817546416832 7.586449942159983
Hf 6.060322048755428 5.894200355185362 8.766665371580146
Hf 5.052374499228183 8.59299831113218 8.160116798412552
Hf 9.070589216378062 11.460728406481461 5.177871540165369
Hf 6.2793808031881655 11.80491667468737 4.834948318469261
Hf 5.027604828489005 3.264330055847709 9.154350929683481
Hf 7.463363596736041 9.126867117152473 3.899127669275271
Hf 3.141123817039627 5.19270089689283 8.733744731464121
Hf 7.699978875005111 3.6028844723609037 7.88625107051095
Hf 10.693262986770373 4.303133059691968 7.184660752986751
Hf 8.838529062736164 6.373109449963976 6.592983026182445
Hf 3.196932022295879 7.0003318362334985 6.5621624595741865
Hf 11.481633631284193 6.3696095989005475 5.407921845872339
Hf 4.540907132916971 9.355248779090694 5.212716202983356
Hf 6.151356288024787 7.014053530984061 5.722931937835017
Hf 9.186464698081153 2.027215370984203 5.958571289498099
Hf 4.770442787198494 4.343507771567044 6.3325276024345305
Hf 7.699419462533031 4.4088047357917235 4.920335665338689
Hf 9.397136622365267 6.789729281236652 3.4180133622595115
Hf 6.376189583201257 1.9796354207604894 5.671975956276348
Hf 10.421374010227959 3.9566360010031825 4.087253747879435
Hf 3.9938280429267237 6.193034946541294 3.9929983928258963
Hf 8.132070768028447 2.0581827612315493 3.3721834857504396
Hf 6.484165640028068 6.505941064069557 2.704172011988221
Hf 5.61746090397737 3.6713107336096407 3.2007830490833276
Hf 8.262690757452681 4.494052663680635 2.0509782513931034
