47
Energy = -409.27711675 eV
Hf 6.592945533534819 11.83309792049478 8.922469124915247
Hf 4.225286001121058 10.402880523025237 9.610764913420855
Hf 7.867127903727307 11.473511514826447 6.392211907777705
Hf 6.872340224089631 9.91698704700348 10.970594752875405
Hf 4.4441607320280605 8.633007395417803 11.814024315592459
Hf 2.283774406452735 7.4287830046228205 10.16051182795116
Hf 4.923105380664016 10.807987919430753 6.837537975275627
Hf 9.227534439539143 10.822475770438306 9.053047407500841
Hf 9.460923676710472 10.425289050256147 3.846368061760198
Hf 10.559393890189599 10.785693657540458 6.436594514926014
Hf 6.356202269608997 9.966806189874601 4.322611810493244
Hf 7.228244953709122 9.020297851692431 8.13729969720261
Hf 2.580082073205645 8.99861409279636 7.291533213488377
Hf 3.4813395374873495 9.798045379287542 4.60534933236299
Hf 11.035280891641767 8.47357604045487 8.018582761036056
Hf 9.182130193394627 8.047853818799256 10.299787016870035
Hf 6.861356587483391 6.985531525231807 11.488212699245047
Hf 11.655967465860806 8.567100325324418 5.194890756494409
Hf 8.803342579940631 8.341199819223199 5.666686822565379
Hf 4.753400824203941 7.522764774943292 9.095822188652708
Hf 10.48640479708837 7.9400277382438285 2.8521339612757473
Hf 4.710071953331927 7.864659836407544 2.923432222998597
Hf 5.037493752232308 7.701283519150486 6.011419337028747
Hf 4.226452750974896 5.951390621199318 11.726751450152465
Hf 2.4848703006393356 7.231394604577217 4.806784445410872
Hf 7.691716676958954 8.067835531775813 2.6915581650703295
Hf 11.9795952074778 5.684674597224037 7.101640370323363
Hf 11.496410276398711 6.385989057796198 9.903134230646224
Hf 9.125386448001931 5.032334433338678 10.871733344965376
Hf 6.979743286650371 5.716174100130929 4.6743808098602235
Hf 9.288342044920642 5.8684577459281755 7.978267927090191
Hf 10.087542017246209 5.763540652386023 4.792865197107924
Hf 6.449359365607687 5.3258751553107135 8.239479357763557
Hf 9.084220860715476 5.676217957408549 2.0926638456302076
Hf 6.212241885975146 4.0472014693281615 10.84290555064925
Hf 3.567831949354935 4.594253959594553 9.373381692666626
Hf 2.3654191352895335 6.265691787727771 7.476161363547071
Hf 6.34897471436892 5.169800759547093 1.8850589971730363
Hf 4.030792020413021 5.220632191394991 3.529536937207809
Hf 11.078844862892566 3.791904609087081 9.116088556077129
Hf 8.4112133691559 3.4294354060970234 3.4790308237990315
Hf 8.31834948083029 2.894102905158082 8.954738042552703
Hf 10.114292289310095 3.4056187170032706 6.509742249077288
Hf 5.463635717678683 2.64371155219146 8.439788725754223
Hf 4.435580726395391 4.502213714517289 6.3073598895720835
Hf 7.279064550375848 3.2321528308626584 6.250168772909631
Hf 5.681128710636198 3.1057005868313348 3.8262373476398985
