41
Energy = -355.408609 eV
Hf 5.501097083798348 10.055146126493847 4.111330111252032
Hf 3.485425287071339 9.452874388203012 6.162426455954678
Hf 7.736463502137637 7.901926068791897 3.3841636193040543
Hf 5.352965264240573 11.50953942954067 7.068585250138959
Hf 8.137391828948438 10.725070258704692 3.0791362092143446
Hf 7.142705782784241 12.410113012240076 5.074416053773621
Hf 7.300835366216324 4.86618255943133 3.2434621592526516
Hf 5.640241104868038 7.04331010043234 5.052956192067356
Hf 2.679969285048836 6.29185952060172 5.7486605831305155
Hf 2.431273641044224 7.880300625274502 8.114039779573785
Hf 3.862689201704409 9.933349796957962 9.279278420240178
Hf 10.255586805699645 8.849646224852691 4.244306008766643
Hf 5.645088366450026 8.445683626779552 7.77060085814995
Hf 7.711792012998674 9.669362645759481 5.882912222985742
Hf 4.725433443081626 4.298848480405213 4.681565786992059
Hf 8.827151736879102 6.978316880057856 6.025601426932002
Hf 9.838393464156253 11.590476998234289 5.150167929832604
Hf 6.788850507885774 2.201850081355495 4.358761285574743
Hf 8.394811828875893 11.791047285966902 7.692997924571559
Hf 2.7056167604103605 3.464457806893615 6.618121492055826
Hf 6.497095472829967 10.82071057360876 9.580422150585628
Hf 9.373541479905523 3.0996454229571553 4.4300116535702845
Hf 10.598911816703087 9.492277715095646 7.070921936423917
Hf 10.192570655566762 5.73450962479116 3.8702616644085883
Hf 1.9966416223608334 5.266098769110454 8.523813478938857
Hf 7.356063336525133 4.348951248395354 6.145748168573479
Hf 7.573547901318692 6.342883388248539 8.551341462692656
Hf 11.70568322484413 7.021223612240866 5.956364595090482
Hf 8.662282772494063 9.014797612072746 9.145282629434629
Hf 3.9151367550902343 6.471295102795939 10.224937932774326
Hf 5.315188577943147 2.2084458548550283 6.850775949172579
Hf 4.799951439707809 5.281291067304984 7.556808465913817
Hf 6.326082664433112 8.104640899373717 10.636626963485075
Hf 10.564231429677646 4.451763103531876 6.654969249689726
Hf 8.458898200956535 1.9460992868325822 6.937690887849594
Hf 10.661376407972124 6.668528776709532 8.664733752177272
Hf 3.939816785982164 3.407088084572005 9.485191378557957
Hf 9.163110110211818 4.102230583808517 9.381374268942675
Hf 8.889420577278651 6.613425764236765 10.967251685476926
Hf 6.721628958973513 2.803175153362373 9.081564096343344
Hf 6.471870008515924 4.942568530209628 10.838510951442219
