48
Energy = -417.99981703 eV
Hf 10.927489184670836 11.05879578700198 6.873392707849852
Hf 10.766776450916357 9.64738708448978 9.406627492034916
Hf 11.830172424868632 7.440799611147783 8.216995950793269
Hf 10.314222701746486 8.30752554134862 5.916198831071613
Hf 11.501019150712256 5.654857140689966 5.528419718580679
Hf 9.385130968897188 10.639319810446159 4.494713438468125
Hf 8.878126407097026 12.891433759440208 6.17218419192756
Hf 8.956272276568795 12.075569868410133 9.105525329489664
Hf 9.858000534595954 7.007603862602375 10.552753684590154
Hf 10.386344434970622 5.029212044153873 8.267928526525292
Hf 9.971754716410407 6.957549709777729 3.5017321567521527
Hf 8.04589409014333 10.292787725952408 7.103531469861221
Hf 8.492891957501039 9.61122273790292 10.73768248064101
Hf 10.526697769342872 3.1289463103748587 6.054762711396408
Hf 8.711402563517757 7.678833183185445 8.252102817792132
Hf 8.48166701230532 5.391517858505174 5.7508637716842905
Hf 7.484012171794583 8.443062722312686 4.519686425606609
Hf 9.829440565592098 4.107486281876829 3.4865106593405084
Hf 6.556382939523764 12.789626349376533 7.634224014184489
Hf 6.545996564271179 11.519414259534198 4.920299337015524
Hf 7.593031205108537 5.123315156144171 9.203882265245321
Hf 6.197107771689644 10.726392333837566 9.589721182996453
Hf 6.363323399496347 7.599280859516773 10.444848928600333
Hf 7.434878416146725 5.933415284600915 2.872627729424814
Hf 7.970186906075927 2.2789854056369845 5.060166310810445
Hf 5.290336715260898 7.991617700666382 2.4994355823795993
Hf 5.133765140271809 6.324155267341762 4.895206622657935
Hf 5.499578698018498 4.810350143898793 11.233532299949829
Hf 8.271411543042557 2.7422115950269386 7.860537504665904
Hf 4.41973386345664 9.322378709427781 4.712260828056322
Hf 4.5467655596081835 10.878471712985485 7.181648888894542
Hf 6.079917922950381 0.966405160082895 7.124266497142459
Hf 3.4897639635995183 6.588287140341444 11.183418698409016
Hf 5.8999498255567415 8.218606513162356 7.26995476145617
Hf 3.811036740126928 8.837840950581107 9.318956155435282
Hf 2.6758605506623723 6.811458148325403 3.7947818457622273
Hf 4.7054534591946435 5.925315269484898 8.614313174052525
Hf 5.76437049522539 3.7628997612088866 6.376773803512188
Hf 6.1769486491689225 3.400350080804408 3.096199276756934
Hf 5.548821704414899 2.7297972090664313 9.256287247286673
Hf 5.0598974234269605 1.4523355082243554 4.666409995498024
Hf 4.569940705719732 5.3787346037627675 2.114982319768805
Hf 2.998963680308297 8.019881476365711 6.63539519842868
Hf 3.4693018781806533 2.286632571139771 7.041742539286927
Hf 1.8394785938820726 6.596579848321542 8.935290427195927
Hf 2.963793888132808 4.0464766858630945 9.740452010581
Hf 2.5928383910091424 5.143964615011608 6.55726636856188
Hf 3.387594472929878 3.7406059818721773 4.17985482751529
