45
Energy = -387.2953269 eV
Hf 4.338394520452007 2.4831010977425416 6.745823713484629
Hf 5.853634316121916 2.9825497552861324 4.438317011317172
Hf 5.621578490155098 2.8561897089902124 9.34328517756344
Hf 7.074989149205133 1.772324863013006 6.749150420938208
Hf 3.729456638183772 4.772903615015225 5.0452954052212355
Hf 5.7877581276277486 5.560493868853758 2.705779132336037
Hf 8.006000909590906 4.976089369645566 4.546384966636722
Hf 5.7241242175078435 7.5469738163914775 0.7247794170060895
Hf 3.571395394926674 4.933169736718487 8.074594505046038
Hf 3.6252572881051375 7.279771620039371 3.340908550070011
Hf 5.7523016555929924 6.873706886938583 5.290076908998768
Hf 3.125529008662166 7.398183912682096 6.459735978142348
Hf 8.078507899094278 3.6302464182050476 11.6524930537197
Hf 8.264812735578444 7.043526884423862 2.2598077837763015
Hf 8.347086717106734 8.315492969824598 4.839995647751679
Hf 9.676499972837592 3.8721890486854598 6.806829634167566
Hf 7.505081106937403 5.469430836675304 9.748304946779392
Hf 2.8620350904024465 7.58874320414621 9.506075936548863
Hf 6.464557238595212 4.492282472072774 7.080356580329302
Hf 3.9942675851393092 10.231902707364675 4.853054264866481
Hf 5.8904072852755505 8.940478522893123 3.011542704160741
Hf 5.3329780780996305 12.120840352119759 6.721306008375986
Hf 8.421240585183147 2.586063445464978 9.041597919580504
Hf 10.890311196451806 9.258497593239017 3.834993749674909
Hf 8.702318149535147 6.660015589060276 7.331860853260747
Hf 5.60904516359244 7.481263161621602 8.441202305576113
Hf 10.496332771287646 6.250291144529314 4.924096953252311
Hf 6.447395227893516 11.480894835969313 4.089626010876723
Hf 4.991792164939051 8.189369936716101 11.405746492786076
Hf 9.0544505543395 11.034207952327952 5.361556744452043
Hf 3.2725786979518054 10.368242399329057 10.501259352836584
Hf 4.529840058635399 5.4770476139682875 10.698481242345144
Hf 10.348385395075956 4.53409665345772 9.743723518307357
Hf 12.872569752420526 7.575945244759909 5.230560226578317
Hf 3.665977239565592 9.912866660802976 7.697601892774176
Hf 8.461596616614546 10.034634764318168 2.5130411986088217
Hf 6.810571786511797 6.168407449854198 12.522736260194705
Hf 5.969934617331656 10.286875695052906 9.4268547059745
Hf 6.361924754616517 9.628110121218285 6.479983032158701
Hf 10.798275857964002 8.838239032053588 6.666653542545427
Hf 8.673916247808656 9.62023637239034 8.411652873210116
Hf 11.687241180159358 6.026854613347601 7.478080949322764
Hf 10.460073923698692 7.57043474660281 9.64227065872927
Hf 9.469692258428053 6.127097352867443 11.92317287116976
Hf 7.9105948217847075 8.420302404405758 10.937196469554216
