48
Energy = -417.4819209 eV
Hf 7.786869168923363 2.947920988099103 6.766992272754141
Hf 9.10252629189772 3.9463143781219467 4.3563633973074865
Hf 11.028029473069466 6.04661128898808 4.369694808234874
Hf 6.203799280461579 4.51991389515472 4.743199335023951
Hf 5.9441270411457845 5.929111875387859 2.0487445036701706
Hf 8.737303928684632 6.203563613711222 2.5333533107176285
Hf 4.735004112206904 3.4118669207351657 7.000252512888175
Hf 3.6509205418781034 5.691657053870597 3.686045920931254
Hf 9.96842360897749 8.567138543078856 3.5610198360197205
Hf 10.345309142722744 4.741900184633177 6.9486145344412105
Hf 6.2031681674585855 2.7411416476788912 9.345390760598097
Hf 8.812368058308644 3.8651605566471967 9.510369761623135
Hf 7.16599073597161 8.74258653496766 2.329304627865137
Hf 6.693982091834277 5.374895497321919 7.796373738455419
Hf 4.281739171740867 8.153851987674054 2.1232833248390306
Hf 8.372073658444277 6.6216402727079275 5.391074037949993
Hf 5.68529695242126 7.509357601867752 4.550553400341064
Hf 6.695075534612399 4.62899879594434 11.380842566104079
Hf 11.453273953644615 4.759999801268952 9.680690693047156
Hf 12.38480376628576 6.80544000509594 8.00283686022511
Hf 4.173403225288963 5.1008699943856755 9.373271297543738
Hf 10.52012135676483 8.133765697261797 6.398162553172057
Hf 4.0200322030057425 6.34908942816572 6.635206514337384
Hf 4.25242983895771 3.24832566911687 11.386724995336522
Hf 11.91265709540031 7.247616944576567 10.825505599759849
Hf 9.545370821511975 5.826995701214937 11.73242292774118
Hf 9.611697222155122 6.965557786184552 8.977726482029526
Hf 6.446372088114068 8.422513055457111 7.390435928008872
Hf 4.493374806872148 6.430040465612541 11.839351617962949
Hf 7.958330017866858 9.86287841959582 5.104898594414925
Hf 2.8523392790312583 8.274134032364637 4.513176839148171
Hf 5.074139259002917 10.272340114907701 4.008906201771049
Hf 6.675562563914833 7.430311888860055 10.118813046676705
Hf 3.8028690741997777 8.005708851699923 9.274162762619214
Hf 3.975564371745706 9.721211574637236 6.701253547222789
Hf 11.497260056067764 9.571399183256808 8.989401834455276
Hf 7.120358798852448 7.651256942868615 12.832190083397158
Hf 8.752163629123318 10.254623878590467 8.227527744960337
Hf 9.661059496914511 8.727412091059106 11.628299634566735
Hf 6.294677148321466 11.501299759441185 6.785195823533403
Hf 4.918981502653784 9.183566490930946 11.703911196978813
Hf 10.94660303910645 10.791510427402287 6.106276042570316
Hf 5.213687931525257 10.592748353835733 9.228804753651934
Hf 8.803290591068192 12.661347227185967 6.306899924918667
Hf 7.453693620310369 10.264746995633947 11.063434931368002
Hf 9.9540479878505 11.556034889879703 10.71833474027661
Hf 7.793508183777492 12.767349359779626 9.11964636722053
Hf 10.687197809230096 12.485379204347694 8.30382334975714
