43
Energy = -373.42508518 eV
Hf 11.458831111460047 5.644008141937284 9.08858576045785
Hf 10.26609386627324 3.2373967380338695 9.160592630717995
Hf 11.153353266143096 4.333500284789066 6.474805548080037
Hf 11.611122899172742 7.302391849441653 6.804820506535236
Hf 10.810042795034413 6.349612423381704 3.906775640424793
Hf 8.824919533164005 5.5177074749652855 10.747952136792529
Hf 7.847468443785319 8.139551681967008 11.623053236342457
Hf 8.569385076642739 2.409516210848076 6.945753136834372
Hf 9.764792984965382 7.996977417725275 9.391298226898542
Hf 8.835717016928127 5.342463109780887 7.8326653598572795
Hf 7.547405468319294 3.0939630295000335 9.502930016204509
Hf 5.813529525541558 6.245793632172056 11.765754327309006
Hf 8.685390805913997 4.309538223949751 4.686410094660036
Hf 10.924213150658323 9.154869516001396 4.655997604807907
Hf 8.988675673523478 7.39584537832542 5.6736123861969565
Hf 9.799698674740496 9.94793514105533 7.313981519609314
Hf 7.75473958609954 10.325274523140232 9.784544793714522
Hf 6.772573389416237 7.034753693889239 9.196512700383812
Hf 5.193132042178866 4.5574641565491305 9.47557107810277
Hf 5.156759610339455 8.971896260411535 10.801929172738046
Hf 6.1675746642934515 4.775791005361643 6.401277955162465
Hf 5.451444419772211 2.221687789215189 7.570476767218896
Hf 7.532483001884663 11.918241780074009 7.345191313469886
Hf 8.38191535553196 10.639370179473806 4.843996452352934
Hf 8.19863908068039 5.879052338608719 2.473569499285156
Hf 8.670750312507767 8.520676514613573 2.7854556399895105
Hf 3.3432120450917404 6.647684759951753 10.004844186504538
Hf 4.507747467796042 7.676897275606243 7.348240333085409
Hf 5.013895748115474 11.038457885715754 8.5893121056649
Hf 6.575281198815455 2.2256067220340383 4.905889698637119
Hf 6.941509287881564 9.2160186509858 7.126906664081549
Hf 6.444051509781126 7.331562177549163 4.690511230262742
Hf 2.7371956520296283 9.220894101007767 9.243118548824953
Hf 5.795570009035192 4.575020565875331 3.345839793224437
Hf 4.001408831566086 3.1794482051984585 5.203064837120502
Hf 3.295436832068039 4.808425168123103 7.500321171400257
Hf 6.186681203640958 9.972603278578704 3.134863257555242
Hf 3.7371665984847398 6.046193706362055 4.863463599259925
Hf 5.306013779870845 11.144212733276282 5.583080599390345
Hf 5.6687872110802 7.368725689512976 2.1140295501382345
Hf 1.8519498717288552 7.4814005298599024 7.07360364616072
Hf 2.9103042734318527 10.223529213864282 6.76257277278867
Hf 3.8347736381180053 8.851503662042312 4.38847704976738
