41
Energy = -353.28344437 eV
Hf 12.24787798436721 7.336210988567617 7.861493535351173
Hf 10.68040916779779 8.98568937887126 9.483129781867232
Hf 9.844731566956492 7.334095996265438 11.63219758119474
Hf 12.19834519921133 7.308981389158517 5.036135787284461
Hf 10.830265352782206 5.6343276634102635 9.589430395270497
Hf 10.651343732262868 9.187152012502247 6.408173393318688
Hf 7.888249932379327 9.082420218597122 10.581086977809475
Hf 8.451467483652804 10.218604214346774 8.03522215809113
Hf 7.2005589140816655 7.301860624156028 12.686125181609055
Hf 10.580134203283656 5.369731089694727 6.549798665315209
Hf 8.773325469906894 7.165666801330185 8.22885761222548
Hf 8.005851718636887 5.375051341484845 10.780615302201934
Hf 10.32475738316884 8.70053830130364 3.455533927690769
Hf 8.099039729981419 10.033926421912414 5.0004207058038945
Hf 4.907802336626309 8.653930969239292 11.71482275022365
Hf 8.71531524051569 3.93388273053921 8.329960892493569
Hf 10.656538813449071 5.849358621964135 3.3131484423699824
Hf 5.8357498801068095 10.796511222738404 9.33952550563404
Hf 6.551890493575812 11.93347467767551 6.8558966008383715
Hf 8.545114994178821 7.058653008109461 5.052081853095878
Hf 5.747658403572702 7.287085109049477 9.254275839077879
Hf 3.3310898923100942 9.700222875754509 9.673558356617574
Hf 5.794297302310253 9.009288030314638 6.619018938189257
Hf 5.9192494266669575 4.2272947594794195 9.201457816437372
Hf 5.116304091273735 5.732121405494787 11.623038287182878
Hf 8.96626597845952 3.1271705473654166 5.592268810767243
Hf 8.24426177624331 7.070091150906124 2.1965757070823972
Hf 6.621912031170452 5.147429877522342 6.313073459388979
Hf 3.7891233940193896 11.053128516504847 7.114964086996298
Hf 8.359760935467314 4.424543046059423 3.065334811748336
Hf 5.3750910547006905 11.084636801865006 4.579107092780429
Hf 6.510590089363756 2.3651733922141496 7.001718020989262
Hf 5.949906001798727 8.354828642734848 3.6995531955119105
Hf 3.790153637632695 5.3766959445052205 7.841084513851595
Hf 2.9909756248938417 7.00593980238136 10.228027545780563
Hf 2.813793372088767 8.135404179995238 7.458337760538999
Hf 5.716156626371351 5.3948749607646835 3.2587743952189854
Hf 3.347771344492326 9.306028523692296 4.853387399949785
Hf 6.548605688797217 2.8227346923094165 4.269892115225265
Hf 4.259576509774972 3.7280673048969497 5.411168243036982
Hf 3.9810143128628055 6.591869015912796 5.277832065050721
