46
Energy = -399.76149898 eV
Hf 8.284137160905024 1.4258028943659338 6.907533965105176
Hf 9.397956475246767 10.928605952365798 6.484357650749033
Hf 10.518006149549691 3.3002407736793167 6.795070534069839
Hf 3.53336635157654 11.058706200810535 4.407026761464099
Hf 2.258079695599825 8.53081805377114 5.400260069661839
Hf 6.131353016315651 1.8061439764387264 5.196101370986793
Hf 7.25960832211049 6.5546705910915115 4.788762347589548
Hf 4.0803839182438875 10.293013111767149 7.1169158343463295
Hf 3.206207302967321 8.77407155316008 2.6176414518412243
Hf 5.540502828385078 10.387836444009212 2.4169813144734644
Hf 6.623774609646051 7.548206348611481 11.58321130217431
Hf 3.4942108423766243 6.144546837675369 3.826088953482073
Hf 5.865681491941196 7.299519563048975 2.2561964825328276
Hf 8.554463667822533 8.46478738029046 9.061532065784279
Hf 3.682471334179935 4.752894997171972 8.594462694755208
Hf 2.101497372426686 5.770355598894066 6.370759538150698
Hf 7.5268399822675 4.0720258887175245 6.245110222446459
Hf 6.4848685488953945 11.288565016146057 5.373819151849206
Hf 5.1628309966222075 8.807670206977475 4.700482509402081
Hf 4.168655709260255 6.558482457801425 10.694231065880835
Hf 4.762049452721687 6.703524360621189 6.54570335277108
Hf 11.156880207900548 8.899653793547337 7.315935372238186
Hf 12.036337145518926 6.077460989682256 6.8726788715127025
Hf 5.7396615345995965 8.629604797331876 8.831310465970631
Hf 4.267130185892379 9.372829614567255 10.814945380423902
Hf 11.283788275428572 7.451660649797952 9.685912238592051
Hf 4.303496935809525 3.896968047467883 5.87039690502897
Hf 6.546548422284787 5.756225361038804 8.649214399203133
Hf 9.00930412971324 5.753324630666165 10.850873085218215
Hf 5.845186330576831 2.5430780231968257 8.13806732680308
Hf 5.983683703237395 4.19273124486684 3.4410509332117343
Hf 2.803729223726004 7.858717568168269 8.44465478853612
Hf 10.042765470248836 10.64077074551549 9.53313896773352
Hf 10.15452864927889 7.72883920199536 4.9311949016222245
Hf 10.404857954224635 4.968035566758807 4.603715457027606
Hf 8.654118210536263 2.676661589363439 4.062022022582962
Hf 7.220392830514022 11.297116920911348 8.296109405011194
Hf 7.325934494981772 10.327622509961367 10.948445937988314
Hf 8.459954774763203 5.443571105345787 2.6183644468564617
Hf 7.871236893925643 9.189285463995375 3.6089321023305074
Hf 9.41039799355869 8.527017475441994 11.742143915050063
Hf 6.23385489726457 4.418688979213764 10.94661901982162
Hf 7.605923179737156 8.736581729812386 6.43528712983064
Hf 11.144895039724275 4.565462437545865 9.316197426609502
Hf 9.416923693392322 6.085615602268319 7.529805561473716
Hf 8.495407888764646 3.329845540439495 9.158110480990008
