48
Energy = -418.17880128 eV
Hf 10.674440109845783 4.785495243075925 7.189578031844162
Hf 10.971160099676998 7.0451467972719515 5.322027270245438
Hf 10.38584144329921 7.476364073973566 8.544109686342829
Hf 9.672447043868678 2.3723895608276413 6.079895197749395
Hf 9.57335383523856 2.5887563750189657 8.844769158648297
Hf 11.123829433310664 4.379800330732991 4.211354582479566
Hf 10.186194264579104 10.164161087977579 9.759100741684412
Hf 9.983257461202186 4.933044642011765 10.434836301431188
Hf 9.996925590869939 9.800823297357649 6.874847065218942
Hf 9.31315239320367 7.842648258980515 11.318192765712219
Hf 9.858052055366093 6.592704330785929 2.6755045616060356
Hf 8.144865888670216 7.520559349093913 6.422888456098906
Hf 7.427969134903731 3.9130416408343 7.315844112964784
Hf 9.411655492719444 9.121575272975969 3.9599549909368545
Hf 7.21585257468742 1.301449277353356 7.6619301031748055
Hf 7.280705650276922 2.254339036444756 4.714681326632121
Hf 7.918110724143783 11.824195652596527 8.708104865374908
Hf 8.561767768649721 5.026397905289606 4.9289582463803825
Hf 7.30050686594335 3.310966767855046 10.395375906594635
Hf 7.733568973331215 9.157447804028713 8.696235802411575
Hf 7.717434174378349 5.5522153105431835 12.12627343566445
Hf 7.6934833744592686 4.896283686977191 2.0827707313283925
Hf 7.721564557715939 6.086216185490964 9.296469077465105
Hf 7.872068028587578 10.430590462193898 11.323042298228062
Hf 6.298887662183245 8.087421824785729 11.670777862073965
Hf 5.197266857357865 7.831967463277929 8.684462446875173
Hf 6.835761626787876 7.216197676481706 3.7138307572230205
Hf 7.404061084710624 7.798319122915243 1.13890858520462
Hf 7.08998508231727 10.21366818327378 2.8325363092662146
Hf 5.4676988219619425 4.401013216037193 3.980241077289324
Hf 4.941309092520056 2.4801763683436193 6.153878321457377
Hf 5.092156229467553 5.532460975995927 10.724618495458312
Hf 7.548896689647953 10.623098087079235 5.693877237405776
Hf 4.675368230059851 3.4797130618671823 8.683796102122852
Hf 5.143099640618834 6.089362064553931 1.6030948492385022
Hf 5.178783248261325 5.715357450482515 6.659712634092515
Hf 5.200657702878786 10.447565525848743 10.14862590080741
Hf 5.09941116245432 8.548272902844165 5.664891263237556
Hf 3.4743003508253474 8.076600408134214 10.834017783044997
Hf 2.848255157629744 4.401699038144422 6.019178445344063
Hf 4.644081009254944 8.889357190330594 2.3469444199362064
Hf 3.34952560316232 6.659728110591891 3.833127854064177
Hf 4.951035840404423 11.112717359447814 4.356625395484713
Hf 2.831788460746465 6.021147558983056 8.796057828890433
Hf 5.263628963481809 10.851051555953008 7.382184263304867
Hf 2.8920791527342526 9.238477250493519 8.078648049170676
Hf 2.2257639728408813 7.150521991166867 6.308183214700635
Hf 2.651663071782803 9.455348119625397 4.739894739985623
