41
Energy = -355.74421855 eV
Hf 6.469993273031467 8.442634892684797 11.54606694790831
Hf 4.244155505372039 7.4107553070337016 10.03537735360642
Hf 3.707760720420831 4.566975244722125 10.126054668231948
Hf 6.070636461599218 5.554310439621392 11.490542720745628
Hf 5.95093370477089 9.741101839568394 9.04846865354597
Hf 2.9346416658518897 9.39789042430203 7.9700510816826196
Hf 2.6745286997395734 6.193588350240178 8.011902381929113
Hf 8.285174679843417 11.239006979375345 7.756980497221864
Hf 8.917972660808719 9.25437271013848 10.198497848951234
Hf 8.683290220906798 6.756948077319776 11.780813969330625
Hf 4.764015999385287 7.942038319738261 6.643557523321062
Hf 6.01213520960094 3.09011887882615 9.954015003271502
Hf 7.433662695876824 7.066343674425541 9.183227471125862
Hf 5.61811104822554 5.291255959274468 7.8825659893976985
Hf 5.359785685601926 10.991571732395968 6.550377735856237
Hf 1.8977514514366653 7.6345658429721945 5.7578604310633485
Hf 8.527058584209435 4.341420053500733 10.082919054195443
Hf 3.227121622705091 9.902840582099586 5.020068425264967
Hf 4.2335972297187405 2.922240967661022 7.731277433270674
Hf 7.675616111711783 8.8654799694069 6.500320035002478
Hf 10.42568159484943 6.5505272822425065 9.582034309504765
Hf 10.546637290613662 8.890209129764992 7.784560192268787
Hf 7.612904994151627 11.303882421003292 4.8551910561830995
Hf 10.044396337982308 10.458593766812722 5.567601475428704
Hf 5.735161956489487 9.534855040053587 3.755043659238523
Hf 3.737491870917052 7.536866082721096 3.463476981250277
Hf 3.486803870549852 5.106306709071751 5.565072471271781
Hf 7.493387438378076 2.842769946508227 7.610409784737545
Hf 8.982296657373977 6.091682148684823 6.553955844756641
Hf 8.549867462081178 8.870773693829353 3.539044649597512
Hf 11.923820617290852 6.401368072560251 7.223338441280749
Hf 6.428410091660093 6.33007179226918 4.707794874803709
Hf 10.410277910186698 3.941751562835747 7.759709394469015
Hf 10.972608865990832 7.798318047014007 4.965920840439492
Hf 6.482260358484285 7.024753408101617 2.040734149516191
Hf 5.783730393211915 3.3493872433547653 5.205177810951356
Hf 4.6037241110460965 4.889804474401299 2.9396544832861746
Hf 8.75192911170556 3.5049795458008957 5.032662026186184
Hf 9.244203145818465 6.012846484951861 3.2714472832468955
Hf 11.180133454161155 4.879119075019596 5.0758978924790314
Hf 7.185650985816444 4.22122929282691 2.7355379028916396
