49
Energy = -426.70229626 eV
Hf 11.990258431643634 8.180481377820024 8.941011781173499
Hf 11.848541158673648 6.370812335506147 5.070549259603265
Hf 12.218635818067206 5.489283326236503 7.733446610702601
Hf 11.39739810221427 5.818121228188611 10.393668351832059
Hf 10.558677950251841 8.746855184072144 6.251629946770037
Hf 9.937573902000588 8.158888017146403 11.099829145223454
Hf 10.83358546126819 3.6725804385416243 5.803558356545662
Hf 10.70735031913283 10.666005614959087 9.809595812170167
Hf 10.414244218547282 4.964177763665394 3.2095167337535484
Hf 10.162577310708867 11.5492953701212 7.0398446135180075
Hf 9.808727322387517 7.857428674357768 3.5541944629295807
Hf 10.135171728472706 3.732557130097704 8.933199123792617
Hf 9.580307092409813 6.602801747160948 8.30311894476514
Hf 8.44532100448708 12.239442306373693 9.158695198287047
Hf 8.862868114343081 5.752136071053397 5.491526851719471
Hf 7.473247392985955 3.13740675583301 9.762470864047083
Hf 8.520820801873024 5.428753094772215 10.983038973747368
Hf 6.912902086588351 7.781380490055896 10.361831999785192
Hf 8.126787580241146 2.784856115064364 6.982233785713973
Hf 8.140786663241562 10.368493894482237 11.181699295672706
Hf 9.066896923493958 10.705661702511634 4.351623750582914
Hf 8.47919355292127 9.403133886605366 8.459827863171972
Hf 7.4958388795924975 8.595824986838199 5.4545165383727285
Hf 8.285620230128238 3.2556954737438564 4.016386744395493
Hf 7.014792902274779 8.778722088756535 2.5681286821540033
Hf 7.677482295907852 5.906799240562648 2.621043102350462
Hf 6.873714980103005 5.540758223043276 8.089139747266646
Hf 5.674807271784045 5.985430291567106 5.121518705946568
Hf 5.495593416508413 8.245711228623188 7.574642661842464
Hf 7.361108375997857 11.689433898063093 6.55084883859705
Hf 5.248781534245514 4.9866432757618915 10.38709807952832
Hf 5.858550511270432 2.8704343520076137 5.392710670561769
Hf 5.894979690072049 10.564083656127075 9.236439082561764
Hf 6.253066551320606 10.981441748486368 4.082352683415299
Hf 4.499000928569334 8.723380403438977 4.219837874631685
Hf 5.1608556933169085 3.161603774251737 8.09227368429115
Hf 5.249697480333451 4.073521661697443 2.9872241962931048
Hf 3.773004903885803 5.747270453535082 7.5223813646291635
Hf 4.471246278822622 10.800165752201993 6.383666033942471
Hf 3.8787118624521764 7.526886786753579 10.234272685286873
Hf 4.948188941762695 6.733059918123853 2.2557663834876682
Hf 3.1849585288095663 3.6752455943265674 5.418277629201926
Hf 2.878052478944535 6.177572218090927 4.19090956588695
Hf 2.364450219130724 8.277887118180312 6.178239545356996
Hf 2.192148082150152 5.165816625359985 9.871658730577959
Hf 3.1298786931455704 9.775767101780556 8.56775096380433
Hf 2.1964728166969945 3.1858686122099384 7.986168281562919
Hf 1.0908170571970692 5.512694696894184 6.783193950583517
Hf 1.44157413829127 7.588807805792866 8.750624626859084
