46
Energy = -397.15572647 eV
Hf 10.381780529390563 6.669636704764906 3.4574963610004574
Hf 10.053531476603679 9.491610320018664 3.192045591803161
Hf 8.150888287267287 7.826707235607406 1.8876095034886453
Hf 8.749401594791557 4.703034291916766 2.175947864183974
Hf 11.131542488316093 8.479643724544177 5.755902885172611
Hf 9.299302222057038 10.850690719282252 5.689218620225493
Hf 7.322752081161163 10.548857260306132 3.366015442179948
Hf 11.534440093939324 5.489581864384461 6.191538039240294
Hf 8.144205089894372 8.14715184553534 4.808102199236456
Hf 5.303732549543088 8.381712925957121 2.8817062184440716
Hf 10.679089774954855 4.880807283310426 9.038260297547506
Hf 6.775261203044442 5.861481875561384 3.5649023955347854
Hf 4.50538360662511 10.80465107799687 4.148868246355561
Hf 6.462109270971404 11.694514875395422 6.115925125656688
Hf 10.392029704482898 9.832299174325533 8.466679215553397
Hf 8.424642131727797 11.966148977777548 8.223342955162725
Hf 8.856948294341779 4.396691203644767 5.112698577119268
Hf 9.121458700535099 6.6449154335211595 7.28164276839551
Hf 7.545546860616872 9.179626999489793 7.939787420321678
Hf 10.434526717212753 2.8430364568423068 7.010132659888208
Hf 11.750856312896465 7.303608619993643 8.368371958907742
Hf 5.4626706962100515 8.694984452382887 5.864265269958705
Hf 8.254529270827955 10.318664426732733 10.474039712920506
Hf 5.79668069382449 11.35290794304084 9.046940287305777
Hf 4.329933713128104 8.643086335054461 8.614272941962943
Hf 6.001770044816088 5.7453563336259075 6.3933926811392485
Hf 9.34817193901413 7.505386930001238 10.109112348839327
Hf 3.8951849478958143 6.093388612231517 4.2466240002438775
Hf 8.133244358005056 1.6298357356254856 6.205465224359935
Hf 2.7386481270252134 8.627473776776519 4.9403554289695455
Hf 3.7619968073082557 10.83965379229825 6.816666906288329
Hf 6.5485502977322 6.598503025952789 9.327054167533596
Hf 7.8152142640053555 3.9543821372667485 7.924845896569232
Hf 6.164711431919867 3.1801836605708145 4.71345433331526
Hf 5.721553441890135 8.963351767302147 10.992215525778631
Hf 8.290319298012172 4.608437630893019 10.902306931872069
Hf 4.615127853808015 4.396816697376009 8.893813850460521
Hf 3.1453262545227476 6.502078331169507 7.103548683398801
Hf 7.4086750361046905 6.843935878724054 12.314460462294077
Hf 3.5178031278278015 3.926982055794098 6.056272570585735
Hf 3.7661145140675623 6.73382083295981 10.644025745280407
Hf 1.2851498183934633 5.8588826271228935 5.115943657652141
Hf 5.4634693684066145 2.1189638033248754 7.241420086559552
Hf 6.574764760024099 2.4300867645119673 9.874015977830968
Hf 5.539947764280986 4.736749934488495 11.725990403207627
Hf 4.839353245936349 7.177884631717625 13.231763146800686
