49
Energy = -427.26638107 eV
Hf 9.68668366516136 11.05956318658388 4.504355192549322
Hf 7.283531127266616 11.895178324162773 6.125294573529927
Hf 9.008500243931035 11.132195215875223 8.12277886212953
Hf 11.21407066377233 8.44111043307692 4.224561453176088
Hf 8.916846709259564 8.845208656288849 2.5394698882037026
Hf 6.785690500138094 10.728822405637205 3.528908448360492
Hf 12.54452993380078 5.977767513406481 5.755137900557022
Hf 11.570585682384374 8.679146424084509 6.897764901392681
Hf 8.703819079996236 9.080932576351843 5.9400235208678325
Hf 7.743314415382748 9.778135659769077 10.599407348726542
Hf 10.465637874821512 6.003640132981545 2.9801770990182255
Hf 6.225563749655271 11.948356798312219 8.93102341077955
Hf 4.533502451249282 11.211453031528245 5.8660336140792575
Hf 9.50196467969059 8.35058522624143 8.775782720752547
Hf 5.979261951855244 8.104856407449807 2.0839343085140634
Hf 3.985906764984828 9.758780964428444 3.3460015870221462
Hf 6.387500215998866 9.533391615047856 7.910772897095738
Hf 8.129773459389545 6.134512062329516 1.3673998140392325
Hf 9.906233115175626 6.204725276939791 6.080165944413186
Hf 7.728539229130161 6.6515076985695085 4.091701012882482
Hf 7.41166974977725 6.768387085316971 7.369327496452194
Hf 5.685602269781445 8.580736167675234 5.220935746690132
Hf 11.59755142333999 6.332338790895477 8.57875049555487
Hf 10.796311516507178 3.712375340460493 4.730360810523589
Hf 2.7247953462846723 8.870480282569854 5.714646517625362
Hf 8.176517917476229 3.9370829158593015 3.432283187094266
Hf 11.147815635496007 3.8772792873662656 7.424413954999094
Hf 6.162719414565071 7.09482967375026 9.971744756544888
Hf 3.8424049345533486 6.778131473977335 4.006090086014101
Hf 8.953365165712464 7.04392407417014 11.175818870327054
Hf 5.769258993412757 4.801678595605971 5.299853282631348
Hf 3.2718478110784712 9.528261776440587 8.350481433883491
Hf 4.97060671503839 9.820950765076025 10.725220670963642
Hf 5.732313839090837 5.175725157216721 2.418381876721209
Hf 6.512438063925507 7.732687125711897 12.584436531381412
Hf 8.92551651590177 4.861550481505375 9.19410159652813
Hf 8.277054088918506 3.6240617743586347 6.554459165148628
Hf 4.407137400271095 6.785781517301026 7.260806815319387
Hf 1.7639674603027784 6.990906383934363 7.978164112029623
Hf 5.8546391324165175 4.437602576286571 8.49657799700049
Hf 3.337476767100975 4.084578424182392 6.732562929241235
Hf 7.27517916859868 4.948920304568933 11.843960287179332
Hf 5.706130909512576 2.160911017630155 6.448997591902773
Hf 3.095918801118466 7.578575787390678 10.392243965794586
Hf 4.510347530100679 5.6564741396443345 12.005453976749024
Hf 7.163960136937795 2.0422191288304066 8.996552557836534
Hf 3.0220596933525172 4.74770165686377 9.610178675065479
Hf 4.179663332936698 2.1274261422833 8.767286351304143
Hf 5.232665789676425 3.091451894347312 11.076953856105854
