43
Energy = -371.5147101 eV
Hf 2.155718864954168 5.376852783869999 5.831721402905596
Hf 2.70750134886848 7.563858978808932 7.662943058589169
Hf 4.312139257821846 3.599372577383873 5.3360982676209066
Hf 3.8248163861981386 4.837788485175443 8.01713679295039
Hf 3.598793606974422 9.999362938410652 9.002375475284934
Hf 3.1557351613514597 5.303080346769618 3.290304627361584
Hf 2.573337279833534 7.97498870072836 4.480754038398735
Hf 5.182330484478595 7.556575253403088 9.97340387005036
Hf 5.827654014543909 2.8690860271746548 8.25320170326674
Hf 4.948312200040929 6.4927773028203 5.31666060180022
Hf 3.025153640886139 10.094917173820122 6.342945112922912
Hf 5.36076634738466 4.653499121733721 10.562550026289607
Hf 7.1947126287861 4.07123082371108 5.603177225161706
Hf 6.133708136109198 10.639287509554558 10.079102289401037
Hf 7.527750383886687 8.6384396943598 11.879542397277698
Hf 6.079812931571737 5.076520166755654 2.992084731910257
Hf 4.5987280763664415 7.476353419431453 2.460117019469784
Hf 7.542115913272171 3.0011753300812916 10.598962503132578
Hf 5.50766833348395 8.689498753715716 7.307663495800192
Hf 5.3989593474775 11.492649316581128 7.104417576239104
Hf 6.68691680814421 5.668651764624373 8.152732100354816
Hf 8.285021376984831 5.862728720654317 10.749902732190597
Hf 5.026506885807963 9.682458275099156 4.317200113561878
Hf 7.2708005883339615 7.8198317142686395 3.171598617901037
Hf 7.862084042113663 8.482368058106008 9.15449587529108
Hf 8.62986623021519 3.1273707188081463 7.996799137306602
Hf 10.347227389440983 3.528600802126313 10.228246259127987
Hf 8.917776291931709 10.824020588998188 10.688672162008013
Hf 8.205382825176416 6.851403738407707 5.823648302477723
Hf 8.23566846896491 11.522745306433203 8.076797967161315
Hf 10.229571956505717 5.896704298056364 8.531601551587546
Hf 10.35195358937494 8.314188744889488 10.662272955229609
Hf 7.649488153244547 9.918361118695971 5.506029973253825
Hf 9.182929805325339 5.614189090344617 3.529839733811173
Hf 9.917512048278445 8.69351234753473 7.202312114442296
Hf 10.068112016168733 8.667969984906717 4.254570270897012
Hf 10.066832079762953 4.42671099519458 5.944451983871153
Hf 11.305995961662598 5.772099521919074 11.21417930033609
Hf 11.157810494569567 10.695874037445135 8.700121379393925
Hf 12.388208302397576 7.859459442982833 8.52440132260132
Hf 11.631537056926756 6.721214348217301 5.809041002428745
Hf 10.166814326362099 11.258534003292562 5.960644135699946
Hf 12.320139262607954 9.486665285145207 6.1110155228460235
