40
Energy = -345.92386808 eV
Hf 9.579699730361087 11.61913361248554 5.775708961705968
Hf 7.133736142309234 12.781882151640243 5.979116964647534
Hf 7.733758096638636 11.020818473320686 3.6389893358934464
Hf 10.335012453336068 9.557570534032955 7.5444945257957565
Hf 9.740959848930993 9.0515623667685 4.494654789720927
Hf 5.117407685563987 11.427317600835858 4.778945676107472
Hf 8.294786207129636 11.58182107971309 8.333965741741805
Hf 7.200196210348071 9.747477326524582 6.259495888822627
Hf 8.171631018264002 7.886438326853201 2.267704248542684
Hf 5.199110858744086 11.445338978132394 7.647811638973776
Hf 11.249098746648471 7.298347946097099 9.125782720734286
Hf 10.323732043071134 6.422198359473395 3.512865163747167
Hf 10.566450280923911 6.796208143525731 6.344888901366513
Hf 5.724771815358349 8.854015331784888 3.611253205149725
Hf 9.569827188054365 9.262905722824824 10.374865598500515
Hf 3.8500596129931393 9.296804184065259 6.110492676203213
Hf 6.495752090166197 9.613980051872511 9.5162424237401
Hf 8.251096299796545 4.882674394326198 2.613001375536864
Hf 7.658709695177565 6.6957805547539975 4.903223469518696
Hf 8.370912299104534 7.425633035475623 8.482931642461915
Hf 5.374669511578966 7.341584374849552 7.842593287321494
Hf 7.501091815422228 7.987201950057071 11.66857795189381
Hf 5.841986386995631 6.193189362707384 2.5546850777189705
Hf 4.788724243283759 7.899339512972123 11.07386473769494
Hf 3.329601926236085 9.002439144997636 9.011782940548335
Hf 9.293618449196405 4.305212992830196 5.301350951265438
Hf 4.457158306723794 6.500811979233127 5.027342510158218
Hf 10.020970053858987 4.6845209512647115 8.3884500442637
Hf 9.458812983464115 6.1754793112125945 10.934070590309233
Hf 2.520529788736606 6.9666729455129826 7.176192048308831
Hf 7.087792287705771 4.729114959849714 7.459588674016781
Hf 6.462616790749175 5.699691811413887 10.287290167954275
Hf 3.4394243387918917 5.964069201845174 9.62139389614294
Hf 6.27950155723551 4.133999067631005 4.6365515485057385
Hf 4.047517161331105 4.4544380654659586 7.144188431094064
Hf 8.634470394763813 2.218999393128658 7.490357747406272
Hf 8.135623433001324 3.27218225444753 10.09297267416186
Hf 5.271228903766279 3.147093097870435 9.412432106864038
Hf 5.716944507647662 2.056309216547207 6.835285056944415
Hf 6.872406172753991 0.817696172720803 9.108770898764055
