42
Energy = -361.96687053 eV
Hf 4.321323781537551 9.67169441108826 11.485325064443971
Hf 6.0702172350235815 7.759517139911515 12.658149743061449
Hf 5.069801430036653 11.514526791103377 9.457482724514342
Hf 2.948862084755642 9.433503632890773 9.03689007574632
Hf 7.059995561999261 9.844597178615475 11.0284271465663
Hf 8.82431938849228 7.4540845473217825 12.224570895018111
Hf 4.665129956316589 7.131648687520108 10.294746218965841
Hf 6.752522124392867 5.2288903754630445 11.567831515905324
Hf 3.9326246340968063 11.11773165434403 6.867066723356302
Hf 2.664889260043546 8.709765912755241 6.348832460739088
Hf 9.837750539157492 9.35839819600833 10.215429036950542
Hf 8.027161857631336 11.435509766355509 8.8756689478863
Hf 5.751684392462341 9.113372069569268 8.084703866473719
Hf 9.521136730058627 4.769876273644119 11.64849869762667
Hf 3.3354748262533875 6.445003430797967 7.793869313502803
Hf 7.731803272181591 7.085712977848694 9.553662260144208
Hf 5.632963402025019 4.8268225782534415 8.8708408074482
Hf 6.843722885408183 11.13916795125519 6.135072178777979
Hf 9.501908926480983 12.332127927390738 6.554126308948079
Hf 4.78155022157914 9.211715557360966 4.721949829330823
Hf 10.831505881171049 6.66295429642726 10.0148727228685
Hf 11.190114266108905 3.917734122227858 9.50181542311414
Hf 6.0858917947301885 6.614466481010058 6.186619273287461
Hf 8.434791450033675 3.9790399479072254 9.156738457900744
Hf 12.067502436976527 8.699275080024648 8.331582246774682
Hf 9.614667404510035 6.306946531176145 7.112114149704368
Hf 11.029476339775437 11.31723909878484 8.558611491390588
Hf 4.3430838875794855 4.172384626294725 6.4399546505829806
Hf 3.5144721389157887 6.381278630670831 4.779844955903419
Hf 9.26321280112003 9.422649785550629 7.017130008374501
Hf 5.889189511197527 7.03044804382914 3.1877836425819877
Hf 7.340325721319212 3.9287343724490307 6.515602352398025
Hf 9.308259705993045 10.849633691847407 4.310408370881849
Hf 7.602023705474495 8.713815425959286 4.532211355499366
Hf 12.457302291763865 5.556591736940964 7.586792144234778
Hf 12.570128239258514 7.700289689885222 5.818625584251465
Hf 10.320725223815007 3.567228983203601 6.818573237526753
Hf 8.408090518550283 5.7824839673859865 4.391084902822334
Hf 5.761088665497305 4.516953835624236 4.139727608637494
Hf 11.339717690941011 5.416888518568967 4.892187600998792
Hf 11.748286359377436 10.476205730693241 5.886361955236822
Hf 10.43142820098419 8.200171318161631 4.22524668976793
