40
Energy = -341.52370686 eV
Hf 10.019466209521179 4.8530470062925835 2.346317202151592
Hf 11.021069058546248 6.624990591604709 4.41109162254945
Hf 11.253167185615533 8.071089999526667 7.325797791184867
Hf 11.673642813219265 9.093032520772628 10.041048503531789
Hf 8.85316437116483 7.426283958390231 2.533005750657159
Hf 10.748187342254171 3.7462423305958845 4.8239784185510315
Hf 8.926276796454056 8.609460744814237 5.296722520996304
Hf 10.412854973306786 5.409668338320978 7.140624512839247
Hf 6.797670418216276 10.069431963514337 3.867201390855896
Hf 9.595671448597729 10.196108416270832 8.50446956979849
Hf 7.336944798862781 10.971709311882874 6.628415600725156
Hf 7.175218869510133 4.985741447156273 2.0970948035868244
Hf 10.223307225349425 6.6625431178174725 10.011298778900759
Hf 8.322580766296491 5.545580366564891 4.728257611676694
Hf 4.851277654676614 11.658091676541527 5.229320694691283
Hf 9.0550060176543 9.030388736522637 11.049731735311916
Hf 6.135886352122795 7.332243541121861 3.403925693948115
Hf 8.342175587393248 2.7795888268748175 3.5561447724557556
Hf 8.391608511680026 7.606966671702779 7.987169392808356
Hf 6.838734145762911 9.723393130672116 9.368973865379992
Hf 4.6726949613929 10.89992819636297 7.885105343493278
Hf 6.56333813563063 1.0769291402229513 5.458171008305393
Hf 3.855052658310572 9.109739547357618 4.267230281633114
Hf 8.533005481093669 4.496100274860601 9.123653357773911
Hf 2.506021167555831 9.495148308304111 9.154369925488332
Hf 4.1017680934481495 6.267767339518982 5.069027794850143
Hf 5.943987329932795 8.486919775551037 6.120068736636326
Hf 6.467217076829345 5.486081443349818 7.1860925057338285
Hf 7.158119389178842 6.719126094233694 10.489854524214852
Hf 8.278950443423426 3.078808396440669 6.474837696189487
Hf 5.878117398898148 3.7294223968278977 4.806415816986456
Hf 2.4349419241583474 10.631933818641032 6.357064135593176
Hf 1.9818562523479626 6.633350111654763 9.274678986941113
Hf 5.7808693475620165 4.188235621364247 10.003178918859145
Hf 3.724289706490185 5.05898881561601 7.791225959151254
Hf 4.727674409211022 7.665453205770163 8.642236324719661
Hf 5.48306459484243 2.7022255256379055 7.622555422019975
Hf 2.4145783845113336 7.857747596938893 6.673138626548198
Hf 3.0123219113120654 3.5861339741428644 9.8830915124764
Hf 4.0935245709700325 6.109837013935097 10.967089141247712
