41
Energy = -354.02221215 eV
Hf 11.354113015604266 7.5512171542862205 5.209317817760377
Hf 11.363509314434909 6.925884406080741 8.176023373712598
Hf 11.426244691630012 4.221944010884952 8.87774876351503
Hf 11.554578235421403 4.648348292055277 6.080412825122635
Hf 10.466769311450532 5.493944913866136 3.456110662043391
Hf 9.335571640193864 8.787144634794489 6.786183062008598
Hf 9.27862887276407 10.80362903495173 4.704906981729851
Hf 10.095224782347424 5.884093459207158 10.93430470339877
Hf 8.908838788919693 7.964221024212165 3.584828240608244
Hf 9.239987696328127 8.337299915311766 9.548365844157663
Hf 9.540387417424707 2.7614458239420285 7.268485614655283
Hf 9.014462064824068 5.99807901713853 5.866183404503747
Hf 9.389623963708456 3.032590894383994 10.147917449184211
Hf 7.834232527405265 11.220478574468165 7.200758641728994
Hf 9.283478534535714 3.343605380156503 4.598167894903653
Hf 8.724498359192761 5.460833957461101 8.648088090150491
Hf 7.396189776081782 10.327510137027437 2.5551021963348353
Hf 5.748155257555379 7.805816721919581 2.7607455366562323
Hf 6.654470666311791 12.09977665745368 4.702998053178691
Hf 6.848677734422999 9.368206871018701 5.195671029998182
Hf 7.4141375199525 4.429938970525277 11.221973890377155
Hf 5.994429809557015 5.710182848474586 8.424273768847218
Hf 7.452493755384966 5.294166597469209 3.5162330202147745
Hf 7.2072588746593516 7.091035262236194 10.929879609300036
Hf 4.727470884896857 10.461737400506046 3.4739789866914963
Hf 6.265533017011986 6.813374939460557 5.709947646513659
Hf 6.594460957923798 8.700086571491651 8.388496224821175
Hf 6.781863394784035 2.8934001510732466 8.80846079045432
Hf 6.752835883762867 3.867718116946416 6.009365323750388
Hf 4.725225606212934 10.535815549201143 6.560227011455725
Hf 3.517891803209795 8.149658544309307 4.4865534796496815
Hf 4.061571499679046 7.710332410648844 7.405929920526081
Hf 3.9147259581385625 4.067458988697118 7.202602387211569
Hf 4.67200962950803 4.376661142959796 10.348065921096387
Hf 4.249439045193417 5.360741246481133 4.596934731809701
Hf 3.741608052511983 9.936442831953185 9.128876831742113
Hf 4.0954593472735255 7.341239706443171 10.539475426085833
Hf 2.0351147296121144 9.482143075264243 6.724384399205543
Hf 1.9171493176676833 6.294894715819136 6.41093141596395
Hf 2.513392427016698 5.452953722210076 9.11232157703104
Hf 1.6915753809461085 7.965034600595089 9.045260655696826
