47
Energy = -409.56553338 eV
Hf 1.8593826570953602 10.474611279238179 4.56738270643428
Hf 2.7031875448827796 8.08135278499156 2.888418090807914
Hf 0.8950235765464294 8.050975553803692 5.251643038865406
Hf 4.316095305821338 10.650263870753475 3.2985760458587574
Hf 1.9964875682847845 9.728346031484701 7.366918019725439
Hf 4.0925158718739105 11.432608508382858 6.062795978499266
Hf 2.386001584168355 5.7150952805455555 5.146779766314635
Hf 5.840143777689185 8.231035428603697 2.892308349138624
Hf 3.9194630832651427 8.541192968234649 5.318619648434213
Hf 1.3411623588007686 6.852236887408676 7.852497505716254
Hf 4.652514992284056 5.792969931884291 3.3051233914734
Hf 6.553414611733585 10.160265107819129 5.1713015419752795
Hf 3.010645575110228 8.499411586740425 9.738623681764222
Hf 2.6977967436184453 4.25565246067756 7.658119264401674
Hf 4.263908872083521 6.734904180935414 7.69226964229903
Hf 8.788019681172587 8.382930124731582 4.201062415701015
Hf 7.685397370668439 5.602707198678399 3.1117907752191862
Hf 5.339824893777489 9.60270749554554 8.14485007103624
Hf 6.5085619143128595 6.864021438606508 5.46500340644974
Hf 9.366989016247128 10.875985970151374 5.639659712994437
Hf 4.935353044221422 4.343270317770314 5.773945309928314
Hf 2.9952272256323624 5.707639655836583 10.054265854744623
Hf 7.551409827517068 11.377486521022062 7.77014433512777
Hf 5.426904062227864 4.273253713103058 8.811125191370486
Hf 5.519361401016163 7.280301338255491 10.400362171028172
Hf 8.061747291320524 8.673655309355683 7.199440167788736
Hf 6.935344440222172 2.8478122544681748 4.27208593780405
Hf 10.317664925365245 10.211603091635382 8.274708933990444
Hf 7.851755511428098 9.455415056292878 10.045137191670934
Hf 11.368384260921074 8.76848637153935 5.691426516949309
Hf 10.570541195277805 6.158300489939287 4.333403122984447
Hf 7.729706793852645 6.196557618123123 8.958118030798286
Hf 9.518913035237649 3.4646223029912897 3.6686641199971817
Hf 6.440842526949269 2.209825255095268 6.960809532484052
Hf 8.12395064473178 7.115673767698714 11.76849829240093
Hf 8.313889439777153 4.559769633745773 6.24613298493791
Hf 10.225309149428616 6.6922913513513596 7.549027152003682
Hf 6.888048252203469 4.696040190303857 11.239973556265564
Hf 10.426359609150756 7.98911226383736 10.343106260901845
Hf 12.508830965984073 8.329450822891408 8.272705060287475
Hf 9.182103090759277 1.8967423197280526 6.196749668335143
Hf 12.705918733315096 6.088589495671959 6.526496075329881
Hf 11.339684812650688 3.731624799531154 5.582387592092484
Hf 8.180405115142277 3.049071339629063 9.088130473882643
Hf 9.832151807638404 5.018137348916092 10.758105130491058
Hf 10.826889033282823 3.696877595806152 8.262023138743807
Hf 12.312774603242651 5.86982199559637 9.473785936587277
