43
Energy = -372.42023859 eV
Hf 5.505387800831002 4.3179501437580905 11.019945183942953
Hf 5.333952605105668 6.951221259830459 12.053318250180237
Hf 3.67148395804322 3.289219701155766 8.838113762571071
Hf 2.9513367258033503 5.873362281605396 10.472578933649519
Hf 9.454971647294851 3.4970753154319203 9.351363965639196
Hf 1.3345989246087928 5.035626498389363 8.105729521946298
Hf 8.096251611917118 6.137721732209098 10.67492476651725
Hf 3.910436790839862 8.747989471980876 10.302798827319698
Hf 6.7273757495598225 3.9924489427340775 8.485180961183056
Hf 2.4669047667069837 3.653460958376794 5.877270505125915
Hf 5.475139363898382 3.2504648405159795 5.948324656938644
Hf 5.538737711757405 6.6224866385744985 9.307217202575334
Hf 6.809645038733961 9.094567056302411 10.619308017902908
Hf 11.123405841458716 5.781696236778204 9.814202403726242
Hf 2.127690082008272 7.7066972899305215 8.322336167252343
Hf 4.013058152461052 5.443320762903516 7.15859115907276
Hf 11.395516496247652 4.302513873429031 7.153322212469317
Hf 8.623672361756727 3.1603716700772755 6.469112533349856
Hf 9.106476870580645 5.914928450143892 7.948905293927859
Hf 1.9105020687235452 6.572442840969637 5.59535347883779
Hf 5.262122160468423 10.336139349861881 8.10327029967647
Hf 10.397647245218726 3.816908422606142 4.398174266562808
Hf 7.451466064042036 8.227752144388365 8.050292715899865
Hf 9.96627788510202 8.397827848809545 9.4659578893017
Hf 6.646305767185007 5.948249027802301 5.91845708038733
Hf 4.401894577955156 8.023891329240856 6.501193014784128
Hf 7.665335706206138 4.2988155872414024 3.755076430655957
Hf 4.370993713025083 5.3471022345972266 4.229692920544921
Hf 9.368494849023861 6.57626600636821 5.131369352855233
Hf 11.767260084487594 7.287041708031909 7.280919246648832
Hf 7.997730031743693 11.093232363526145 7.743465068497294
Hf 12.228065181264945 5.813315683692854 4.7343061175392895
Hf 6.781049093256696 9.270703718393026 5.426116080703682
Hf 4.009085358728384 10.464008061388116 5.075389158696419
Hf 9.754561129964669 9.269795620480194 6.467402082727783
Hf 6.0782901895245285 12.116349801571143 5.812102865588977
Hf 4.4402756969330985 8.24399889036344 3.532989378164127
Hf 10.232585271881392 6.235336337044457 2.6105327532005678
Hf 7.013826070519759 6.913008338970001 3.0582215881644434
Hf 11.480105114095672 8.434212399774333 4.358652804023456
Hf 8.895139179706346 8.98648367405659 3.298034153424823
Hf 8.636914166268529 11.46856387626798 4.836344293119389
Hf 6.223514293507143 10.784584214917889 3.1744045293997436
