43
Energy = -371.8819524 eV
Hf 3.9877282188932166 8.769358861969863 3.778178640430083
Hf 1.961038776953534 7.34397989632324 5.367103004816917
Hf 6.909336182087496 9.696765046828052 3.1124015993617844
Hf 6.230500959473234 6.854556824508845 3.833120042936703
Hf 2.8715372720012393 9.839758564490523 6.1794290810447245
Hf 4.017049955971132 5.265506418757678 5.29691611892507
Hf 1.914655700838778 5.155616156808186 7.132551645886427
Hf 9.728897212235077 10.193495524220086 3.5248918385143595
Hf 8.954804211694887 7.375243602498528 3.1587378360142386
Hf 7.913581776714104 4.518571701458551 3.6526586387107995
Hf 5.413606843574526 10.84767117669996 5.461617584435613
Hf 6.3470382365396265 3.7295471727942378 6.134378761316073
Hf 5.127994462641521 8.004434701076324 6.29012050925693
Hf 2.515878605387667 7.734273425861314 8.149220073215583
Hf 3.8468264973101416 3.274813224768632 7.576465496729331
Hf 11.256272244695639 8.349177834592147 4.952091722625603
Hf 10.655981917041949 5.426562041777872 4.671135486774542
Hf 8.023834969797766 11.761800889342924 4.9410846849603
Hf 9.146697458778752 3.313552570228067 5.82617171565685
Hf 4.825063519082875 9.990938668127539 8.363211577758454
Hf 8.122353609672372 8.916161940574352 5.659216985138963
Hf 12.85788794571283 6.425680985418481 6.326279556905341
Hf 8.0137632698464 6.048093778775727 6.115477327912255
Hf 10.304359816876667 7.47423312786031 7.739092750772514
Hf 4.571711700560245 7.827071680879075 10.268748179767856
Hf 5.27393698268058 5.719471136142556 8.213691140970287
Hf 7.458711899313478 11.145886425649264 7.7135876208131515
Hf 2.9417737925935596 5.070017019644437 9.783282761373957
Hf 7.394921448142002 8.026226560543027 8.772666148303761
Hf 10.279989219150963 10.703939263906697 6.447635945359363
Hf 5.482421235210986 3.4689145226564726 9.978527812811846
Hf 11.041686442024155 4.535095050794581 7.53342393298535
Hf 8.095880327482776 4.288355475634882 8.485610321793132
Hf 12.764903914443156 6.4202990583024455 9.007902812184172
Hf 12.699157007449971 8.97780070737586 7.538758843721452
Hf 10.232204298957399 5.724921073899277 10.173335000754994
Hf 6.794864971513289 10.062054372543047 10.661226514477335
Hf 6.305416539607553 7.769978873357709 12.465829122121264
Hf 11.611885537807371 8.515503774783598 10.233966459849066
Hf 4.744014725688083 5.469331345148634 11.946564636304057
Hf 9.514352154277189 10.2854223350404 9.44520401444387
Hf 7.295282643954185 5.735145126771879 10.803608334250251
Hf 9.010983764397858 8.250044198731256 11.3389410017059
