41
Energy = -355.34855455 eV
Hf 6.424075614229475 11.65057964340105 6.8210482183844885
Hf 8.18937230550005 10.641246182412713 8.838434744115244
Hf 4.950783868421177 11.61543816777154 4.277826027436818
Hf 3.7259951431509855 10.63204848541268 6.631054641713725
Hf 7.649973978434063 11.357945972258516 4.16130030980634
Hf 9.158392179455296 9.69559568773669 6.019028354389353
Hf 8.047605329441303 8.377405659881894 10.67309427613714
Hf 5.376591432692022 9.48946303299783 8.804923199939415
Hf 10.283050184811925 8.842599176016272 8.785439202115342
Hf 6.073190090259885 9.121977815079527 5.453534715731278
Hf 10.27327369379813 6.2165096016803325 10.287104503670228
Hf 11.105852732268225 7.942811360605043 4.634251402701029
Hf 3.427449559726253 9.290020853769267 4.14227849237037
Hf 5.933667093518141 9.420140742030478 2.5481969040957138
Hf 7.675480561102541 8.020774503603578 7.821203137570973
Hf 5.418136915380063 6.992514313217484 11.53933795364844
Hf 3.5955192282629156 7.7163972516434205 6.645080257136593
Hf 8.917495138228029 9.096532077081172 2.9331474852634773
Hf 7.970896573662235 5.850441850849457 12.088705948855281
Hf 8.434653401177098 6.817409723207986 4.697094420297094
Hf 10.079389188265859 6.54277391316922 2.3248033031806967
Hf 10.224098720313247 6.4764262370543 7.167207176293722
Hf 2.984011880360099 7.8622509499076525 9.652008459321285
Hf 10.913956060815407 5.108045437196875 4.674465556730129
Hf 5.098250959917863 6.3883270241972285 8.757855912896094
Hf 7.192699440930419 6.6129494835615805 2.0569980365613096
Hf 7.836246459050276 5.3832025503560725 9.102993665520701
Hf 4.699414457195419 6.842918149900994 3.678258977867957
Hf 6.270230656117267 5.574714969971847 6.3013337231415845
Hf 2.318503002778241 5.518012437614101 8.18329092636895
Hf 3.3803054035570956 5.143928078832456 10.706566375195576
Hf 8.973400685098087 3.5658273751357683 10.937634647592432
Hf 8.71361402234384 4.221229463130676 3.1337177133699248
Hf 6.019443660521715 4.013877029752845 11.05910814752758
Hf 10.232320831962525 3.8504893560386027 8.441615656564018
Hf 8.622045770280963 3.8712008510137648 6.076760363169769
Hf 5.955804031060785 4.351050423747478 3.7004906431386475
Hf 4.411841712246821 3.4379797450678042 8.448060704184865
Hf 7.424937314672316 2.6071790055261115 8.573189198593942
Hf 3.6812858341522174 4.64518376568646 5.764350522044399
Hf 5.859191883591651 2.7066426642320667 6.034906711810447
