48
Energy = -418.20065964 eV
Hf 2.466678831062413 6.552355657163641 3.0318700240456122
Hf 1.870918687601556 6.401779547314746 5.9211252798901475
Hf 3.851499723883644 8.476711589539093 4.6445713151884815
Hf 2.0595192790662162 3.989588380816283 4.125124266575312
Hf 5.4807998199916605 6.927144312899968 2.4945402064984803
Hf 4.185279599288184 4.313611455918915 2.2514294096626757
Hf 6.760684613469292 9.69134745270887 3.3310405148281674
Hf 5.233311101194449 10.764782308880122 5.807775087925201
Hf 4.391449816568643 5.5514756920206025 4.83159924334367
Hf 2.951909764504177 9.049942680801504 7.503293872261553
Hf 7.769203597114245 11.961646084823164 4.654690052895835
Hf 2.7397966021445828 3.43339233252025 6.819492875810628
Hf 8.602400747682422 7.340830241960613 2.7533456107359884
Hf 6.814164634704604 7.31721268630859 4.946991116243502
Hf 4.6292099348838835 2.5085447092260877 4.528912195627696
Hf 7.172323057817314 12.4493886217174 7.318757452414894
Hf 6.825633835586745 4.47621226677946 3.5354630367588022
Hf 9.720702399730197 9.883691837175988 3.862214088756216
Hf 5.864331063517896 10.28594433710583 8.75348879564472
Hf 3.2576723392276605 5.99073041739968 8.53357707775263
Hf 7.818196144533731 9.770775910839122 6.510894903775056
Hf 4.29584300437048 8.141293918259072 10.214876997143167
Hf 5.311043642794863 7.765788312159659 7.30625462572221
Hf 5.405465054181791 4.313693178790323 7.094373374813032
Hf 10.001213913718441 11.619243086061049 6.421934988051281
Hf 5.2388382452453595 1.5732723064179643 7.255720146057123
Hf 8.699607238639508 10.89133911005924 9.298307209520356
Hf 5.73931552001158 6.836282074901497 12.570497194128443
Hf 6.22285424971403 5.862126959069453 9.699050592512204
Hf 7.99399078332875 5.3960816929965345 6.802050285399991
Hf 4.631995795509604 3.2905777623282364 9.644790973000728
Hf 8.144749840509856 7.984042919551542 8.69087827984401
Hf 9.821686042801122 7.422052841478112 5.879008688473329
Hf 7.0911624981868275 9.02607269026558 11.292250281586925
Hf 11.363754495029086 7.458781527815451 3.4387206172849645
Hf 7.433220047296807 2.6826935582104596 5.708672441637088
Hf 3.8346703269818003 5.39798826279509 11.368616497845789
Hf 9.884063773159099 4.9817884802634955 4.295984082581926
Hf 10.954940872589626 9.694425633579103 8.278557281145885
Hf 7.438476966968776 3.0770821720743493 8.686426627522302
Hf 12.141632491639621 8.993933067842638 5.783846397582786
Hf 8.337131535250752 6.517853515064699 11.915437190159729
Hf 10.054995252626751 8.408518452035825 10.664491540882203
Hf 9.368035094626702 5.446061734733101 9.477948809559223
Hf 6.486883281868893 4.1257648827858615 11.85186324336298
Hf 10.624483784956436 4.419363265712777 7.042196445445583
Hf 11.640516423798367 6.983856404561207 8.209957530549126
Hf 12.383908653885598 6.030737377307952 5.559703301770242
