42
Energy = -362.4613671 eV
Hf 4.175057720587765 3.523682449529041 6.101877439161256
Hf 2.8076755592892204 4.625223075817139 8.177650474151402
Hf 1.6788869732584888 7.129134270789439 8.684557931446243
Hf 3.292730814974842 6.197215173510069 5.7692897052048036
Hf 4.551882461224946 7.520150178227982 3.4724554632042595
Hf 5.769830952157999 4.7324762058956775 8.155177178614258
Hf 3.5700967498109653 5.73561652662336 10.6234983463292
Hf 6.837525579074621 3.199667672862496 5.77252413057258
Hf 2.721139704010128 9.92225429505008 8.53707208646205
Hf 5.024818943809894 4.690948802235964 3.5901794206901627
Hf 7.813253437474109 4.145970451672083 3.468679409313051
Hf 6.495640720889269 5.121088651501988 10.954440911647906
Hf 6.4425476801459745 6.359542239401512 5.490213359976317
Hf 4.128476360032019 8.960336978430444 5.829451948115243
Hf 8.45373353181124 3.202481676333369 8.273761395249185
Hf 2.8565855173305703 8.421778836374108 10.869302011223922
Hf 7.079392469192017 6.678186198141607 2.5317811238694716
Hf 4.434326061130097 7.498923009054233 8.34401630717379
Hf 6.701703841982369 8.035397145317969 9.993877038222083
Hf 6.775554454434894 9.258341725862287 4.341866597124655
Hf 9.243099312596271 4.947339202875526 5.946925861132908
Hf 7.398482871738743 8.799549877604539 7.272781778605104
Hf 9.415772162952997 7.964232511148423 5.224954271707206
Hf 9.928582906121873 6.1198628267193955 2.9992469455529585
Hf 5.242743646001358 10.825450015436884 7.615387928687848
Hf 8.505151377996336 6.166776767046258 8.770208460506474
Hf 7.746396820758938 11.48485405725517 6.2095169946986895
Hf 5.255047752543445 7.497230978271557 12.235093085947177
Hf 8.94421019149688 8.915808704833957 2.408246914310741
Hf 10.960609216687061 4.586171813272568 8.32852027434846
Hf 4.906054214984522 10.292988880419413 10.40068345804002
Hf 8.577119385494232 6.824244163112474 11.758538043141755
Hf 9.366594940591707 4.203878372626813 10.766243850968369
Hf 9.586149084648453 8.939909287510858 9.891826356744211
Hf 11.547300555668684 8.464600012791577 3.222596668937069
Hf 10.101447230477458 10.44282624667607 7.399846076323803
Hf 7.659428936621355 11.096426416796476 9.025951134666899
Hf 11.863965503277985 6.348957798065121 5.243198714993367
Hf 11.06927331343681 6.415912113982128 10.480992802383746
Hf 10.04634582446353 10.664985041049146 4.46063732899214
Hf 11.18534984878674 7.526710830141443 7.844490576696022
Hf 12.183960206174167 9.163955505962418 5.74705570054877
