43
Energy = -373.58064074 eV
Hf 7.857887952450944 3.331271252762812 10.895162959183606
Hf 6.748830993262123 1.769447387330195 8.81500522648303
Hf 8.734091692345633 3.8836938806234516 8.11039579646624
Hf 10.71712911624294 4.977416523600035 6.2024514715468495
Hf 8.828703266333342 2.803665801403557 5.380951943573452
Hf 8.165440774734515 6.328090757515564 10.527078677611327
Hf 4.979154062107883 2.627408999068206 10.817867921692757
Hf 10.745501127771984 5.666887284422961 9.159715160314112
Hf 6.131983624718919 2.433626175339836 6.144799367860805
Hf 6.062246703117733 4.682016629505754 9.093599818790274
Hf 9.467653864600756 4.723423857922876 3.461791264201982
Hf 5.866483976431171 4.9918492150413565 11.99743892001874
Hf 7.862025387590332 5.54667694618351 5.632011895840413
Hf 3.9765200663659828 2.7376833362528865 8.015868451477466
Hf 10.28402197388143 8.323081976529286 9.817226406691827
Hf 10.102126708045278 7.379836856244498 4.639869690274057
Hf 6.486420856279034 3.8896763352998747 3.6872610257808747
Hf 7.488232299307342 9.23743141629366 10.04122253131074
Hf 11.444162530932976 7.816533437983825 7.229865784540388
Hf 8.683703690011342 7.260913653155601 7.722290064368139
Hf 3.410802978015423 5.0109909121180785 10.206423017374961
Hf 5.043892397733433 5.279966101546501 6.343607288022443
Hf 4.984451116566256 7.477774551730375 10.92432884749304
Hf 7.493793540983218 6.746253626926044 2.9229526607155942
Hf 9.572661883714062 10.124969625002322 7.602641099556665
Hf 10.542819143187872 10.495824605836242 4.620184722425519
Hf 2.3325358265676166 5.019900932934376 7.448502070349167
Hf 9.291221016347412 9.047758598653932 2.417041111491149
Hf 3.5937641599051684 3.6039773927496777 5.00426299606215
Hf 8.042397377005184 9.412792282955323 5.106902398002195
Hf 5.764606501424262 7.744614935900174 8.062694479561149
Hf 6.617189597321464 10.629411273914833 7.5517079626476304
Hf 5.745198423075624 8.05356935126673 5.126335073425042
Hf 4.6468601298113565 9.89016099029638 9.510449740038935
Hf 4.54158680131634 6.204681087633851 3.4331489753143183
Hf 2.9294089440025934 7.612375483670868 8.721651466389423
Hf 8.459869749169721 12.168482742486836 5.825425650663915
Hf 6.346119792681511 9.445767803887554 2.4311032888919764
Hf 8.218165681339366 11.545547740185464 3.1023187068383318
Hf 2.9515554533755335 7.260376855242753 5.669477736570661
Hf 5.745656226878451 11.346066931896301 4.627627190687729
Hf 3.8640850971473046 9.874119621914849 6.667207350450702
Hf 3.694046142221523 9.337810563597358 3.7512865726421256
