46
Energy = -400.33942753 eV
Hf 9.799963542314414 8.55634529992991 10.498970865776563
Hf 11.498400552965462 7.86497977393707 8.102826682643082
Hf 11.396717243095178 6.137617772492213 10.41984452082464
Hf 8.725280655683772 5.921414981053044 11.709554378973975
Hf 9.805010252682267 10.425354379920282 8.143797339128504
Hf 10.151222433373766 3.7542693697853564 10.234205076456398
Hf 11.307185883176873 4.8464627496691275 7.713568457506634
Hf 7.111335605443583 8.592358673362883 11.837620116274088
Hf 8.149604275428537 10.976850731108168 10.442079946510994
Hf 11.313329584034543 9.62565190089816 5.780210243373612
Hf 7.260423815732816 3.6985675315830058 10.154137128644384
Hf 7.114372835238587 8.697375667544355 8.964255233352475
Hf 5.62793436307483 5.771323580021574 11.596214099825854
Hf 5.705196801421405 5.96674152221099 8.711740324483886
Hf 8.938808705595955 6.013814215400215 8.878479728532811
Hf 9.920679839486908 3.947316017284066 5.047707740508277
Hf 4.450966457488068 8.244594469601989 11.01586794941443
Hf 11.335211629954815 6.79122274912017 5.283599901312518
Hf 8.953808577921874 2.9440604415735363 7.732999587535619
Hf 8.712303586658502 10.870762610749575 5.323971892570532
Hf 7.105606385217779 11.7240091021995 7.757188027618014
Hf 5.381096479714673 10.774955934387028 10.002373039753536
Hf 8.984221539942912 8.026791500437753 6.511539766377681
Hf 4.340024060280859 3.70816525800332 9.918219430653817
Hf 2.9731212156665654 6.150779461692714 9.694208056759837
Hf 5.883893309680826 2.959680221671657 7.592373321227918
Hf 9.846824505593956 8.788527188294688 3.438977804256907
Hf 9.768882994892055 5.991354235743692 3.008650691844078
Hf 7.5148265530086045 2.3802000233254827 5.248961826204242
Hf 6.0762368128816515 9.296087967949424 6.171387202466046
Hf 7.545945103995932 5.118783150609627 6.250470321598054
Hf 5.693197374824246 11.590418175184682 4.84349818908353
Hf 4.792009647662904 6.826865364839136 5.975801649385237
Hf 7.49638311451742 4.332787646468989 3.114188028769038
Hf 4.283853908646082 11.40115879775289 7.33052148848199
Hf 3.7942370282116196 8.766305944900857 8.36623456088117
Hf 7.279093494594081 10.021339184692435 3.0054781783019027
Hf 7.33995186172479 7.213844188697603 4.234677221788884
Hf 3.2636802340877624 4.445493904586351 7.246398061970648
Hf 5.048146661369795 3.896892418349258 4.8363416776355
Hf 7.392386295262338 7.33335795270846 1.7106939881285828
Hf 4.819988244115293 8.592349766486263 3.3351205054317616
Hf 3.1541594003995286 9.292520126941548 5.580049865846929
Hf 5.043329214156569 5.803583977736434 2.7272230214321325
Hf 2.7368945783549092 5.999249569239993 4.466076791485734
Hf 1.9809189132030722 6.997241002287126 7.0344072884820275
