47
Energy = -409.80178907 eV
Hf 11.445049957944535 7.534505634937947 7.159464764835808
Hf 9.402326108720997 9.984230953174865 6.431058885062612
Hf 12.649801849333924 4.990847331317517 6.445559913133145
Hf 11.109629599501133 6.4797645684562895 4.539033931352872
Hf 8.460665318943681 8.142205303388709 3.027245286154255
Hf 9.287323972192711 10.921322781704086 9.054557511578183
Hf 9.305426401172422 7.8060406618718305 9.00030941907995
Hf 5.857255301784897 8.841310503694938 2.065170094046568
Hf 11.481966646580894 5.16798897461318 9.169616853504145
Hf 7.257394787279275 11.97663615456239 6.995289379555287
Hf 6.707950798618171 6.090859687151234 1.7373129595957206
Hf 10.740649547165415 3.334022720592354 4.709227963178873
Hf 6.851320020571476 9.830148228702276 4.855460981571379
Hf 8.547608759038452 7.439601217873278 5.9610676610994116
Hf 7.874517559917333 9.540262700479671 11.065978142351046
Hf 9.865020853981386 5.03905790357675 6.785547239392341
Hf 11.44223109254587 2.724958781177238 7.476442955832683
Hf 9.252917717387096 5.64190819693622 11.037653346600136
Hf 6.99033746600842 9.3316303107989 8.265226418469798
Hf 8.753465668584125 5.344219801655344 3.595700442493452
Hf 6.74555327657687 11.83672029076376 9.811502828865823
Hf 5.986514635597165 7.09074606026872 4.367187342102313
Hf 3.9985847355400876 6.658776661505449 2.327460226217135
Hf 7.892535969785713 2.5856537055157984 3.7793291821889885
Hf 7.030986899633765 4.422204728712924 5.865910298884734
Hf 4.9009630458638735 9.76683148715184 10.449990671754355
Hf 8.735412599583123 1.987098540836277 6.564342809313434
Hf 4.769976112042847 11.746930571077295 5.236662673052146
Hf 9.374959907063854 2.995664426114934 9.489228146468587
Hf 7.648847969389873 5.247652676436531 8.675490832804304
Hf 6.56836205497962 6.9871276969750244 10.638695455139528
Hf 4.407895838580191 9.223342603081786 6.677144418015039
Hf 5.259539766495968 6.778464450763611 7.748071278475693
Hf 3.634455281287244 9.149422738675684 4.004315335750544
Hf 5.206374673195084 4.179464255761662 3.6589291699987734
Hf 4.4028834044859515 11.76257813943935 8.155324251242641
Hf 5.889578940084613 1.9117449146275651 5.558731921893603
Hf 3.303830099931814 6.2404009810005014 5.178268391120964
Hf 7.079707607426194 3.9024614937240645 11.055295322924247
Hf 4.243986569031253 4.048873945718323 6.767423819397376
Hf 6.457653113632303 2.496785233803723 8.45943995400123
Hf 3.670044543287889 7.263124009587403 10.33997626165226
Hf 2.2754635522570896 10.947843900955908 6.230920601464997
Hf 4.688233290080922 4.701587818170067 9.573125228057892
Hf 1.5787868075741518 8.266234952252525 6.07358654146181
Hf 2.3656669977006626 6.296999346699576 8.064232700121547
Hf 2.347088663954937 9.323185863457816 8.730987701434753
