42
Energy = -364.21603342 eV
Hf 10.530801343944786 7.504578778207695 4.862956857068453
Hf 9.458519444165727 10.23672323475086 5.745184488334362
Hf 12.038941317854347 5.895164179371038 6.8517203026373315
Hf 10.63422892592361 8.36804564108225 7.608636536698641
Hf 10.70395516352698 4.5283744010999225 4.621858178378422
Hf 9.259782533894255 6.226117281130198 2.672956886260661
Hf 8.272140902053302 8.908142340041627 3.273298277296894
Hf 6.75431092481628 10.76795024401345 5.0220573740536585
Hf 9.900076593644314 8.704355762978473 10.271158421723031
Hf 10.596987011602886 3.4030048143029394 7.630457354015703
Hf 9.231050388219304 5.586923728637391 7.0282849008855965
Hf 7.766007265479521 9.761363559062437 8.457104718569209
Hf 7.705402208984526 8.054603046902493 6.007530630375433
Hf 7.6457923270220345 3.745700730189738 2.7107896137077274
Hf 6.411052170692132 6.620618739230608 2.4167202135273094
Hf 10.907692154512379 5.912675805293356 9.514045984731705
Hf 5.4998835608130765 9.3879154843407 2.9049319539799776
Hf 8.987133388178302 2.510484742900999 5.308434171540146
Hf 3.9208624702876063 10.337312025795852 5.189930126262816
Hf 5.590939925167068 11.600289247270034 7.5107327070013525
Hf 7.537717385108264 5.182973833045391 4.912797498943703
Hf 7.281761668841235 8.585082690073337 11.548583625270588
Hf 2.9410435658746685 10.822396398010875 7.882968856664712
Hf 6.299763535485156 2.4492416504194647 4.944739292875379
Hf 5.018964983146877 7.405133836027151 5.090807603453006
Hf 9.302318213331342 6.479068823488541 11.834624865413618
Hf 4.856360136543953 10.26328451892586 10.053171571750923
Hf 4.948042517198788 8.740490242674912 7.703734544145496
Hf 7.806745766514611 6.875300065017836 9.395847366768312
Hf 4.739676085196131 4.610924387253071 3.765653300597225
Hf 5.999693704105261 5.835869764556104 7.2677404319560175
Hf 3.230802950873894 7.490881096407901 3.3533779894397515
Hf 7.27622912882489 3.0797973436078747 7.610312944560317
Hf 8.54514804713353 4.134663683778467 10.127879017245988
Hf 6.725285778515974 5.656660028874656 11.90434751091887
Hf 2.2131685257564504 8.274298426019541 6.432409156130486
Hf 4.78160033620113 7.263132524356258 10.502262726707958
Hf 2.508794169649245 8.62409473776189 9.38954651316012
Hf 2.6490871595252052 5.559588515385103 5.525857462480907
Hf 4.386091381933103 3.6129728116463338 6.644523584356835
Hf 5.4925543941588595 4.400476926889565 9.677383586092095
Hf 3.147332060606374 6.030071112729107 8.291716705842942
