49
Energy = -427.11486592 eV
Hf 1.7819810095791102 6.67070833754291 7.783040976765134
Hf 3.052636677864891 6.865775575717472 10.281807957182654
Hf 2.3900980131390637 4.197486921310609 9.305529082232834
Hf 2.2865371784805153 4.4038136038500975 6.325933671914692
Hf 3.7549163393189002 8.949347279719374 3.1435139036276087
Hf 3.670455051436444 8.847603799678314 8.140527925628424
Hf 4.786340774241508 4.828121508891452 11.460690670165501
Hf 4.011742466093179 2.404195444355193 7.360484434834592
Hf 3.5944816878894086 6.988839435514024 5.471446795745045
Hf 2.8296418511435193 9.87761150713802 5.650346775183044
Hf 4.827445760174325 2.6735372385407414 9.843077942587987
Hf 4.44487452676088 5.5849878542890785 7.962463978834895
Hf 5.565929925297026 7.743103791414395 10.971732916267063
Hf 4.653177389681255 11.492523634098877 4.20212613040379
Hf 6.192276056133637 7.00183661112705 3.176270389816834
Hf 6.362225358521303 10.085354774992512 2.3894758691602505
Hf 4.731698938407695 4.215095259498739 4.845903881813529
Hf 5.843755578422198 11.154339902267411 7.067594739199367
Hf 6.903190305638853 1.3609670953412685 8.364480456974595
Hf 5.521153007821971 9.015544337924357 5.307800316658235
Hf 6.798617234986532 3.786853877938344 7.020456594851037
Hf 6.927261734605056 5.468119300414521 9.593566111229899
Hf 5.920871423565844 1.553015094947633 5.478686452826344
Hf 6.207291355120954 8.070195566084609 8.123599902178531
Hf 6.933052542155829 6.267161371996875 5.651064552677466
Hf 7.456162125452425 3.1102355001198334 10.90447544257444
Hf 7.484692116956042 11.853927818512197 4.658488682863812
Hf 7.40395169226842 5.845537656153215 12.27758150215961
Hf 7.027128466986948 10.639723120386229 9.55650756215467
Hf 8.619709415233547 1.7940294780789192 6.089292525501763
Hf 8.523007026545093 8.180678062527702 1.7021002517796113
Hf 8.365976206481045 8.79681708760574 4.52173946562264
Hf 7.436003597945502 3.7078086874631557 4.099671455497498
Hf 9.45983210530629 3.1499804521496046 8.559463110349498
Hf 8.528835106808094 9.401586957699797 7.425122682694212
Hf 8.36413926315925 8.104475609403883 10.400209245384357
Hf 8.954276576248345 6.274971047541005 7.727581497584036
Hf 9.272183662941485 6.210345409619217 3.7431872051884527
Hf 9.099995693188045 10.809082182543737 2.5325482956363894
Hf 8.895077510408065 12.122566926482207 7.370032430669827
Hf 9.749300521441802 5.331433113064165 10.428246009060107
Hf 9.912858922530775 4.212219141694659 5.735496149674967
Hf 10.358994449773014 11.114733640536036 4.936881874961132
Hf 9.882411310565267 10.592473429986875 9.655743773384703
Hf 10.889638318410714 8.698552177551424 3.1704557793771277
Hf 11.509326776787388 5.186984446337246 7.889741123036762
Hf 10.947956790787568 7.935087976425572 8.89437326611994
Hf 10.870207469273726 7.490941312300324 5.921952547909493
Hf 11.315627204616291 10.217427082218265 7.271312020980288
