46
Energy = -398.1541498 eV
Hf 12.133006107517987 4.699237473469754 7.184075815966208
Hf 11.614763838135485 6.885798379199045 5.579506270543745
Hf 11.030286461119166 9.5695906002368 6.875238716723898
Hf 9.433398258913849 11.252441387195093 4.86824555326395
Hf 11.353444169486547 9.272478201824843 4.045256042372805
Hf 10.666250268283477 4.3440866046969004 9.61153293314797
Hf 11.22247424982215 7.11837198991528 8.574650434726895
Hf 10.299983797635207 2.6549196100696606 7.369541084987768
Hf 10.431867237373305 4.180621747865351 4.853615637218488
Hf 10.022168156236518 6.828684731692643 3.0766528170617904
Hf 9.423364362831842 11.640649580200614 7.974855272427772
Hf 9.43093073218331 9.397340780404772 9.634884038071991
Hf 8.860839119591823 6.457717203979857 10.173873209567072
Hf 8.767680216728044 8.33218546448302 5.2390737564679
Hf 5.475449733269794 3.17134489244177 10.22900180201226
Hf 7.28367446401996 10.793145226438318 6.63106988178732
Hf 9.138416324233004 9.597624288135776 2.491548508636671
Hf 9.227966191709276 5.537709258033887 7.113408145975809
Hf 7.212746490449442 7.659957200731031 2.7298606121816356
Hf 7.834943132393255 3.048538669378539 5.974944859081585
Hf 7.98814789103628 3.328512356706514 8.953820573464148
Hf 7.0334401472561625 8.09583322162128 8.305007632923138
Hf 7.719898668368966 4.241356609712317 11.608655326743929
Hf 6.702573644831666 10.156112891897637 3.9644330139313575
Hf 5.798534043506135 7.663662627035679 5.483801895047668
Hf 7.210619135155585 8.594557187741913 11.217758922257914
Hf 6.793481508506417 10.852449618751047 9.45842786515496
Hf 7.608620787644485 5.367774255172772 4.36227087471078
Hf 5.829576318478692 6.097810068096672 10.315540086180846
Hf 5.282336761706846 2.2182321417175768 7.492937776039955
Hf 6.106005760781802 5.0430578310989125 7.344804254392745
Hf 4.739043553273616 9.830768192953165 7.304235660613144
Hf 4.136773293524365 7.046509169459087 8.094381593875923
Hf 4.629228695837552 6.07884275410319 3.1545128179232824
Hf 5.036208360364388 3.560916120853172 4.905878671510686
Hf 3.4510166682763073 4.247033777823868 8.493817427101657
Hf 4.666113524995966 8.933491771725775 10.110960919818849
Hf 3.0254077012284 5.891077979804371 5.56609805424765
Hf 2.6471562764993317 3.8749692936944986 3.4390529507151326
Hf 1.0315892443750654 5.692654220150411 7.5854539514889865
Hf 3.17473170279086 8.637892273227298 4.476486214857967
Hf 2.3318674507576507 3.0662526065556297 6.190435063217949
Hf 2.0012428818875785 8.588552074308646 7.281462672914403
Hf 1.7395956591819133 6.500864210194175 2.966611214363294
Hf 0.35438879835601345 4.774169450494505 4.8900780231732455
Hf 0.566030516626629 7.541281780088723 5.267509894812333
