44
Energy = -378.87769113 eV
Hf 10.828675601336787 5.883942873422644 5.504932692470339
Hf 7.535916272462069 1.766264866848792 3.9758944245359986
Hf 9.83876597637098 3.1382861370742 6.482601635445541
Hf 8.979950846081362 4.238169226382773 4.039684614945305
Hf 12.661702020022899 7.241144261841429 7.276982383844302
Hf 4.861743556902862 1.9471505268747693 4.6183010362454775
Hf 10.946617236585944 5.173995504718936 8.40119240706703
Hf 6.907021772913916 3.0264411863164833 6.387890523600193
Hf 11.240308826135223 9.063565947595764 5.311358219938274
Hf 8.319400713925553 3.5847701709758493 9.115137594967255
Hf 6.166253678630226 4.299705863578614 3.635190168359287
Hf 8.269014551026475 5.51437898790513 6.660848502660193
Hf 11.588487817006165 7.791066252573315 9.968805023359137
Hf 8.318416709004216 7.245478175883317 4.3400178034138825
Hf 12.146979833690128 9.857819471281585 7.944443600563493
Hf 4.087871581088079 4.096619852275303 6.676718031009179
Hf 9.268846051314677 5.84300889382437 10.720776028714047
Hf 3.324433989294377 4.602927430554478 3.9669350134550156
Hf 5.470840293442101 3.249602556794583 8.95975011731909
Hf 9.921360153646795 7.951610022413479 7.518047145440389
Hf 6.1927069238577355 5.044462593202225 11.08418889206185
Hf 5.337143526528206 6.540994303302631 5.463216755093833
Hf 4.324762810063227 6.94065674831097 2.668494002406569
Hf 5.94051368799446 9.1559079623826 4.236250408420215
Hf 8.62257987755324 10.13519560609165 4.539761714189116
Hf 10.188007260476436 10.479665117523378 10.020442717830484
Hf 9.679567300056208 8.464555372250944 11.985273577267899
Hf 1.5195852986279523 6.684101812036005 3.2455391469147137
Hf 9.705217928073319 11.03041851644796 6.986238220066301
Hf 3.718038084411682 5.43276987907863 9.38033783856084
Hf 2.2513446909767536 6.205225840767545 6.06948385409513
Hf 7.246882399471837 7.381682758291761 12.24946005012573
Hf 7.957677894124891 8.448555059950493 9.601984678955624
Hf 7.0334396572408675 8.779625817399257 6.776366120545886
Hf 3.1162078135722178 8.638714930095206 4.636645383053645
Hf 6.307415989955868 6.152516106504801 8.51111261121843
Hf 4.515250065848517 11.444218726149357 3.9010842455652366
Hf 4.019271317072302 7.960583167181646 7.689663750419273
Hf 7.37203573685548 10.240983156392605 11.548511395601613
Hf 6.6589129638553315 11.596253095602238 6.1986575688005
Hf 7.792735050287667 11.553485352428417 8.975110184215211
Hf 4.9314476842682105 7.819028762508974 10.616110089769002
Hf 4.079009370412827 10.57309325012529 6.45327472828993
Hf 5.4181447635239595 10.313253677828344 8.987131938458912
