43
Energy = -372.56776261 eV
Hf 2.7052446063246034 7.951809764859467 4.990079013900229
Hf 4.295017495049536 9.83514371856764 6.925941472334316
Hf 3.962253571230238 10.408490287430512 4.032686223323533
Hf 4.094819468758716 7.473524219612155 9.239937669169827
Hf 6.617727741642423 11.67301062743713 8.00793265140779
Hf 3.9068920066546178 8.085017625588472 2.3435275181728668
Hf 4.805137377571518 6.322747442292597 6.588695856943796
Hf 5.478193421194762 9.950952936962885 9.913902736748593
Hf 2.5755952153838453 5.249448282263523 7.767671327060375
Hf 4.041069531060634 5.665905998569266 3.8987700443764304
Hf 2.7868167340453947 5.105775335173809 10.64488308189372
Hf 6.736514128600668 8.879326147627634 7.535465805127016
Hf 5.049552796459755 6.187325355900347 11.768684970862074
Hf 6.570140721738538 10.993823453720934 5.228442548169639
Hf 5.583209629363372 8.161814415347061 4.664526582514726
Hf 8.49475626409631 10.049704054633944 9.633014103873604
Hf 2.9900884120369757 2.797508079236895 9.04944371241486
Hf 6.3526138350665775 9.688259998532953 2.3789423946039316
Hf 7.027563697100185 7.367565074274407 10.018633727729934
Hf 6.358505700207836 6.499886574981794 2.25051309711791
Hf 9.240177524692605 10.900095216079038 6.925119698632025
Hf 4.488359428892775 3.27329494201755 6.5391782675291115
Hf 7.395234585608397 5.685299568473486 7.44717963225435
Hf 9.312517065180622 7.921017404947768 7.398032834151786
Hf 5.294241849268934 4.61004466559059 9.179896494061758
Hf 9.12321892886892 10.127148935989517 4.025883390984416
Hf 8.630968098791515 8.039256928276425 1.8400944378858732
Hf 11.260817512585293 9.406118219150457 8.665452510908265
Hf 5.396591070079935 1.5992492856922491 8.828428746185185
Hf 8.48707733776566 7.279692846419681 4.708519941944998
Hf 6.762459608078002 4.770446393523743 4.757973036909053
Hf 9.929404052117203 7.356567298215579 10.140967592837486
Hf 7.3833034778577815 2.744475633523748 7.086865113540554
Hf 4.974387610993626 3.1182321138172937 11.46585695875809
Hf 9.41827322262661 4.696823697822265 9.092096361458951
Hf 7.4946687904108575 4.895341181587382 11.485220747644695
Hf 11.512982370435227 8.990676915499476 5.797672203141637
Hf 10.93039776801224 8.052168766225362 3.1355071749020125
Hf 7.611407798975552 2.6327040280335576 9.981788156457378
Hf 11.69431036740005 6.587254061447891 7.846288031054444
Hf 9.585033851236082 4.650571869462349 6.016427395953365
Hf 9.520393482622062 5.42219485248943 2.971011131264665
Hf 11.54486456748302 6.204270252545573 4.975238010571055
