48
Energy = -417.55277143 eV
Hf 9.958892602783692 3.039670830231836 9.549175743771874
Hf 10.389850006867546 2.4275745482105506 6.652967387975556
Hf 7.775357323907816 1.7327318370550708 8.059151451787498
Hf 7.904229639148377 1.6378960179909186 5.176944301162986
Hf 11.916661504881919 4.494614067569812 8.228547267638397
Hf 7.469757570942798 4.555255144721058 9.861033257828002
Hf 5.177169789869631 1.6150170346331922 6.369362984407019
Hf 10.076978983398483 5.986886320927971 9.97350929783174
Hf 5.242411707004102 2.92047543926805 9.03951124253945
Hf 9.350436263469142 3.897397296678105 4.153069951932671
Hf 7.259430675175771 6.776536370999106 11.728970879840007
Hf 9.17950851169736 4.920545805781953 7.3990364007869145
Hf 6.598489807849222 3.6774818927270068 3.385209469669559
Hf 11.572081415341392 4.969916667524031 5.532175743337749
Hf 4.9849082201479336 5.299540516848187 11.196088097983582
Hf 6.537086230578146 3.871972474321909 6.4363366730185625
Hf 10.933898548328413 7.21098432140778 7.380517137012624
Hf 4.668405588258632 8.0524569849753 12.177696622145707
Hf 7.374855579116143 9.42430783774591 11.199200451666753
Hf 5.301960297920647 5.819428034215397 8.061138587731381
Hf 3.30484566212783 3.8248108448273217 7.374635929978543
Hf 4.050776403220461 4.314259282046316 4.655644531941764
Hf 8.023529576017532 7.577093237613514 8.678128990741227
Hf 8.193198311288269 5.950985021103452 2.3676166307758697
Hf 7.5036171588011396 6.181011192863247 5.101533096051301
Hf 10.025591730140244 7.232610226792143 4.381560792588726
Hf 11.370602252200438 9.606310508218925 5.7996513667148015
Hf 10.267668178897196 9.734928566351165 8.456033501460041
Hf 2.5047935198401112 6.642325334754446 6.944779956506171
Hf 2.8955196595390045 6.199149426803667 9.795901799916413
Hf 5.230832449152456 6.176973768434819 2.570099949213503
Hf 4.806717379221024 7.168735230635438 5.271421225009242
Hf 5.3848672290010695 7.952330870290488 9.689375500459084
Hf 8.41231777223904 9.184523567691352 6.100000998136534
Hf 2.503157188928778 6.664225316113383 3.8567643729683403
Hf 7.828499659411996 10.864477358765882 8.793612002322133
Hf 7.030168461444179 8.581692400532628 3.4190560701177617
Hf 5.414514899468854 9.43382545687386 6.896787531801503
Hf 9.696325496368388 10.11385893638875 3.685002316939069
Hf 4.083086659888183 8.798319054103192 2.9214686568127166
Hf 9.48199459454555 11.78584861988055 6.307907785566714
Hf 2.5447522758464736 9.249444281357793 5.413416126963001
Hf 2.873787922474561 9.112991779055875 8.453773508463492
Hf 5.032941112612353 10.892585799817443 9.405153303437704
Hf 4.70508455148535 11.063929395705857 4.537543169645118
Hf 7.440852359274507 11.524162883021855 4.230663635350552
Hf 6.313656981374372 12.214228623853739 6.822632188953156
Hf 3.464538559842583 11.541771150008033 7.032391577459481
