44
Energy = -381.85109997 eV
Hf 9.411276361566356 8.98808325963054 10.439451704577483
Hf 6.408873584881985 4.536424866481806 10.802858036099115
Hf 9.10260830301559 6.027730375842653 10.248408266776275
Hf 8.810145826510352 3.1393322499499043 10.457250512045476
Hf 11.133188999825133 7.433107035965884 8.791636678128537
Hf 6.78721996020078 7.651526706066264 11.079274311142411
Hf 10.981506071472714 4.046775865276344 8.890280897341203
Hf 6.938587510899238 10.313983482061436 9.612883670293687
Hf 9.14145356137189 10.819807526588399 7.7760634920601275
Hf 4.125510627006182 6.3017259951357625 10.635352575725786
Hf 6.527983043834014 2.210357465967824 8.72545006971814
Hf 10.607405621381686 5.865148910464078 6.479888842558505
Hf 8.247970066492273 8.061569384111438 8.032660406678659
Hf 9.306093953320737 1.6105220442096626 8.292205108284845
Hf 4.51407375078476 8.802972431726731 9.187869955039053
Hf 8.326094307019376 4.3361889946684995 7.688003392609777
Hf 5.983936464597854 6.317323221389238 8.561859127977401
Hf 10.76417306146428 8.697866646310453 6.250765592769981
Hf 4.375981324613335 11.594614832101701 8.413958090284426
Hf 6.78572188709336 12.807028658781928 8.03886640157027
Hf 10.640042104049893 2.9428377731141593 6.291889455321768
Hf 4.128630679860948 3.9350045004031533 8.900653685649775
Hf 7.778021508219336 2.0062767469875005 5.881028591618258
Hf 7.943081257917684 12.640078476059875 5.621948838258551
Hf 7.805844207953693 6.795413205461471 5.324139081667227
Hf 5.148845055169352 7.695474822170377 6.028882365762881
Hf 6.3531519272467545 10.29301894725222 6.574353522782923
Hf 9.116377590569272 4.3092182394042595 4.404855857377923
Hf 4.764586238475731 2.2683237408261925 6.164556810285403
Hf 10.000815679443479 7.2669398427740255 3.713369199711188
Hf 2.61442279974498 4.219929452666738 6.541274518048067
Hf 8.734198520021453 9.832709660890853 4.841570878189392
Hf 5.452380325001062 4.942181218536975 5.867998097497035
Hf 4.8910135948846545 12.489527481092301 5.671580562577333
Hf 2.976272488218737 6.733834315027732 7.919365984893771
Hf 3.245144182547144 9.712734314563926 6.603402775430161
Hf 6.644578879730617 11.470540957289895 3.572425556151251
Hf 6.971499509961169 8.548492064750743 3.0506589594625875
Hf 6.362175603830251 3.4542641868734454 3.581461775702839
Hf 7.732950207197557 5.834267822981868 2.484881804267151
Hf 4.500242644057574 9.680729329391335 4.031260375671051
Hf 3.579705974805309 3.9148211473968075 3.9603943535719948
Hf 2.784277469237507 6.582872411783901 4.931940465793087
Hf 5.049747585608063 6.330115496722189 3.1420479640597763
