44
Energy = -381.7709589 eV
Hf 11.64081769377893 4.33156590033225 5.174579545991041
Hf 12.783162724060913 4.807908494867879 7.73479584955845
Hf 10.414522782647184 2.9763169553380315 7.649888819189393
Hf 8.938405303604211 3.5064773889101217 5.032485198119358
Hf 9.868361283800471 4.802024013644826 2.5194296215664505
Hf 11.018353867731804 4.852059224915075 9.91323364816851
Hf 7.151348416791309 2.516846251837018 7.430227692166946
Hf 12.323466178633751 7.049966141021956 5.947636062223419
Hf 10.060315622375446 5.7407726074546455 7.317109715987321
Hf 9.747230539262041 6.626369577223896 4.4894927048053015
Hf 6.127129299467659 3.078143590038287 4.8250563330739125
Hf 11.971236526959835 7.380786781789079 8.774057532312922
Hf 8.190176406892057 4.442225260137751 9.339088641992689
Hf 4.290209406743042 3.2530721760708086 6.943169723387457
Hf 7.1493711404415885 5.308930159718904 3.291938485525401
Hf 5.358230348026551 3.493430920188401 9.796506106527069
Hf 7.0492052788308825 5.2914491051474934 6.600171589849553
Hf 9.262425013673399 7.280805172403229 9.909862582758315
Hf 8.325364756300019 7.849851737025039 2.2923862164571918
Hf 9.897834874338537 8.625085395962177 6.904341217289657
Hf 4.6536374364899595 5.700471280747352 4.837162700000664
Hf 4.724424091492321 5.891721003663498 8.355244889761561
Hf 2.6115613417730623 4.174732164127247 9.125087196666403
Hf 6.960300108619343 7.991378631286241 4.970653629329275
Hf 6.563112911205755 6.205198916593081 10.938652810187609
Hf 2.2709116874278377 5.643091616074188 6.541044683620445
Hf 7.130496579490723 9.026888869578794 10.914729065767894
Hf 3.8011895812564704 5.709606894023542 11.11967898200431
Hf 7.069297378297781 8.098176333844311 8.108580436393854
Hf 9.436008570031195 9.555767328107148 4.221563036199131
Hf 6.8254876192486496 10.336699084583836 3.397859698865167
Hf 2.286708355524688 7.563713402550389 4.2633165678756475
Hf 8.891668982444633 10.139041042846697 9.097527328475932
Hf 5.497713662999262 7.5295617993661565 2.4587812470564137
Hf 4.03333476263169 8.155931511767887 6.589205217214653
Hf 2.163095965449023 7.143533705454738 9.124733840195008
Hf 4.176754733607875 9.609719653557022 3.619996540914308
Hf 5.940681294518026 10.712947106778254 8.818160707215101
Hf 4.484450463933506 8.471507814435917 10.298349192856463
Hf 1.071442408887547 8.277961559124263 6.769490149069736
Hf 7.876224242198371 10.7226410616627 6.393349460504895
Hf 2.330391005274566 10.283577214300527 5.452252731765969
Hf 4.980903995308021 11.05179867571579 6.0084700043215395
Hf 2.9267680467953774 10.140513623340139 8.30423722469312
