46
Energy = -397.51487129 eV
Hf 10.26964831504841 4.165206831582966 3.4256505998423785
Hf 8.642903589766851 6.1829299035228935 2.1200298386257823
Hf 10.309844906067225 6.827955214879026 4.5021185792643035
Hf 10.375850735413728 4.315079525052334 6.239587027434121
Hf 8.002278884801168 3.1877276460753117 2.251778608834509
Hf 8.504243668456345 2.2952692099706997 4.964576231609756
Hf 9.010168372810707 2.483049837599484 8.165802798277191
Hf 10.677994558846263 4.671404827452866 9.063237011379742
Hf 10.516474769067909 7.163170492151989 7.539630528778701
Hf 9.55307470690483 3.1473781251209867 11.06862143909249
Hf 10.289053961189706 9.893589868902673 6.070267077825872
Hf 7.628202110052569 5.018512574868739 4.569813280884229
Hf 8.657196135085194 9.020548442283856 3.560903383733646
Hf 6.02032899954911 5.054910443440659 1.9276451912469987
Hf 5.657324501009388 2.921176532643065 3.904665386384071
Hf 7.977456689382561 5.281327994547463 7.775972344645494
Hf 9.146606582707848 8.870301609967322 11.815758515599354
Hf 6.285074666943799 3.0744520940460807 6.927588017158458
Hf 10.113960321065207 9.982041111525012 9.165522962091226
Hf 7.872219540673231 7.815548979460186 6.064220926186229
Hf 9.433176144691357 12.463423567041916 7.367500082341283
Hf 6.966781867810729 3.547000262163005 9.944460300260243
Hf 10.86312945331023 7.3508275625481 10.344816600924055
Hf 8.360406619612363 5.8832493222065745 11.146110149395213
Hf 8.044274664102396 8.003331094485192 9.211205962030377
Hf 8.569339754239444 11.730585690305668 4.799420835843183
Hf 3.3296280293108294 3.4190876558598933 5.998993473114339
Hf 6.060682236112382 7.368996746703499 3.7128981536892254
Hf 5.164365869573583 5.856135745237982 6.395131568927012
Hf 6.524241948150622 8.05728530363654 11.834029880256464
Hf 7.693323923615137 10.480276877834147 7.360057623579386
Hf 5.644588986795173 6.258640052417836 9.630056574226861
Hf 3.872464446962845 5.3157232038018325 3.8195677566214776
Hf 4.048581047869889 4.089098989589545 8.671762796724995
Hf 6.094115635874242 10.175997021205214 4.59646415604538
Hf 5.313926005805336 8.909648899408362 7.483343368322598
Hf 1.3241405160345363 4.347119564775965 8.003969660095297
Hf 7.196807209337705 10.541089306235095 10.43324595683528
Hf 4.50200235343001 9.209406127400962 10.262897160175052
Hf 6.362587404596779 12.73723249500113 6.1444692866747035
Hf 1.8882242197879406 5.858043405978095 5.863102673530353
Hf 3.524663993626066 8.221368150416136 5.47222543472905
Hf 3.0487830488595704 6.908625509705646 8.352889227430845
Hf 4.850673151439747 11.625166154958526 8.625599958991947
Hf 3.8498286730131674 11.230193135078858 6.002234251696595
Hf 2.675063982010903 9.839730463301562 8.037814709212826
