48
Energy = -418.06686216 eV
Hf 11.339611335084697 3.6393714196456366 10.037566266669888
Hf 10.426469000851757 5.3622838078430455 11.96899763712031
Hf 11.151133360680067 6.545501178658037 9.3755167945408
Hf 11.150026925005587 4.519357614806314 7.3018728875124275
Hf 8.817091565950669 2.8632396495053807 11.580077088739603
Hf 9.512318434304905 2.0789222829341694 8.421544737355072
Hf 11.487601457928545 7.769861566634023 6.54355676387747
Hf 8.685720765266192 4.775790228549772 9.69942106586344
Hf 8.943362648919548 7.698477171091599 11.189787429536286
Hf 7.763988414387186 5.460587035569305 12.565323450184044
Hf 9.95148909361748 9.282337862184495 8.79782288889194
Hf 6.944318915727279 2.134234949348008 9.354792920010523
Hf 8.93403808916835 7.169734528109855 7.055908541662774
Hf 9.87309189616376 2.559632461359804 5.658728391546834
Hf 9.90358435197871 5.401859883264425 4.842966622991623
Hf 5.853090486939552 4.254368423790901 10.951864851495344
Hf 9.65448287902521 10.204277037479873 6.019379339444729
Hf 7.163317453932168 1.721723279976456 6.432044774021275
Hf 9.68191762748469 8.065810693628476 4.147605564900885
Hf 7.822318515683047 4.346591587706278 6.908105649511943
Hf 7.153079331177407 9.721630679463933 10.079895573562931
Hf 6.705993465811804 6.792681310160398 9.001154384881806
Hf 6.809711415663646 9.304281135940847 7.022757644549108
Hf 8.434824457112292 11.593380033886014 8.22224161004478
Hf 7.310719548606053 9.613470647112896 4.041000305075999
Hf 7.696919049764843 3.577301641227122 4.10027547567483
Hf 5.024817129377564 3.917115689556103 8.227536999742972
Hf 5.839103525627051 7.383492917689933 11.538705802439845
Hf 7.072073446230531 6.499389207091418 4.81355872435075
Hf 6.871349874011831 11.927183069449242 5.875342621959915
Hf 4.816303299561524 6.672545123003811 6.714497651002081
Hf 3.8344671681358986 6.127093625527786 9.545568369134624
Hf 4.17475209069814 10.456384480504617 6.294154291724463
Hf 5.032454290783049 3.787073807962199 5.355814940426758
Hf 5.642189617093364 11.586721747093277 8.460348268731375
Hf 7.129438500048044 7.1053384411191205 2.098254166916068
Hf 4.582117248035373 8.849627363311255 8.984203450514089
Hf 5.335255851443985 4.961876414772392 2.7959169419249936
Hf 2.6372165595205788 4.836258556962628 6.965866026482834
Hf 4.826433072897413 11.35791864278184 3.527915279651369
Hf 4.51062485490938 8.406594258588342 3.9293293082430045
Hf 5.9109961893043765 9.586065747095878 1.5228612556742602
Hf 2.187445125869396 10.307534867310842 4.263525611463545
Hf 3.0241201389845864 5.6762205492366995 4.3310133955905785
Hf 2.3118532958844784 7.990623232042737 6.033029483688289
Hf 4.214208094734327 7.162398496658692 1.3356702976129944
Hf 3.151820726776503 9.84307896980371 1.681391620428615
Hf 1.73036188830403 7.829857238739656 3.0588206000521354
