45
Energy = -387.72533826 eV
Hf 10.519328807089611 4.206686583389526 4.070873206751604
Hf 8.60108115592506 5.499040893722609 2.448651390735302
Hf 6.510291809034496 7.316733370123283 1.7419001816972002
Hf 11.107148178841003 6.83857786213423 3.477692445543676
Hf 8.913688003013046 8.572933124290264 2.8379538524939023
Hf 6.095403676233378 10.011462696826547 1.936675078237622
Hf 7.76214814585619 3.624328718926096 4.688039856317728
Hf 5.779412757227049 5.661007437285408 4.023749730169572
Hf 9.87952966497573 3.387982625056621 6.6778534517735935
Hf 11.530533424406803 5.905365093443713 6.21832495125733
Hf 4.070580079710666 7.976796770842567 2.8831835601427076
Hf 8.713304853765674 6.460831261144419 5.096527726938759
Hf 10.789677860838523 8.69215194634977 5.742909450040628
Hf 6.3540821256088185 8.754711746475653 4.488474254008544
Hf 4.834044459501989 3.604492861317491 6.469776963707882
Hf 8.53190557581208 1.8947097796298942 9.137978268037207
Hf 9.208818137338897 10.785814797449277 4.9046488465959595
Hf 7.312923469711805 4.009093900563624 7.707537918405316
Hf 3.1065718081719345 5.685423843834299 5.808565263855413
Hf 9.101876006820456 6.249183210391971 7.919338158286944
Hf 10.45608011724126 4.087682937461473 9.267264914057145
Hf 4.079557607069916 10.587241179094846 3.8689450719033163
Hf 7.833518616013833 9.03132255990758 7.188936045400118
Hf 9.864034832119986 10.852073348037699 7.938911575956332
Hf 6.530264126697669 11.784703402972424 4.237334713990187
Hf 2.3242700218870613 4.242128025504691 8.173191093444313
Hf 5.904039556461166 6.595945285924837 6.730089658553411
Hf 3.51219938392356 8.541580755782837 5.801110092637085
Hf 8.016770521469516 4.139579032032846 10.80580348940471
Hf 5.761352190626047 2.595703902829241 9.65491779728628
Hf 10.984739872793499 8.225012285257819 8.56228726432804
Hf 4.79222321787162 5.196596837988216 8.923788397452126
Hf 9.968925828319717 6.522764270631748 10.735951581572822
Hf 5.105739689002319 10.957211132101921 6.665340964753411
Hf 2.4774074450285575 7.111236216074517 8.12862350483737
Hf 6.908537890697989 6.978634831547032 9.774002663220605
Hf 7.69004502590883 12.139111014804092 6.728876822204561
Hf 4.89279085058247 8.806963176559805 8.658435675462881
Hf 5.5572034404957495 5.108854831437357 11.81390537185591
Hf 3.872860858361776 7.237982429416157 10.878086836467926
Hf 7.684420852752138 7.152693578380593 12.546886019323907
Hf 8.861668736169168 9.14604845798116 10.4280674511981
Hf 6.974018406455419 11.008121560624367 9.158568902067907
Hf 5.9418625428195195 9.193706741609237 11.5318360077942
Hf 4.984050818357645 7.379205391203915 13.561187272447636
