41
Energy = -355.96823121 eV
Hf 9.941250749760394 3.9571640877555927 8.554158236295724
Hf 10.821659743274896 3.569812539579229 5.668795704436194
Hf 8.375673106064268 2.400678114196655 6.387989819777562
Hf 11.733402945602482 5.960119582654596 7.012210763097854
Hf 10.442917316893912 6.912819942652547 9.550202544576198
Hf 8.213793870062371 5.335224425828908 10.646658597435309
Hf 6.956511518157065 3.7406046443197507 8.550151118970303
Hf 11.859723798757765 8.817716164702347 7.899515588896011
Hf 8.182673610520707 8.147103315525444 10.950353869834919
Hf 8.496188734585502 4.032125036748045 3.7633733795987303
Hf 8.592275849214289 5.187276710319639 6.36704601518867
Hf 10.85762768999799 6.003597671225795 4.110937631340423
Hf 6.009866511461714 3.7949403999891977 5.411756226292009
Hf 9.405678545660257 9.778902374805018 8.85358960839572
Hf 12.314931890869836 8.214778687829817 5.287777235928711
Hf 4.379622796918819 2.6647853547474583 7.598529980426494
Hf 4.378304108197892 4.151761660579524 10.083301401102059
Hf 9.50429418145716 8.1682114475102 6.13361335461701
Hf 5.575741598229255 6.858667789527184 10.345821257374187
Hf 7.725319003108496 7.150366279726303 8.337399357503923
Hf 4.762229053145285 5.4743864657972185 7.530040756608714
Hf 2.6247225466342323 6.60279961968141 9.837599124262988
Hf 10.57735388933732 10.600750176188841 5.847139847016653
Hf 10.499609223648358 8.886667880061395 3.379587199018599
Hf 3.758981333195233 9.306719546826248 10.336457603007688
Hf 5.9129741910405045 5.449160939001343 3.006156950184165
Hf 8.39072460937093 7.0161051293055285 2.7308481676750693
Hf 2.1252296241495436 4.211742489788554 8.30082267806091
Hf 6.371208433688233 9.645947306003142 9.08191814000712
Hf 6.797941952128218 7.192646327798258 5.2496068953175845
Hf 3.021142568504769 4.221788969691798 5.57191562601569
Hf 7.7142452315425505 10.64425417976356 6.709330760126345
Hf 4.222272160430227 8.097161439709279 7.72290231445053
Hf 7.933212790105347 9.850439014927408 3.963654697407344
Hf 1.5784339784773413 9.075031129002895 8.535003880547425
Hf 5.742639916042354 8.266895347251353 2.8483304963334515
Hf 3.8958982914344302 6.940276499230555 4.761150286292466
Hf 3.7959526971368454 10.868827869036801 7.892827634007538
Hf 1.7115607460059772 6.647842960846283 6.808434116675979
Hf 5.278292699731263 9.698915840622853 5.446531959984557
Hf 2.402964355642099 9.372642949507204 5.834342358439346
