46
Energy = -400.55824381 eV
Hf 11.032321920782007 2.926780498368679 6.018676108298849
Hf 8.566341895706978 2.5066078318242293 4.572131811595562
Hf 10.440140804759938 4.735014045531544 3.7540573572825315
Hf 8.804338408134562 2.0589498561545465 7.487995995122553
Hf 6.273537117578522 3.0486936276964225 6.499452313643225
Hf 11.90016024312794 5.531792598170841 6.75184401977376
Hf 10.532852912949831 4.0600036235070105 8.75088667967169
Hf 8.144471792578567 4.118859924442526 2.23000686752094
Hf 8.872536974766184 4.808313855572404 6.426244430196242
Hf 5.809662290496398 3.6927042459541815 3.8492110239161663
Hf 4.7594562192665615 3.3808354284448616 8.812637821916098
Hf 10.273741516841566 7.413886252229721 4.815240934603247
Hf 5.617280396571197 5.811408778850432 7.312443987996941
Hf 7.5615825218972885 4.355777194739413 9.008148900184176
Hf 12.113084790244265 6.911014299847574 9.456299190961133
Hf 3.445778964726403 4.114930397290772 6.422467280586938
Hf 9.631404534686743 6.978577765396169 8.471358854124105
Hf 12.085349408555526 8.235715709410938 6.953085848458224
Hf 5.951130139623127 5.702624446148128 1.8757334202885658
Hf 8.804381784024464 6.9525153624773415 1.9593677122151594
Hf 7.452907139368597 6.302067611389282 4.299912010607931
Hf 8.393410303713509 5.991930711891562 11.134891422151618
Hf 11.096887244632065 9.658611049242893 9.032751409878834
Hf 10.250849295522261 10.311802374811515 6.290750266309047
Hf 8.969611010450553 8.764915200180678 10.99444265909985
Hf 6.057863597367801 8.295523051970978 2.5195188370872232
Hf 4.443880139538365 6.369250446923836 4.493114184189387
Hf 5.4069666051556915 5.454192116773943 10.789702610159564
Hf 8.023899167632102 8.433653354661516 6.633329890476676
Hf 6.75965438349233 7.751958353649503 9.369911626119599
Hf 8.415091226705666 9.351219479145447 3.893700884435311
Hf 2.9747363289346826 5.629028499148882 8.959097844007312
Hf 7.572651267700973 11.265010128087397 5.997911877007436
Hf 6.437501260640605 7.818002203722988 12.184748251516444
Hf 1.6873653562796216 6.569540034388403 6.402713289075675
Hf 8.447165490777625 10.713017380549287 8.73208732320438
Hf 5.635923275288502 9.216273708548558 5.117110565591764
Hf 3.7699238759050298 8.280446664830528 7.3064439665525835
Hf 2.8215418718233076 8.726547090944068 4.535223834862038
Hf 4.014291129049075 8.176538654198735 10.49321469306677
Hf 6.225840518964356 10.241907645831215 10.803652191643636
Hf 5.670799391670839 10.503770092432104 8.01494262101684
Hf 1.4160197489482125 8.020353266617287 9.042650639101419
Hf 1.1657659355708445 9.472094534047951 6.7349817644763075
Hf 3.5047898424096817 11.003666811999885 6.12808195508276
Hf 2.855639642454821 10.504931001641038 8.946327403944089
