40
Energy = -345.64825693 eV
Hf 2.2902725470094363 4.7196223363700165 7.247785492736648
Hf 3.891749293234621 2.859946990732484 8.796823075417425
Hf 3.397722272811948 2.6417528714544227 5.902249370192627
Hf 3.493700533809402 5.266668164156431 4.527974568780306
Hf 3.805412529480241 5.825712562066736 9.384676697216749
Hf 3.989426069742661 8.68177684612356 8.962899214233211
Hf 3.4134390048406336 7.311258127949628 6.672830781841997
Hf 4.436647446182321 8.27412486189527 4.106142342675041
Hf 7.781907580542166 2.9149548216637595 8.462794525988558
Hf 3.732971621075538 10.471073621976673 6.668648130420305
Hf 5.753053425265909 1.5956674872465173 6.8749010782613285
Hf 5.319359470035994 4.508128579092323 7.02498677012237
Hf 5.51583263944461 3.2515162824179145 4.095179610547015
Hf 5.775447578117718 5.895256212758154 2.371153403703733
Hf 6.195160463688558 8.24135658964781 10.840637489017354
Hf 5.501710527567312 11.072799740625673 4.3132318957527245
Hf 5.717661392867713 10.830015194808103 9.20101748461136
Hf 6.438052535317614 6.83790152132525 8.394804785625611
Hf 6.0728258431122795 4.53721409324553 10.182434736800383
Hf 6.419948558714479 6.282976670756558 4.868800783826222
Hf 7.195139513881296 8.826624619190657 3.5321439404623343
Hf 7.936699038016527 4.084088085058389 3.133110250836915
Hf 8.567634868972654 5.562861753945732 6.501393577991169
Hf 6.168412593657349 9.175361649921514 6.321869918286151
Hf 8.189150184087477 2.5799856126903453 5.652782714559427
Hf 8.749551283718546 5.317731058881872 9.600700507728488
Hf 6.070157067341077 12.198358372846112 6.75980334891468
Hf 9.138551410224393 7.897024712498531 11.069627567494173
Hf 8.000621513025088 10.540917850091514 10.96887156311401
Hf 8.218305445215679 9.030504343019095 8.52228207637512
Hf 9.320817648201588 6.474382566550883 3.4330259743904565
Hf 9.18363664633746 8.278269524369808 5.6224300957279825
Hf 10.337239094357619 4.009445345740622 4.547727580143104
Hf 8.571153838714872 11.824739450521225 8.28905462926428
Hf 8.306729327019823 11.099068094094884 5.318488833075433
Hf 10.440793528249909 3.8372492519679957 7.444993660911253
Hf 10.542942020896447 10.016033862139253 9.80350251747256
Hf 10.535005243752241 7.29472712996958 8.364606634237
Hf 10.663160555293457 10.07382006138973 7.056436773065419
Hf 11.280309740233855 6.317264271272187 5.679953772512194
