44
Energy = -380.16472996 eV
Hf 11.352186288568358 9.041781515230369 10.262427605653562
Hf 9.002346281627059 10.204957743811825 11.346534726428045
Hf 3.764970941925707 7.857534595685639 11.770136743389834
Hf 6.146478041549227 9.221948222021906 10.783004544869508
Hf 3.632213086325883 5.339898219381058 10.631290332877217
Hf 8.848836568518786 7.6875189998372395 10.047093916779984
Hf 11.451629864619353 6.280451725374883 9.130213686267046
Hf 6.3302152090783785 6.3728324493990876 11.369090118732355
Hf 8.709928665934692 4.761146292559541 9.925673850240162
Hf 5.980642122547392 3.888971887353985 9.997860805218416
Hf 10.330356584065843 3.9336288346937867 7.506384088796451
Hf 7.2577557400865444 3.4519421501490557 7.530306487535352
Hf 3.2704833316061626 10.07731683845395 10.16869457189468
Hf 1.6928487164863775 7.573453781646749 9.722819911474414
Hf 11.58685459219293 8.77472371841616 7.413449256446764
Hf 7.169100057453891 11.662392195763722 9.812066384724076
Hf 9.92384189353534 11.018976894751498 8.72793432585463
Hf 1.795136094322375 4.926216640730818 8.588517459969697
Hf 4.358447674526659 7.752395376257811 8.818287225956599
Hf 7.437452387153764 9.365494107367203 7.843792633592967
Hf 4.421100899255962 4.3892447736779845 7.561500604028727
Hf 9.411624018817038 6.940058654096141 7.222779630712191
Hf 6.792482295618128 6.251652013179847 8.303889525249907
Hf 7.733085447029578 12.196901324224028 7.201112756665008
Hf 2.6382212549141535 6.6852674083789525 6.597013813467262
Hf 8.861758589330849 2.102489332711248 5.596571604948651
Hf 11.934304007764569 6.013687491118212 6.3083531312860055
Hf 2.33566513699017 9.426917607309388 7.527539354313283
Hf 6.271910064035525 3.186039598003939 4.710882877507404
Hf 8.538132360996112 4.999970961290084 5.115877442929508
Hf 4.990550358368081 10.820353884509029 7.927188984902138
Hf 9.532921509985185 10.406249288686274 5.816958419859813
Hf 8.655188027724467 3.102348444699087 2.9786645084858714
Hf 6.530780653564707 10.755380482265137 5.073733980746452
Hf 5.533810964351498 5.953218888974488 5.471082813242011
Hf 7.682618598967618 7.908322391633618 4.870735918305333
Hf 4.7681528617591535 8.696063260117283 5.949857416946018
Hf 11.015994589092728 3.678960962758381 4.646402054659197
Hf 6.855480128954252 5.425366783859268 2.7315797598522953
Hf 10.463412063005372 7.930140460812562 4.331146432077836
Hf 9.942787906543993 5.502548755396002 2.551471759564815
Hf 8.521050706054009 10.07092275589265 3.1319224069633984
Hf 5.855868632734822 8.645199170001373 3.0431521822862155
Hf 8.404564488712674 7.696134250909148 1.967029655031283
