41
Energy = -354.95743625 eV
Hf 11.567310189731604 4.101833428768011 6.0031068919339345
Hf 11.812660375440148 6.825731496264885 5.135456343956847
Hf 10.241592198494073 4.882502053441954 3.502471911095957
Hf 11.647381757904856 6.3455932754062845 8.011244422547717
Hf 9.849562804450676 3.8244219807506745 8.255107266014873
Hf 8.499657809100349 6.118933161758564 1.5170561509532077
Hf 8.79968652366429 3.1125505176576143 5.459718499272322
Hf 9.689880574029457 7.816641292911889 3.509609610829335
Hf 10.317716543248242 8.839955419905856 6.914692266854279
Hf 7.2012352889001665 3.4907217939327913 2.6683258903943656
Hf 9.372492828684098 5.890268059233 6.166102019329936
Hf 10.050672563530776 5.71582812259893 10.374310628217758
Hf 10.559058946827832 8.456904938273285 9.80857554247451
Hf 7.2897662275157495 5.717665651082466 4.071218330185755
Hf 5.793893797744733 5.908651928009674 1.4878917516804953
Hf 7.094781752900594 4.549915423454088 7.8302888894154234
Hf 6.922245434420084 8.307063753614445 2.68641027744605
Hf 6.952819701860387 11.401529704341453 6.463516608571735
Hf 8.34305397109248 7.206745125603356 8.526748080308986
Hf 8.140517214043749 10.07188983516129 9.039722212991107
Hf 7.665036536799578 8.456975660066819 5.74461275225127
Hf 4.457692798146132 4.41966094451058 3.326439280363923
Hf 8.209938922802102 7.719983114740923 11.396442400150198
Hf 5.6235612322777175 11.720268539358592 9.05331680783211
Hf 4.127173141874254 7.258246942110438 3.5065363476044116
Hf 7.229604633815268 4.945281348999603 10.759505477220042
Hf 4.208204179583946 4.26452992614607 7.876833237660601
Hf 5.414379057200304 6.46204901862114 6.19622243196303
Hf 5.160830819683012 9.767777388715475 4.753850925010422
Hf 5.781821091103286 3.385363006416558 5.489075049197879
Hf 5.5485159797064165 6.9409951728882815 9.41242457808081
Hf 4.001965840802545 11.399370581073347 6.753869855975711
Hf 5.621941431081326 9.260170389290296 7.703042142604866
Hf 5.692465476460312 9.554710131262993 10.99112536048991
Hf 2.896294945479199 5.432591562002602 5.5460668538687745
Hf 3.1144290101141854 8.496980526285434 6.206451273651114
Hf 5.6198631357961615 6.795266754648248 12.28556821608144
Hf 2.7387995075804947 6.661599593029158 8.450916322031507
Hf 4.001116338644822 5.029042167261219 10.694335466012259
Hf 3.2614836668869116 9.87146238412299 9.191353633710072
Hf 3.324631944072545 7.775487431940601 11.12728508066784
