43
Energy = -373.10512576 eV
Hf 9.205746800863597 12.727220745526946 6.7477661159910625
Hf 10.387920904861636 10.918256114224416 5.072507344064478
Hf 7.620995522583331 11.567776791629738 4.410057327344577
Hf 6.447770151606447 12.605715451822263 6.981444559224897
Hf 8.13305787897788 11.741504980895051 9.175924783653837
Hf 10.630918326714065 10.4920340822696 8.041117344113113
Hf 8.066690392133381 10.080341382290067 6.757734750788503
Hf 8.884852692943028 8.83327882348873 3.8154875800907915
Hf 10.991440560375056 8.253555670645682 5.986186438237563
Hf 8.660426075264004 8.886952509306138 9.854882471833736
Hf 5.002742654749738 10.323798415952718 6.051157737195327
Hf 6.09324463534646 8.512710193879048 8.266236071247517
Hf 5.90635528148859 9.174950941199436 3.2485174801419823
Hf 6.586966989934707 7.706364924077844 5.393313343711999
Hf 11.22230974719977 7.7729829646768955 8.876844968395035
Hf 4.609075475177796 6.524753857777739 3.036758420601885
Hf 8.710650468548296 7.216740382511846 7.568734202918585
Hf 5.223086740749043 11.019334980852111 8.956277988947035
Hf 7.300039337588704 6.227103863128019 2.834290022865971
Hf 9.373546275762399 5.855821430396354 4.824732663509712
Hf 10.926855842654984 5.349751955300051 7.261410864639
Hf 3.482334520953381 7.987416554656332 5.114748156258671
Hf 3.096650503950595 8.775506199357444 8.019271460568932
Hf 8.227196309307477 3.550861006473331 3.5132056078300447
Hf 4.411070084203647 7.504168522633737 10.346784498296737
Hf 9.542457828013706 5.587702691086343 9.880133312231719
Hf 6.162935308093207 4.8779441766727585 5.3023945466482
Hf 6.687399369816869 5.872967235301829 9.7324519837828
Hf 8.090063773708243 4.2648265489860036 7.506111775876004
Hf 9.758786563237894 2.724306928766025 5.843644946456764
Hf 4.379446287998388 6.0494728951649615 7.658663711564049
Hf 5.331659601849476 3.6385576917720734 3.095294336100948
Hf 1.553739680669706 6.572953787811817 6.728988779519405
Hf 10.265248608811257 2.9227834322481305 8.778660270112379
Hf 3.0155883057156916 5.0160682010564726 4.826873277414576
Hf 2.0400861252024387 6.330483555762244 9.39711823101679
Hf 6.846124875884557 1.9681638916838031 5.384541842416916
Hf 7.71064999641285 3.1812508251947533 10.16357259227663
Hf 4.1166126413917 4.591093207364765 10.221951818566325
Hf 5.426707711354246 2.902806461301574 8.220686655038563
Hf 4.128002948390757 2.6168088935901226 5.650038150016796
Hf 8.0646275308636 1.4063076705310136 7.945980101628745
Hf 2.502735254261301 3.9256850731236033 7.728768021354107
