45
Energy = -390.85577135 eV
Hf 12.076188598794777 6.835944589671464 4.3094756505754885
Hf 10.914429640912282 7.9801125864760785 6.764885272579515
Hf 11.15704145600941 5.028547825108778 6.475082480112165
Hf 10.813804225594273 6.035318132254542 9.37795164816745
Hf 10.868684603245462 4.3440852290989715 3.614770892131469
Hf 10.361581580947117 8.916821240711284 9.40095893513888
Hf 10.31845780055646 6.838736165980007 1.991983982508671
Hf 10.45039140026343 9.240037352964844 4.189389348001437
Hf 9.70625224916254 3.5177397666646675 8.417819995518249
Hf 9.23318002627884 10.37146759075882 7.165708011217197
Hf 8.647688199083293 6.106013968806389 7.577727858733121
Hf 9.25956454689646 6.500273419034421 4.506047434492635
Hf 8.731734745209026 3.536117608684449 5.599529530393099
Hf 7.7772723502321295 4.726812465450663 10.133209461282535
Hf 8.731436980562554 7.38299950356237 11.126122990087218
Hf 8.118730828552906 10.552030505233915 10.127493700312005
Hf 8.047167150187828 4.237482114190308 2.851501738248726
Hf 7.186657208414234 11.080068623168241 4.261040750018379
Hf 7.015962773808424 2.4875995575971794 8.011977134075583
Hf 8.40386934185049 9.03304111002361 2.463932649778863
Hf 7.315515498113723 6.625293507121649 1.7216522176859037
Hf 7.435302640444358 8.46941251710495 8.601009966126691
Hf 6.709257311940439 8.866151862939743 12.0463284415139
Hf 7.53487434743562 8.688358836790192 5.453484737140205
Hf 5.997232657568414 5.93067952116454 12.458385301553022
Hf 5.501882868601441 6.802993004679616 9.955075718722297
Hf 5.964242267265366 5.060934145940334 7.4375243636110655
Hf 6.339230759063721 10.906239717301561 7.213923344078788
Hf 5.900275224763185 3.1999721042419718 5.104175222646917
Hf 5.031586527047479 3.8116927200520454 10.055179683210959
Hf 6.357620184843796 6.112318893062428 4.6105838905801
Hf 5.135474845269533 10.11658486855578 10.063957969246378
Hf 5.657561350374418 8.726434898106518 2.8310605253809054
Hf 4.1473066962999745 2.923004136763322 7.398388091864213
Hf 4.878383165210942 7.808543367492783 6.95524233421665
Hf 4.8051666982124255 5.335937928188966 2.61171490177609
Hf 4.103273636888382 8.180461666301815 12.163312400617722
Hf 4.342575286091241 10.052079372021215 5.048473870619059
Hf 3.174393489437134 5.757288839042525 11.22874635538927
Hf 3.617822850981127 5.13702575641926 5.449654081076842
Hf 2.992585269229761 5.394276214133338 8.425836145689214
Hf 3.532214397421223 10.298784014009223 7.7137054775369105
Hf 2.7625414967054907 8.130088230675712 9.499969937663174
Hf 3.418519594523133 7.497584950061699 3.964596085360464
Hf 2.210886763198118 7.9957954046144595 6.510484180227801
