49
Energy = -426.72580482 eV
Hf 11.520312660347603 5.004007117571598 4.628571182442115
Hf 11.887838487548354 7.280570432944486 3.0875112361474573
Hf 9.35043102898505 5.979429569415857 2.8260620092511575
Hf 12.797153443074615 7.3144986434780135 5.914842748811226
Hf 8.658263455613183 4.646072742744745 5.381941708067447
Hf 10.847931504243276 5.293092122320484 7.469341304274362
Hf 6.678657340743805 4.347825655330326 3.1276398671020846
Hf 9.284572014852776 8.818001227098208 2.8425417764668524
Hf 6.792609071426234 2.2800564206943412 5.217607548162217
Hf 10.043680848503882 7.428905134373928 5.354716166107897
Hf 11.799749048702518 9.613181722977005 4.265189709005022
Hf 6.608494274324406 7.549929968684711 1.8689293149666708
Hf 7.566243713801997 3.290028190897919 7.903537667390959
Hf 4.511120546474697 5.7620694280501725 3.01981434243092
Hf 12.181334713632873 7.570346148759438 8.653759482102481
Hf 7.827433267790455 6.10131118356726 7.779607874608402
Hf 7.093319176128512 7.188280039149216 4.424608344207258
Hf 4.124705380449385 3.136695986724148 4.352080069312727
Hf 5.6352071966288815 4.857003313382827 5.880554387026097
Hf 9.292745071555485 10.639879270528786 5.1545462677908445
Hf 6.687910258120386 10.184382638250248 3.687636042551699
Hf 10.18586660413023 6.4812583840943985 10.153310497206654
Hf 11.66913141413108 9.927145058478967 7.075665089354649
Hf 4.7275644273439505 2.228806727274906 7.275151935275573
Hf 5.744183557255096 2.305963216470782 9.989255498326814
Hf 5.04335886837056 4.848840288324331 8.874053643716401
Hf 9.326212501322303 8.321167652087908 8.06518463384463
Hf 4.173189126346944 8.353462012871013 3.698430217167827
Hf 9.268725645318932 11.314526512049758 7.845153606319434
Hf 2.5495902126837287 5.92449179935801 4.971353330779962
Hf 10.521273532778174 9.53638392529022 10.000093724555677
Hf 2.6819761189110443 3.8234413521699 6.785563439041008
Hf 7.493563322480025 4.741323233779294 10.590549055561231
Hf 4.428554001850108 10.51413054802577 5.354796975214755
Hf 6.697658607661188 11.8255507163617 6.542634904932783
Hf 4.433152879476561 7.492811309515073 6.602563303675736
Hf 5.615399131644887 7.654255887848346 9.141063897199722
Hf 2.9123967403170288 3.4113353874017625 9.707058998490439
Hf 4.839320994615968 4.177840102985239 11.7216708969369
Hf 6.954521796538888 9.21559094123019 6.669157808152713
Hf 7.979081822451446 7.894517101136926 10.766255514214778
Hf 7.235353964224839 10.405429463134928 9.415843758735424
Hf 2.2496902662756617 8.760783494076486 6.285150314026334
Hf 2.1356040288061293 6.084821429067514 8.134081376347702
Hf 5.809022697469382 6.616859707086836 12.019643514650296
Hf 3.155023480828334 6.398502703428013 10.986179011926183
Hf 4.490880274293761 10.296968161620189 8.145296989627086
Hf 4.758430017296734 9.133322776527466 11.122587473629107
Hf 2.645061505725963 8.541321994822562 9.223248612572126
