44
Energy = -381.89207354 eV
Hf 9.10512668264481 2.9961836064744176 5.949816523297979
Hf 8.230547804119919 3.0586439203966473 8.767845601872462
Hf 11.644129736389555 4.452288107658976 5.441353350295358
Hf 11.060334295275347 3.8744442279737874 8.169954315570866
Hf 6.174219796187401 2.240350154374961 6.703197209199967
Hf 4.116931231960885 2.892437056747672 4.807255103139355
Hf 9.356782504604368 5.032310341504273 3.751401112780406
Hf 5.620724180678671 3.556077819127129 9.30402742700767
Hf 12.4320003899595 6.309642022342613 7.396630526120533
Hf 7.796380666186689 5.9473472968764245 9.205706319570531
Hf 6.722651987128024 3.5181229642558853 3.9193602228624633
Hf 9.627173439548779 5.8867629617637185 6.8691778176938465
Hf 3.7083914552216637 4.62775519689972 7.308252792011009
Hf 6.740043306657596 4.878242027239296 6.707809555111895
Hf 11.150918923449671 7.336035973760268 4.846565867041086
Hf 10.63303709580362 6.670222409059335 9.587540088428401
Hf 3.9520592296000885 4.535737044482881 2.3941121114267103
Hf 6.929084409290976 6.006066742390796 2.2360215641406214
Hf 2.0338009527824235 4.584496652880333 4.827472545999537
Hf 9.175283357874294 7.767830566921941 2.733846675265489
Hf 7.2131354921112525 4.623371578903659 11.457104352372227
Hf 4.639681726958072 5.949986800758164 4.6683543355779
Hf 4.512642816221872 7.413980461867703 1.9911215006173433
Hf 2.214873815934711 6.885814131960665 3.3104946544386773
Hf 11.092134670891053 8.883018479401995 7.620084204439195
Hf 7.445154137449698 7.185585954679331 4.934055004627396
Hf 5.053518859283171 6.301156712098007 10.221215949290166
Hf 8.280960236237274 8.33758298963668 7.65150632673784
Hf 4.979526583641642 7.3599928450401615 7.248429170415666
Hf 9.17860207662635 9.559851828279285 5.153386212002337
Hf 9.605421317872516 9.311144369780925 10.124379876875826
Hf 6.625878263901116 9.069871989054663 2.980956804543516
Hf 2.359513449470179 7.180484943132692 6.221822496678975
Hf 7.594438350270502 7.744844896577682 11.440691225466232
Hf 3.997133217675088 8.937620933061131 4.486711572584091
Hf 5.958031628845906 9.007690373734683 9.19615916676918
Hf 3.1348587733533986 8.381602938939773 9.506310332238296
Hf 6.351501585453315 9.960277467032377 5.94677313167322
Hf 8.811607855487585 11.062836824470285 8.08210366975944
Hf 4.937630054370912 8.841635501484753 11.816542123627578
Hf 3.7300831074640786 10.17309088461916 7.406591662008321
Hf 7.189792529283277 10.903451105514167 10.809490057398092
Hf 4.261643951984894 11.065431994661608 10.16495119499475
Hf 6.044308907529449 11.821437983933446 8.146407721630055
