40
Energy = -345.40232343 eV
Hf 10.267477037419157 6.773746702060607 3.095734229091965
Hf 8.036923666376934 5.616456665239834 1.5751426571289584
Hf 8.727149722818165 8.350881534723037 1.1431441965195988
Hf 8.569252414782882 4.560367259257591 4.144554265262787
Hf 10.378681720147675 5.312426729143734 6.321044604880377
Hf 9.569982015393181 9.631395436590523 3.5991771496509295
Hf 5.784569871416888 3.2042225553795993 5.598759326028737
Hf 5.907225087688926 7.602789096480571 1.372284220341192
Hf 6.04106176136268 2.2248699079322822 8.306920709525038
Hf 9.365671864067494 7.964990756478388 5.953207927674277
Hf 7.529049261836028 7.572096793045465 3.6643070221163563
Hf 11.029250241621087 7.312349052309455 8.340324184194131
Hf 5.699407659302589 5.540561638221692 3.7021055203879047
Hf 10.233281875425122 4.518478945564232 9.057708383037768
Hf 6.854554575864168 10.115017933162289 2.426504641981551
Hf 8.525895473652277 3.081323773643797 7.1531351129226515
Hf 7.403538993048919 5.579647983422228 6.35330887604927
Hf 3.5108868441760084 5.253575476442319 5.737754384915239
Hf 3.575061830459283 2.7563095753239133 7.337638774320025
Hf 8.123879849108588 6.63977335868784 8.872183211501458
Hf 5.52373324568591 7.598021498493535 6.329993930217993
Hf 4.733486653916594 8.559169471814833 3.850938476132329
Hf 7.07952496241767 9.978226486595624 5.399368466942911
Hf 10.021178812744381 10.274804905495033 7.663369099750572
Hf 2.116821359116296 4.719549256164498 8.400740541427666
Hf 7.572881243268666 3.952884174735813 9.95730370902101
Hf 5.075701542557885 5.230892818185148 8.274013616487583
Hf 7.363236772369802 9.264256871312716 8.324882786830159
Hf 4.164734492257939 3.4197559215604367 10.18473199030493
Hf 9.208438256030593 6.222037506959942 11.294065656207692
Hf 7.323714689955529 11.977051033855002 7.636276819191899
Hf 10.049974141468605 8.905189474806601 10.336055681920925
Hf 2.9007032718606984 7.384439130492146 7.747855875706852
Hf 4.817376250589657 10.284618553747332 7.337939043878897
Hf 8.639853392111254 11.21383855520798 10.041787637417336
Hf 3.2323603159934993 6.209675967674849 10.408578656174713
Hf 6.09163673239977 6.093498374476889 11.069925924699023
Hf 4.838786679607387 8.411295029550837 9.680153747821178
Hf 7.408445766371667 8.784294873406898 11.340761144272024
Hf 5.850092588843189 11.119332819774709 9.943850341453068
