45
Energy = -391.84677732 eV
Hf 11.903305147305947 4.912493011285543 6.459346177060386
Hf 10.664701739885563 3.3494080051464965 8.544334149753293
Hf 10.080832983329257 2.9339680717409813 5.633674729019095
Hf 9.638130987801787 5.192377453259085 10.556951985887714
Hf 11.3451414325897 6.437052695927999 8.849273250913727
Hf 7.728003988254512 3.279348266751796 9.674107007283624
Hf 10.231162631856456 5.4289326812373035 4.106370505754653
Hf 10.826482859643042 7.603058605970376 6.204724255488941
Hf 7.334404377725818 2.7982169016807172 6.782963471487709
Hf 9.53062449648285 8.109432717745667 11.137486516944197
Hf 9.086549873243806 5.1561400481268445 7.202800538938327
Hf 8.436095219901267 7.461502942297459 8.830510053710073
Hf 10.703924595515234 10.474593380479035 5.586921833732839
Hf 7.114618507726589 6.009179709929989 11.481218362497925
Hf 7.703513349239766 3.8737108814871326 4.107134239121554
Hf 10.587960389085142 9.584839550474298 8.354466980606768
Hf 5.144050560161789 3.8833508622243893 10.949942707155778
Hf 9.585137590613032 8.533694547521018 3.6003847732861263
Hf 7.670012542974847 6.756103772466026 5.126903501755143
Hf 6.055864385283635 5.355770842211852 8.762327419327887
Hf 4.8651350286605695 2.59426039392264 8.180726047963605
Hf 8.081746015298478 6.2981587415551115 2.3609304290599167
Hf 8.540445474783056 11.897091004778773 7.062930689521955
Hf 5.446337010928735 5.4279573206646425 3.1239412772371185
Hf 4.808462435238772 2.782607084358787 4.9202287185810745
Hf 5.2777337484560025 5.066825761031181 6.130787081213308
Hf 6.218283091391737 8.850429064757334 10.73328845207351
Hf 8.348779733651535 11.085031059551943 4.19472417960166
Hf 3.0926400301461956 4.623816512543693 9.258368922002425
Hf 8.234059820062706 9.279936993587551 6.493617159615525
Hf 8.356973893656813 10.389714018870613 9.682058429259826
Hf 6.622688691742038 8.852835088749995 3.210624281485056
Hf 4.332249155235113 6.691310544501869 10.821029419268914
Hf 2.9281922541090295 5.471705411111563 4.373479435919215
Hf 5.592255260312831 8.172827552812167 7.834900482184013
Hf 4.685944407923176 7.852607270627301 5.0426667226033475
Hf 3.7031960271922677 7.722620366562721 2.414460817881149
Hf 2.6659080795279895 3.8597614643644507 6.702990969376698
Hf 3.5642309503446334 9.204524660877903 9.497683425803723
Hf 2.927321623118604 6.880146351482329 7.298441146566783
Hf 5.868129918119801 10.92867900404552 5.586841199966224
Hf 5.838908351749873 10.928167170595934 8.50543413947117
Hf 3.837107506925843 10.22025629587475 3.7229447570440195
Hf 1.9373904486671707 8.248821766849856 4.704586535938997
Hf 3.3392963306961603 9.928785034592027 6.714975901352504
