44
Energy = -381.83049462 eV
Hf 9.639383169753057 11.814093915075809 8.447547360960625
Hf 11.640307418622271 10.343515071389364 6.7583801371004695
Hf 9.111441755632786 11.141405036264235 5.497913265076728
Hf 9.336749632541883 9.024082729015262 7.86811360240428
Hf 11.618396960654142 9.721072621747325 9.408444189479345
Hf 10.063355953956364 7.1165279656886025 2.479988230601537
Hf 6.861899442133088 11.648073059713267 7.176480599287665
Hf 9.325936899910273 10.261622175340186 11.005871422220652
Hf 10.407073041333938 8.626006378580009 4.86414177137224
Hf 8.067684251514862 9.138915450494078 3.1565701027301545
Hf 7.117990892144171 12.036933343051615 10.057361738541712
Hf 4.386560630333993 9.926536289467958 7.379351154801224
Hf 11.523720999652387 7.199656284951787 7.451872728319449
Hf 7.159681945107513 8.997275587430762 6.063909644638397
Hf 7.429271364206812 6.442963134352695 1.823899875260645
Hf 6.719856342602194 10.251402470393984 12.133930310898693
Hf 5.556067531270178 7.648243776200639 3.4784801018593785
Hf 4.457335846359228 10.558293130904662 10.443238419625457
Hf 10.194636429926495 7.327215814780685 10.192498170183228
Hf 6.718027828938547 9.25060478563161 9.400859655451102
Hf 8.222090367939122 6.466655221521053 4.696113912466145
Hf 5.555056893120215 10.542047716162552 4.568945918151509
Hf 11.02204894267181 4.747209445980137 9.310377799980662
Hf 11.147669843001326 5.65536547882622 4.609407377870558
Hf 7.940934371064271 7.6209798256926975 11.840205912825501
Hf 8.893503113880854 5.939975042276389 7.674894705509404
Hf 3.394366619733407 8.646479999824178 4.856287556717256
Hf 9.149412357596422 4.44032009819064 2.762328152443622
Hf 5.268290093256425 7.116842511500874 6.6372600784754825
Hf 10.989149837626277 3.9984331805745046 6.779206941887511
Hf 8.627256810021118 4.73324556267166 10.875733665163995
Hf 3.494349057818947 7.934777092661805 9.481417972370743
Hf 8.557705750593176 3.4651718086595578 5.406980654370792
Hf 6.2995023370083425 6.255111030177766 9.448326618726684
Hf 6.321386908882341 4.519689792002864 3.7655591585554125
Hf 5.039728894154645 7.928561815820609 11.856416121162587
Hf 6.201291375741519 5.229988739973627 12.180523611222828
Hf 3.7016557006983497 5.683915355717087 4.925922243092583
Hf 8.713691946857589 3.1393620586735334 8.415564083641451
Hf 6.217864232115497 4.291902657203166 6.800725678584597
Hf 2.4058074993787364 7.377958453958091 6.957983366227911
Hf 3.7484289494618817 5.030901389864286 8.056608304631348
Hf 5.949342289283286 3.526532651548077 9.847338660402679
Hf 3.8251538720480083 5.4338959266042925 10.840571366003983
