44
Energy = -382.09703267 eV
Hf 9.312381478289971 11.458264880184245 5.587483894894214
Hf 6.536831166739594 10.44821913738485 10.3978279474171
Hf 6.695225095066504 11.872672233762922 6.475197766878762
Hf 8.410392538716186 10.023773915889164 8.191291331908786
Hf 6.274890718277971 8.581252368336232 12.410819903871218
Hf 8.880481443859269 8.700348018528498 11.032323634434151
Hf 4.446552833599417 10.474488267479856 5.031475620796311
Hf 10.345150741677605 8.498690410572745 5.8558825744071195
Hf 7.0501475514795775 11.439286840790283 3.646598463646452
Hf 4.119298614584563 8.740390953102255 10.274283914794886
Hf 5.4063361013652775 9.726288150700519 7.819973543724007
Hf 10.763818468130337 8.477128003063715 8.826675299478705
Hf 9.457104654066002 9.759308360548419 3.3836821860985253
Hf 7.6674187005511145 6.040144568628304 12.130993487372974
Hf 3.139215998449582 8.390493345147835 6.880515378471439
Hf 7.449034266938787 9.239778483212884 5.50156793854595
Hf 4.275683981823938 9.17040632421759 2.1487305905576717
Hf 6.607539784093779 7.515349555492384 9.768757851438885
Hf 8.628763108443486 7.024557157769965 7.429529537516991
Hf 4.739959973527106 6.413948728604235 11.912840286025718
Hf 5.148755993576503 7.594081268230555 4.336999665262485
Hf 2.3773754491370265 8.502741831085805 4.194059336075535
Hf 7.141350422187631 8.988034423093705 2.1274016686830217
Hf 5.786122023847528 3.917160399503536 11.49874063567846
Hf 5.4602028177800594 6.642120682296024 7.061333729381606
Hf 11.410771024198345 6.158029119340209 7.557712574477303
Hf 8.275112739252725 6.91331155168589 3.743687783268891
Hf 9.723924346884223 5.876035510500406 9.94720815542461
Hf 6.91958538155722 4.769825821111764 8.866130262815728
Hf 3.0002216449411665 5.853585946340633 5.460953186930963
Hf 4.051501096842542 5.195130836147243 9.317480298922817
Hf 3.224589966741812 6.416654213301682 2.542693385309669
Hf 5.906241062229948 6.5720792221211735 1.701249674727416
Hf 5.426631841212659 2.410265377362948 9.309515983354657
Hf 10.33984233682142 5.239517357918863 5.029053102219765
Hf 7.504842992974431 4.674529516570269 5.784502792914245
Hf 8.326107754175688 2.923730230650797 10.24162922031845
Hf 5.173506942192113 4.592224696992175 3.7701460295740112
Hf 9.95176729434847 3.710549852749297 7.775042923179055
Hf 8.150861078284041 4.1200515239424265 3.0879982426530095
Hf 4.920484653917672 3.6493373946951357 6.736112062579805
Hf 7.608139336862537 1.986616341912564 7.41426556979803
Hf 9.363834843604153 2.5154652311634704 5.197713596674404
Hf 6.59559530043645 2.2010617679941347 4.626283165429358
