48
Energy = -417.8255976 eV
Hf 5.986718458527577 1.9210102526478507 7.2084604639647685
Hf 8.62873883591242 2.7025349306838353 8.230425274977062
Hf 5.472324734140663 4.961030294953417 12.074941492121843
Hf 6.0573565947789465 3.5132600813361545 9.604447042238432
Hf 11.624647635993773 4.068663432691552 8.112885701283084
Hf 3.582854319149422 5.35439593866905 10.073141668123803
Hf 8.21894791934403 4.575939283144328 11.310986653758624
Hf 7.848206182074958 2.2053797298183384 5.286412459928524
Hf 5.278744027489183 3.3670993649201204 4.764535677698898
Hf 3.9486303692152305 3.892007964323598 7.365528796025127
Hf 7.220613415194399 7.008091685533317 12.65817507098626
Hf 10.042928995642535 3.924233103602399 5.697180329592194
Hf 6.861926881075588 4.761116234967044 6.764492163921863
Hf 4.612772792700973 7.715402844367971 11.632317776978917
Hf 11.17055447653347 5.080448374962302 10.65067825306536
Hf 6.488856422544173 6.598655519205889 9.754241870201868
Hf 1.9723868202597623 7.674359914956862 9.53521364738085
Hf 9.20432713131524 5.488556861748935 8.637524001555251
Hf 10.70630638237344 6.390496738516369 3.7774536355457724
Hf 9.425610454692254 7.343581663573289 10.933581501758772
Hf 7.875642311687597 4.773810608840413 3.9352890441386887
Hf 12.184112431139605 5.868305773447551 6.07815037831648
Hf 2.469488733840499 5.5048627244442585 5.342684560935099
Hf 1.4882791240512203 5.215731817706741 8.054116211771797
Hf 3.8333183300785456 6.992167952640885 7.4301214625397884
Hf 11.537587468419039 7.208525349885848 8.581054804036993
Hf 9.300984884947 6.842399743543876 6.103363858069614
Hf 0.9107366204812798 7.521217271775637 6.749269925506687
Hf 5.235017814220317 6.321258328006018 4.614417829462081
Hf 11.696650924866445 8.645513223642787 5.873601735557086
Hf 7.068416606876503 9.336240209158428 10.93314868287959
Hf 7.903056368470309 7.704987318804306 3.609283989086911
Hf 6.502607832784523 8.20751387561579 6.47773241152854
Hf 4.933659231019038 9.203015993494814 9.013166264630671
Hf 2.958640522819699 8.494565444552133 5.010658358066921
Hf 2.30377663215438 9.702279489425562 7.616837779676402
Hf 8.611522393051025 8.504003187878993 8.467941289437686
Hf 10.58992901813699 9.495357832209486 3.2127836298582158
Hf 8.818733005999256 9.961414131968782 5.44409568780307
Hf 10.492083394579288 10.556884714152481 7.911415974060868
Hf 5.639335595515907 9.430031608841114 3.8699725645063627
Hf 4.618559254947226 10.532420391285852 6.313840326665453
Hf 7.189795507850428 10.959448314005739 7.803014777082458
Hf 11.453297419921268 11.390176086007184 5.376153590775026
Hf 7.925906154285262 10.372668924492382 2.499153992695105
Hf 6.839411721594717 11.983775061823449 4.742624717111534
Hf 9.116876129261007 12.699913411198267 6.43046470968411
Hf 9.509409288332481 12.288756900371636 3.6510742963414793
