48
Energy = -418.47093584 eV
Hf 12.437692884888575 9.149382899126303 8.813406799328883
Hf 12.006632887464054 8.989198737377299 5.944100430839444
Hf 11.935976983879886 5.94071460750638 4.82246989148305
Hf 12.003705985043172 6.523246790136011 7.777538223209619
Hf 10.291698441183659 10.392862606201046 10.120235041533352
Hf 11.084018561070934 11.303369209684623 7.60181693975144
Hf 10.457409387654396 7.500171720308432 10.401668588754752
Hf 11.303713810114527 3.91100009175849 6.870984474416347
Hf 10.231868374401142 3.5147016751812656 4.462347824895315
Hf 9.774181631616493 8.703030574342455 7.745238621377873
Hf 9.797484080048317 8.235644308379813 4.057824980215324
Hf 9.873572184970591 5.596469392548741 2.617737526657402
Hf 9.708223243240466 4.910544575850277 9.074301852587586
Hf 7.878432950615031 8.961738208931795 10.589584606504202
Hf 9.404513529313693 10.664764606279537 5.4675883223443105
Hf 9.36818144084329 5.92789866967084 6.103625056199375
Hf 8.159617113696754 11.096941460548102 8.104537986924717
Hf 6.644497737791384 4.281103519634589 9.123881617368705
Hf 8.388003130391356 3.1931117287426556 6.858229240170508
Hf 7.3877055741526645 6.939802174920158 8.420016233788958
Hf 7.935635904223495 6.1135262289063315 11.114482222369515
Hf 7.432875852689167 3.724257732279498 4.115019900986313
Hf 7.146261281465553 8.86755423698683 6.184246461347128
Hf 7.335388916412406 6.6597299288611405 3.9638258026220927
Hf 8.316921755099896 7.679096063922091 1.4422271346661546
Hf 4.183358820160928 4.046932957276709 10.702706858384644
Hf 6.039349250763425 5.332446638888678 6.310605803322801
Hf 5.4723524086886535 2.565042406896035 5.7567636014216035
Hf 5.6388568883960355 9.755658354274766 8.923716567167713
Hf 7.1784047085666485 5.02272308030863 1.500234087019172
Hf 4.512671425151214 2.304638240067412 8.420980248367536
Hf 4.764070577540453 7.9356451731135955 4.605502114458844
Hf 5.206722140721881 6.841743712201712 10.334284945188102
Hf 4.8888380641929405 10.575015941788143 6.090673847065735
Hf 4.152802079213956 8.035976619706151 7.477472069511259
Hf 3.773008293709727 5.156521979484672 8.078868836977751
Hf 6.936353056205955 9.43966723808958 3.2609546650431422
Hf 4.697793401025685 4.760276761827915 3.8346787967842935
Hf 5.484059022584989 7.2352974488695105 1.8595300121835179
Hf 2.8151067326165027 10.495468272936812 8.08490360725733
Hf 1.9462300493670825 3.2139674913362444 9.033023288492663
Hf 2.699261904552049 3.3504234348324817 6.10808507258178
Hf 1.9768267625873845 6.00524555992036 10.131770220373806
Hf 2.335460733694541 6.344605685129127 5.364489939690767
Hf 3.0604275481915284 8.755287739422712 10.18061493414398
Hf 2.3287867843668337 9.298913923238011 5.523597235900004
Hf 1.2523937502389202 7.995417839535092 7.971174568781615
Hf 0.863487158194496 5.194366165450516 7.453368047630953
