44
Energy = -382.4589967 eV
Hf 12.871477588305298 6.948852537412187 6.486843781021115
Hf 12.054936864579407 5.3372644251501065 4.284963116961013
Hf 11.30606383811451 8.226739251661249 4.3555778265542004
Hf 12.054093863957705 4.269098987285301 6.861199042429097
Hf 11.110121502602848 8.94366536850552 7.318249644960352
Hf 11.202589531087357 6.306805373275266 8.847344043452162
Hf 9.509773197987991 10.231505331129341 5.351689765590549
Hf 9.52484295288925 5.775245220651691 3.0129284664240683
Hf 10.060892113488244 6.31453392148605 6.166170973915978
Hf 8.490868345133274 8.607084474211211 3.1572818548425152
Hf 9.863839497007028 3.54593100518825 4.982386615490537
Hf 8.739595604911795 8.059032388693899 8.773929847081614
Hf 9.57567923897522 3.731102046877038 8.105932733390043
Hf 7.680584335381517 8.04514423091848 5.943343131418632
Hf 6.6761662388150755 10.524201531902184 4.809228435508995
Hf 8.707747169067169 5.2943483267688505 10.431117580675807
Hf 7.508854017487546 10.72665334323722 7.610757718077217
Hf 7.251190691990613 3.6899144904637518 2.85080525391002
Hf 7.172319173212822 5.377594744189439 4.868145194698295
Hf 6.919970315780899 6.402749128552925 2.067892966351459
Hf 7.202724238173849 5.445966425355795 7.87890402322659
Hf 7.399167301909369 2.632979280468808 6.48747588459531
Hf 5.295880504302534 8.088134692836519 3.829995826395806
Hf 6.874285064209036 3.233916171812857 9.56086153366467
Hf 7.410799757888523 10.123103827542309 10.41777317851263
Hf 7.863600987275774 7.7347502068819205 11.614024898813065
Hf 4.987702547668911 9.044025279912129 6.860838240099836
Hf 4.896865719182769 11.95032946194417 6.692649365550309
Hf 4.605292567512519 5.3309652346732435 3.3411428175692537
Hf 5.003788329104297 3.127177573670757 4.827945147916048
Hf 4.794198592797758 5.942677242802814 6.343252460552652
Hf 4.844269219174971 2.86912076738126 7.486647907469118
Hf 3.658126002496488 10.447084995287756 4.712183580068938
Hf 5.726337890697961 7.776562032059585 9.414554891428871
Hf 4.9375976924363725 11.036546700363086 9.365526785760052
Hf 5.968133130834992 5.600904732424906 11.454282002642195
Hf 4.191242902124895 4.8330859616285755 9.172198711606132
Hf 2.7604187739814976 7.805998718937409 5.30168986607763
Hf 5.190276402460354 8.881588852862146 11.928504001132055
Hf 2.537547923200705 10.230902887864625 7.380985069896942
Hf 2.639215235061618 4.396299453224952 6.484989664244108
Hf 2.5186127654728807 7.142807979450531 8.133491886357056
Hf 3.385506326243564 6.771013983188011 11.023283907518683
Hf 3.0021176760159634 9.219126111916326 10.010397022253398
