46
Energy = -399.25147178 eV
Hf 10.896936138672475 9.360792545493782 8.37188830964034
Hf 11.613235259848869 6.579251381879857 8.79459220240065
Hf 8.498343372750284 10.346797466403396 10.211821320272009
Hf 10.489334398566076 8.185024243920438 10.950747113833513
Hf 11.544347593216264 7.528842987030896 6.00383439118652
Hf 10.363562596287462 10.083953299460056 5.6541485338739985
Hf 10.519874593285644 8.747837172173282 3.2227793968670095
Hf 8.463521227187952 9.010758501753424 12.706855947732182
Hf 7.8736905405791395 10.68713650044443 4.372738702761305
Hf 9.041246276796581 6.17760736311026 12.577715278992217
Hf 5.618443580655218 11.128768773010151 9.046169572678478
Hf 8.039044027246337 10.16330778889372 7.286093773906578
Hf 9.212616775160901 4.877598337175444 9.695353205612925
Hf 9.029368315328036 7.230241845993276 7.706645632230133
Hf 10.52319514780589 5.448877749224525 3.9550602616005595
Hf 6.930280023871589 8.942497387461762 2.4813057796666644
Hf 5.801097553350487 11.567990264355819 6.203578730275893
Hf 10.602971332359678 4.712697662030086 6.835645459997976
Hf 5.78198202432761 9.55650068571463 11.593598723164542
Hf 8.528008704128464 7.7515797711509835 4.773820092232007
Hf 7.5921937776100865 7.446348898931929 10.430907992204684
Hf 8.922999828672975 6.797409268149262 1.9695689703452337
Hf 6.383124218468381 7.1491070415607725 13.064891290134257
Hf 6.620877615097504 5.434509410267214 8.470699671796702
Hf 5.69091576788104 8.351500726861508 8.233481380973856
Hf 7.796882893688376 4.986200276509727 5.486180937716227
Hf 8.301201546113942 4.195194505958787 2.6476217498561176
Hf 6.69325884671778 4.8229821783299975 11.408542242455193
Hf 3.504536568828035 9.311381425024129 9.813580540208196
Hf 4.135854238408116 8.138518011367186 2.7457437789585826
Hf 4.594691056799013 6.778622008708487 10.696774525219308
Hf 8.665639221885987 2.7702882675758005 7.615483575768336
Hf 5.784855711055456 8.645426604389563 5.249095712878333
Hf 3.544804716229683 10.064966593008556 7.0463080280587915
Hf 5.076980057014207 5.814004176580019 5.863246915136272
Hf 6.18278475631281 6.155338810019395 2.7648089841355463
Hf 6.643383700357044 2.7644497188939385 9.407259701821486
Hf 9.04659356862521 2.6645301756599724 4.86248499862033
Hf 4.353945620301396 10.610533798137524 4.006312102129631
Hf 3.0660140771797875 6.984238900598799 8.016518942792494
Hf 4.070634169957373 4.277491229403111 8.653576424625815
Hf 3.3961624959931034 5.541645132936524 3.4636855870851213
Hf 5.830254944783011 2.8978321859494205 6.678819779267736
Hf 2.709230116450978 7.695385630659523 5.217405921592648
Hf 5.681848650203772 3.612857586371197 3.910291281112167
Hf 2.6495485660452633 4.638783490955059 6.097666765763076
