46
Energy = -399.7802371 eV
Hf 8.810508717084746 5.46090830678441 2.4868397700874536
Hf 7.563201717470062 3.6427065437907893 4.215022163225217
Hf 10.118377939075922 4.451271888111723 5.1331276673281465
Hf 8.334424085112287 2.0169867979732428 6.385874924805612
Hf 10.993998240556408 6.869690960228039 3.746492309804925
Hf 9.073969872168417 8.36248173634703 2.4765536630384877
Hf 5.151052706358161 5.13985399501151 3.5582650565412344
Hf 5.320683618057971 3.0878488650339952 5.848879956992755
Hf 8.8874468912656 2.662336782509508 9.191343506290782
Hf 6.085486296406931 8.004227606627062 3.316136079603005
Hf 10.609909478840239 4.876456745104225 8.060180387990687
Hf 8.27784299612318 6.815538066693843 4.808782192617576
Hf 3.018557820754151 4.713993180542001 5.316288190840215
Hf 6.095997057952302 2.0616338985747182 8.498266726860328
Hf 11.703819336578613 7.088009271459381 6.512535570110613
Hf 5.525296733250657 6.404492859246682 6.06053175742461
Hf 10.02105185496297 9.298815893312645 5.1765953181885855
Hf 7.578985329163826 10.538838786436955 3.4962278386284678
Hf 7.694169771149144 4.534300509609487 7.337278895225461
Hf 8.976599380648649 7.221769789692287 7.518585704426806
Hf 3.4244431474923087 7.473213948061073 4.5536794786775285
Hf 6.803758039403335 3.5534317445602 10.772128763442828
Hf 2.7631588720293307 3.4048907584896084 7.86292959807988
Hf 4.943401184289368 4.941970145574938 8.64750208043831
Hf 11.024886442889768 7.579232508693594 9.447247226453676
Hf 6.834883039622961 9.239898861795607 6.136525107509409
Hf 6.883925809504241 12.256137505052369 5.536366598428466
Hf 4.835361237708886 10.407103573954396 4.529995689644398
Hf 4.113983331130166 3.057053168842618 10.579999800354997
Hf 8.702291772817215 5.6323879360392475 10.001110882546207
Hf 4.169904126032664 8.793028408443163 7.401957356344537
Hf 11.518802186698824 10.034628169173985 7.687836475029506
Hf 6.404917088614428 7.367414732052454 8.93472156068123
Hf 2.3885412242813744 6.380467240651536 7.496278324800287
Hf 2.4125312693224434 5.167734599026113 10.126753267370685
Hf 4.922202383902317 11.51449448027358 7.259279729303844
Hf 5.09882451440506 5.791924906571079 11.40569727123226
Hf 9.651517192757844 11.983480527628185 6.305858951937957
Hf 8.676145637784307 10.064508857217506 8.415717458089796
Hf 10.691801870644458 10.157167424133686 10.573135805226588
Hf 8.298840135540793 8.527742963328041 10.939041266410548
Hf 3.6071981866721985 7.67590233959508 9.910781419212299
Hf 10.279688005063393 12.400782256665899 9.027054066515364
Hf 5.899807434453492 10.110967254138057 9.684913164298033
Hf 7.4413687547611795 12.684302926804857 8.297765963622917
Hf 8.221716106868744 11.481986420760233 10.859925012632537
