47
Energy = -406.36171267 eV
Hf 7.3479302526630965 4.191819918722575 1.9976026667956137
Hf 6.666721063988166 6.835334562414998 0.8731656106272612
Hf 9.169071673844517 3.8115916950755655 4.172708059970884
Hf 5.911996721991681 9.602575275293551 0.10116030698593033
Hf 4.6100700920176 8.348628670788246 2.1544192876428023
Hf 6.456203943013243 3.0770111162272156 4.495489305590585
Hf 11.149936747317883 3.577188337170568 6.532618156975568
Hf 7.587362391312071 9.25731248231247 2.244107154395753
Hf 8.311154348365806 6.633018092427539 3.3683772212392378
Hf 5.498048483100703 5.819519231306658 3.4993328292144996
Hf 2.898697011110072 6.579178725983537 4.657228398704126
Hf 4.389511543312271 4.454615414413194 6.178353112376901
Hf 3.2569951996051305 9.611878894886598 4.512717887077807
Hf 8.43504491113992 2.9129032580198513 6.787827637027004
Hf 5.473395705999079 10.893505066253734 2.941643347212427
Hf 9.760131179536945 8.98644441132548 4.724278987921269
Hf 10.27905421360843 6.084482179228557 5.613750288207786
Hf 3.9255161692059937 5.214997707526124 9.477628985736263
Hf 7.208129392144519 5.551911212034998 5.9641753815088405
Hf 2.0314204580829607 5.729680017814203 7.266707897512794
Hf 6.43448227997054 4.163639617646209 8.543567813962268
Hf 6.1351323941977425 8.655608426528492 4.848517010191224
Hf 1.6291555188616595 8.349000445852182 6.463548790234815
Hf 9.170897290270737 5.400656678395846 8.502900280727598
Hf 5.787300968534164 2.791167682083182 10.907493051879056
Hf 7.834326179960637 11.05117893849779 4.865270735297501
Hf 2.5397614586550756 7.933079309463161 9.167196271195763
Hf 7.857900439208858 1.79462558085504 9.451358606673907
Hf 8.485073018918358 7.977212579723112 7.200639287943879
Hf 3.4836125607190733 10.225674041641625 7.475143837358278
Hf 4.459609389505235 7.31501748377047 7.065793610448409
Hf 10.570451770941906 2.9784293823214725 9.19488336996774
Hf 5.115812214522023 11.529483311256435 5.6031043458668455
Hf 12.034424195920037 5.768147312614547 8.122880505143016
Hf 6.050806177562716 5.474122182737243 11.839214143981899
Hf 6.388376836634659 7.149589907867837 9.41590087104238
Hf 6.5463858344182295 10.170539730833928 7.609471480097968
Hf 11.463537071235692 8.424433949551496 6.879261265835609
Hf 8.511240623748487 3.9235870238718045 11.202930593942076
Hf 11.045036939968995 5.3678170869391915 10.737127882987519
Hf 4.064010746571891 7.368312959030286 11.434270884432204
Hf 4.9295713673708335 9.740251581291187 10.04322616928259
Hf 9.630219454362908 10.522877707975592 7.357173848319597
Hf 10.684435286183184 8.029778191991916 9.547197439205446
Hf 6.482368555097832 8.436298079936442 12.075889831407313
Hf 8.095612696405958 9.572251447999559 9.96859803134595
Hf 8.769982198520994 6.9929508972036345 11.43184553981483
