40
Energy = -343.02783193 eV
Hf 9.73428367290211 5.189412092305558 4.059915527081802
Hf 7.008966557600948 6.25571645726216 4.211097887189205
Hf 9.502582479652043 7.880645477221083 4.7984732943082875
Hf 11.321333217191963 9.109826948371401 6.469092053585035
Hf 4.78574833706399 5.784902558610117 2.2262189359081064
Hf 6.705306034248758 9.323919565353926 4.819531541960529
Hf 6.800991670511862 4.039556724548666 2.4888944088851606
Hf 9.251931901267614 10.96421924151456 5.238464874328527
Hf 4.2353202677626784 7.799625314445711 4.190410541141425
Hf 2.4790751945731926 5.63739858010083 4.117578069679425
Hf 11.73175871855291 11.98754320752575 6.289631113970999
Hf 4.187956151672846 9.781289153772448 6.307813650534531
Hf 7.772549657517765 3.2802706717361305 5.061220630519694
Hf 2.1109653835079154 7.77090839651505 5.966093944496769
Hf 6.7786058080551115 11.549799984929187 6.712643337253866
Hf 8.322053292493054 9.149147371596605 7.418066448273992
Hf 9.349406223360635 12.876532711170896 7.320839379501515
Hf 4.885043504435716 4.194499040657915 4.655519911315554
Hf 10.662174272036525 10.709746020816715 8.621089062225018
Hf 5.675214308257468 7.203700186581025 6.936847812005589
Hf 11.459083698893451 6.064068957120931 6.300109554524856
Hf 7.984590939518428 11.339150466086647 9.465032274750113
Hf 3.285993464041367 7.926696291177035 8.565194828183598
Hf 8.63236182748214 5.598414675919849 6.86011460554159
Hf 5.971207323881541 3.990595523581114 7.3653213378741
Hf 3.253157505643232 5.389233394050155 6.955169776205794
Hf 10.309693836286879 7.399704832294026 8.797443111048631
Hf 10.576380210460291 3.379151568295191 6.042124709832521
Hf 5.583623509429501 9.696363990819773 8.83911110709338
Hf 7.253450750001226 7.567523545660245 9.868731086455636
Hf 4.781884472494902 5.699009645493688 9.538178013520005
Hf 8.54878472608477 2.7159362561326352 7.804602995886032
Hf 10.63100770718714 4.461742327648838 8.715338162458469
Hf 9.317342204772721 9.278709423356123 11.087716706504903
Hf 4.832716419217288 7.90734302794458 11.475976576500443
Hf 7.811758746436773 4.557090842554922 9.69798070220617
Hf 9.303581368914973 6.292847667615224 11.465035447431124
Hf 6.557166564251464 10.135371362646499 11.59743935214365
Hf 6.455875594725288 5.598388110109679 11.965880552650342
Hf 7.471745862632148 7.96529741612291 12.922660771778826
