47
Energy = -409.21184783 eV
Hf 8.902711563684145 8.165645931772545 2.589284451361447
Hf 7.975564018438798 11.006067650537743 3.3579430593589397
Hf 6.144076025751798 8.831431666254232 2.8046056860019597
Hf 10.666266668126477 7.207404932436871 4.587172032754552
Hf 5.337678734066521 5.754283498980501 3.159615814968189
Hf 8.381887268230555 4.877548925149539 3.309080766082003
Hf 4.757125864031805 11.032222646574478 4.19920624504408
Hf 4.47072067789952 11.759144700969715 7.00709200576284
Hf 7.502706250563542 6.976922327423065 4.8971978837318435
Hf 8.933738653839038 9.362382589143754 5.5860549142776525
Hf 7.235342307476709 12.173874105181538 6.0559379556720225
Hf 3.098066137374879 9.255609998306513 6.413254285584213
Hf 3.8719570803126024 8.130036725766628 4.070763275403074
Hf 8.403102884686069 2.2225890665876933 4.500332601954056
Hf 2.9686521614255525 5.435288930608087 5.209016699417412
Hf 6.61675277467321 11.703308472560284 9.058939999113173
Hf 5.9211042809874135 9.412219285694423 6.087889385402073
Hf 7.704388058611718 9.088938712223179 8.375921297839035
Hf 9.6380173313124 11.540467638266618 7.986931082580923
Hf 10.017605172889368 12.00306084229915 5.193268111731125
Hf 6.354516026532879 2.9181492428787834 2.7191735864380093
Hf 3.0277465303282938 5.531548160982942 8.369350270047262
Hf 3.91518355512325 3.1431971614507765 3.871416636475099
Hf 10.83185777528852 9.968953395645848 3.5294704004491417
Hf 6.2860603532282004 4.162608906197986 5.3887614768590515
Hf 4.440027997020966 9.730800477598994 8.954887605909088
Hf 4.959538015646558 6.78579881076762 6.646289992917781
Hf 8.923767819064826 10.39260114043004 10.621422950083563
Hf 7.570422215143426 6.140088264137132 7.651295393078805
Hf 11.588787901003704 9.764008623922853 6.379785828442938
Hf 3.1168989135996177 2.8736470812315975 9.53923729069515
Hf 5.50226816909377 7.032868560529993 9.607839836269465
Hf 4.085043446438405 5.036983159403366 11.108207637332756
Hf 3.6785982163326136 2.923033834792072 6.729486091961712
Hf 10.76298174232628 9.139102187325971 9.097326236332375
Hf 6.3946909183231835 9.45943316283147 10.957957242163422
Hf 8.64726253088109 7.28648077104848 10.263375962568473
Hf 10.20672402180301 7.0106860092244006 7.42104075020215
Hf 5.736170381981285 1.326778365380961 5.238494857611777
Hf 9.479127852390105 4.384327250723809 6.089573655488575
Hf 5.71457119603103 4.04894186460848 8.856804183970983
Hf 7.077577489608603 4.8296150078481865 11.326314125299442
Hf 5.2574901881193155 2.4844760940742967 11.321251431167866
Hf 5.365303561424897 1.1989482292905245 8.616587616187344
Hf 9.177928323856655 4.320218887940851 9.14942128763303
Hf 7.827772782685723 2.205314112472649 7.320438396922655
Hf 7.680725275081762 2.153299053967888 10.169621088260174
