49
Energy = -426.53523772 eV
Hf 12.055831862744942 5.479508586422986 8.038789969400304
Hf 11.158078417021365 6.39070578395587 5.283392860182165
Hf 10.728809074832192 3.3909766175040654 6.448302005460225
Hf 10.905705962762314 8.284281133781837 7.5837355694551345
Hf 10.217212403289803 4.213339820187398 3.7917783382766195
Hf 10.350815629145066 6.743894020172792 2.3026391500049668
Hf 10.827260294523164 9.172235511404917 4.430659106859079
Hf 10.065216138408612 3.690971211892616 9.445238524356814
Hf 9.333068239950517 5.824506080423069 7.527320133114832
Hf 10.432215979247504 6.660220546224707 10.190451633027509
Hf 8.218830978483966 2.089204170296304 4.5462310461483355
Hf 8.536092819650946 2.122647052006535 7.574072056026881
Hf 10.094837096376876 11.001603198103336 6.657019150201772
Hf 8.743993448024014 9.94450024258671 9.171399583459527
Hf 7.831224971849239 4.569386751152317 2.5496583014760166
Hf 9.085347590736038 9.312234510925247 2.083411629215708
Hf 8.174420278439392 7.725381287724991 11.967845706318787
Hf 8.315412611582516 7.2521121880030055 4.125611185202239
Hf 8.24328004062413 8.888113538820718 6.528340763546765
Hf 7.718928696409105 4.5550738143823954 5.533563033257385
Hf 8.476086240466785 5.070661792262439 11.330665766372583
Hf 7.485217061705153 7.126079895567236 1.3667125610818711
Hf 6.9677812643550805 4.568394914885478 8.68821903071649
Hf 8.481948601438186 10.961123146728626 4.279204928028126
Hf 5.989458702679202 2.3232100203051163 6.724021921325795
Hf 7.473470971188779 7.4614591058790305 9.221458247296267
Hf 5.557012875944553 6.416104553973444 3.728244450486087
Hf 6.8701492049737345 2.6357306173097284 10.215166104184078
Hf 7.230064441127417 11.730779972283127 6.860077790262754
Hf 5.5890488903045 3.300661690082876 3.933558105929416
Hf 5.677662880427285 5.768551445828664 11.229806863335465
Hf 5.883940706071574 9.063070682742259 11.132628986820158
Hf 5.6858231382080575 11.664254894978052 4.3331846166669035
Hf 5.495938261417795 9.033808492563015 5.683659652139544
Hf 3.9316061992747393 4.153845199633424 6.075564255369743
Hf 5.709983192331446 9.899018880198536 8.484920637246228
Hf 5.672573280280178 6.345849982344023 6.748011495727972
Hf 6.233940472093171 9.303829802335782 2.759162273760624
Hf 4.093502730856332 3.9626207140102796 8.968419706963997
Hf 4.254881977178109 7.282095303553807 9.159791862987252
Hf 3.148819466967447 6.8801441807458765 5.181032750526826
Hf 4.103394593552641 11.455676644565003 6.650008761604158
Hf 3.41260752121496 7.8036122919179025 11.88180601416243
Hf 2.573820510877456 5.446762680387705 10.707757957907722
Hf 2.7561207910878696 8.9130772272382 7.1094414435080475
Hf 3.4112289720123883 9.888997956571366 4.195220974581686
Hf 3.2463315326302715 10.037758931506316 9.901251853497719
Hf 2.068667903298479 5.825097291072984 7.759113316676501
Hf 1.4608663208110566 7.891188230358624 9.726111272122445
