45
Energy = -390.95405991 eV
Hf 8.538493591893076 9.802331322185573 11.04881455525768
Hf 9.656276271063929 7.4444844118202385 9.63986627394074
Hf 8.158063276653774 7.143251126054834 12.106568616286879
Hf 10.932263903852515 7.029860395722205 7.10646005472866
Hf 6.286991074097868 9.185881919940721 12.667831285781634
Hf 10.235792355314821 4.467128811397904 9.003882049182373
Hf 10.457983845180907 9.909213011544026 8.005963346875472
Hf 8.031804883224545 11.291906908510876 8.71429691607722
Hf 11.242390196112442 4.3694824837075235 6.304311471357432
Hf 5.633704429818036 10.885900995660604 10.38038759212048
Hf 8.135994517806926 8.499313471514865 7.349313527353715
Hf 6.248720484420333 8.163593632766375 9.857212770030994
Hf 7.3158108944350975 5.376394962252108 10.029742367109936
Hf 9.457968565897996 2.4477032163416994 6.920080104792728
Hf 5.381116686523188 6.402150513940578 12.101866779806317
Hf 11.122857297354837 6.153294982194538 4.016316700895254
Hf 10.19123447892243 9.013640431258766 4.985385494207805
Hf 7.515002395163347 2.839770826177979 8.899927744100916
Hf 3.826432109623147 8.683789147052927 11.446208575322746
Hf 8.387061587863814 5.234524216824443 7.102066704111612
Hf 8.496123521350397 11.107632369539006 5.931085871618078
Hf 5.651880314490105 10.639982109457822 7.311788995015982
Hf 9.633502736452378 8.013736191767096 2.317000111339358
Hf 4.942430757938353 3.6064027135494894 10.247958061344766
Hf 3.5424630811197773 9.310211750281239 8.761204384603516
Hf 8.392899856885844 6.486612490035385 4.4680273334042315
Hf 4.902886729249933 1.8969051524616878 7.833866286831448
Hf 9.376969281416747 3.5409867888978845 4.209187611651008
Hf 8.027085845544732 10.278180164449383 3.0218646524900814
Hf 5.382470827771805 4.698061023434888 7.616520762506046
Hf 6.804979971216992 2.886441861207175 5.658487900509653
Hf 6.455090826222852 8.833860385230095 4.77959914698186
Hf 5.902816488865378 11.679926258469997 4.52507250691973
Hf 3.7297843810548104 6.402605535663187 9.540975407393702
Hf 9.101349896550644 5.380680321158047 1.930768569537626
Hf 5.629174020738795 5.557034545861784 4.905798734581062
Hf 5.0961527857944295 7.711113469257752 6.947960501103729
Hf 6.680527089892919 7.229651760974113 2.1485858816268113
Hf 2.7957916413573747 3.7903753815942958 8.314675456819451
Hf 6.8263493878620976 4.133889231457966 2.8351561021760583
Hf 3.7162334645473263 9.846693502068485 5.177365267498582
Hf 3.7862190688814867 3.3183292901969694 5.604825206932139
Hf 5.094477714405806 9.819418126847006 2.546510767601418
Hf 2.9591324315837473 6.015494650158807 6.372839339173636
Hf 4.000633686830901 7.451537550340488 3.693332187355895
