40
Energy = -346.01906756 eV
Hf 8.004657179885431 11.79856248854585 6.838211776777949
Hf 10.380931815827234 10.791749397887678 8.0504814240361
Hf 6.862555082843649 10.523934589062891 4.567060351270303
Hf 10.039883825618293 10.468784086927778 5.11252675591057
Hf 7.681604495242561 10.324996315437177 9.393186005634698
Hf 5.575510918183881 10.0661243447076 7.23669180181016
Hf 4.306735179936963 8.714506060133626 4.946317613407861
Hf 8.588591673149867 8.952786514839547 7.018032012953345
Hf 8.706190718885255 8.991021033660857 2.9682888017615996
Hf 6.025998007715798 8.218044263693594 2.467099929078708
Hf 5.0571211380278145 9.089732310298768 10.128650637799936
Hf 11.42335638879794 8.346383335512245 6.963613829191154
Hf 10.414882872053482 7.540793894005349 4.508030569823192
Hf 7.505411982487363 8.644259011045163 11.710965046848328
Hf 9.922831757897118 8.27362259590499 9.661756326079514
Hf 3.3092237723532465 6.946087116592031 10.187570625518024
Hf 7.3127609552260555 7.166904607630946 9.242372260012655
Hf 7.087320468131997 7.648795811343366 5.092120377805676
Hf 4.93564114733584 6.995084371642957 7.6304609638302985
Hf 9.284293007017702 6.125369426191269 6.657714011141381
Hf 8.749537872761112 6.196261061915952 11.573641042679707
Hf 2.7632272900542216 8.51803916303206 7.776899357293541
Hf 8.366079509476412 6.028009620054814 2.776435210435598
Hf 3.1073873194507455 5.958436463310278 5.47396156610294
Hf 3.7404954582543173 6.63875504748615 2.9109992714912107
Hf 5.949129696828848 5.218464144384738 4.539372734396351
Hf 9.853160892501622 5.237193782286996 9.224177463699993
Hf 5.703387525614206 5.346980405114386 1.534918199789602
Hf 5.774090819418654 6.366991589914772 11.53353689598131
Hf 6.662493804112529 4.722223964148934 7.376394900830863
Hf 2.342898928093072 5.5634980879338976 8.116889503588231
Hf 8.808727849755938 3.923126163982388 4.855641519689012
Hf 4.477022784347703 4.309744048179655 9.646425475548295
Hf 7.463595853739761 3.9377742628032766 10.231689398031751
Hf 7.05627823676559 3.3034667199711913 2.764273198050314
Hf 3.995864336629811 3.478271145716003 6.718195350628197
Hf 4.031599108520765 3.7193171527402917 3.4560679489751056
Hf 8.74509287101811 2.915852012836816 7.657859730826127
Hf 6.523863251212481 2.334641280693893 5.5254173589770925
Hf 6.004462112395646 2.1872994670444097 8.399266482847903
