45
Energy = -389.88043974 eV
Hf 10.039563198726926 10.91213890440845 8.381533214218845
Hf 11.540961037171138 6.087539936442386 8.91187678868673
Hf 11.341759798886388 8.63856490559717 7.239239979121662
Hf 10.182436093667 8.46637164046502 9.991288446457197
Hf 7.506385957281217 11.857877025822114 7.586113749112566
Hf 9.251109845832515 10.17164685969956 5.653736570957067
Hf 9.193497113989576 6.855665938693161 7.400496427238618
Hf 9.733308274164033 7.197684621510166 4.604460092280001
Hf 7.9503062660923804 10.763397852483557 10.526250737275115
Hf 10.047299526850386 3.800718245045966 9.428083854312252
Hf 10.09910673136076 5.812917910607629 11.443787063042619
Hf 6.473701782962397 10.943458976872758 5.004739872275162
Hf 7.848962904998586 6.035267631011474 9.678778149473256
Hf 10.124374250026834 4.300226932320265 6.489651196993366
Hf 7.722992529316447 9.19204159220215 8.123989517614742
Hf 7.956228819367563 8.114765466430791 11.860334376321235
Hf 5.345800540400228 11.1255576780097 9.437875782056787
Hf 7.887291400156463 9.404181023424938 3.086244495695454
Hf 8.359479088643651 6.812924506721796 2.1291413655333775
Hf 5.460185192267682 9.676331401987472 11.964328014157035
Hf 7.862031278973791 3.7192130747813392 11.199888973463958
Hf 8.90546927212173 4.163482466206593 3.196197795204968
Hf 6.918154587381362 8.136759750383824 5.463730409164193
Hf 7.634838870161211 5.214267150233658 5.577330431110277
Hf 7.560408258779331 3.5111499349664492 8.048205043295882
Hf 7.907583920540367 2.4526976746618727 5.343477763595605
Hf 5.716769990287547 8.102990743533294 9.728804328277327
Hf 5.9388137468145 6.160479594568625 11.969178909142812
Hf 7.1510477547350275 4.614790045497916 0.999258777836879
Hf 3.224891332252062 9.353325397277166 9.959408595336258
Hf 5.556371676425798 6.163910073250588 7.522244137499706
Hf 5.32002675386044 4.269341399438444 9.824045132497663
Hf 4.714737267472867 9.482791322560153 7.073182067134434
Hf 5.680463052710204 7.130311614364975 0.865762720256943
Hf 5.792850698499056 5.771484519441416 3.376759124811214
Hf 5.023108695199735 8.754802391041526 3.387578199887438
Hf 5.1892126892587935 3.4993304530204354 6.017247246140422
Hf 6.064445291393716 2.8623548665749525 3.1155108228195694
Hf 2.6627056055105154 7.5735711695979 7.846046766402692
Hf 3.371497868390465 6.315234359947339 10.215534413492513
Hf 3.734315818484273 6.670414645094892 5.380186014541703
Hf 3.0345263340959434 4.833027928117925 7.677148006246705
Hf 4.386516025555601 4.464718821887042 1.1884656831313125
Hf 3.2210924384132418 6.691463546152748 2.4595951970066725
Hf 3.382927698083783 4.135754299370507 3.806727546086058
