42
Energy = -364.39171958 eV
Hf 3.483806024808576 8.753178601323668 10.13885803504209
Hf 4.229170732781998 10.30960659176856 7.753606248866399
Hf 6.0508020064788415 9.857193895841935 10.199181558088686
Hf 7.771996289435614 8.65102670354426 12.114650431323088
Hf 5.4184405113558896 7.045300310647512 11.290516509990539
Hf 2.2400231133518105 8.145676648678103 7.850218894330291
Hf 7.0267606999297465 11.377621909595769 7.770982690382037
Hf 3.1928358992790216 5.862096699565708 9.374767634539294
Hf 9.021709953293716 10.18258522134086 9.919110143942065
Hf 8.079748380713971 8.746768987977783 7.117283348455177
Hf 9.860602448734285 11.169907878323112 7.416019109646309
Hf 11.870470869480506 9.55036187762322 8.60934109100343
Hf 5.1720084337104115 7.353593692040283 8.126510205028923
Hf 2.9552485938911115 9.251740702583305 5.2744417090606
Hf 7.830175952579054 7.2239468546489425 9.62756378913759
Hf 5.422825734988308 11.09262927506967 5.091238053941405
Hf 8.396158772265048 5.828530106376152 11.857220544356325
Hf 3.0453692433184103 6.2295569106705315 6.079607471526459
Hf 10.528161760289327 8.050256631003311 11.361686639687159
Hf 4.609022469958298 4.0503810678778045 7.2283593806634
Hf 6.0063942322472395 4.779385455592692 9.68997584212052
Hf 11.044008013730084 5.316120508206215 10.778162584731014
Hf 5.650078157157536 8.140337388736734 5.049474722499633
Hf 12.941968751398058 7.066307904009047 9.755673993338759
Hf 8.401610346396112 10.813124838442828 5.139368796004758
Hf 4.399449180392954 9.560686016701554 2.8117059073653667
Hf 10.41190487156964 7.174202001529119 8.459001448693277
Hf 9.14040673642658 4.370155167682556 8.912656743227906
Hf 10.850098594521635 9.033393512630669 5.765278392992314
Hf 7.358951214686049 5.4944050834539775 6.713044580959783
Hf 7.013449587944605 2.7257511250918522 7.958222563251766
Hf 7.09585029765559 9.722258173852024 2.908034405610058
Hf 3.3981442811832285 7.057475007758054 3.3531167050422397
Hf 5.259305831706206 5.158715887028069 4.365001386748376
Hf 8.478104985548319 7.631095004623999 4.340383904336755
Hf 12.814206279733876 7.252258430718549 6.936401755085203
Hf 6.129708774530171 7.137106755295578 2.3520425986544367
Hf 11.999794181515714 4.776791909969061 8.150879532478758
Hf 10.364258787816096 5.881754999313197 5.803811346581646
Hf 9.211747581979598 3.199733765304304 6.191479543389188
Hf 6.554186601275643 2.8724571608932283 5.262952977622941
Hf 8.21616864088747 4.777838378497902 3.9418729787360314
