43
Energy = -373.3110371 eV
Hf 10.021870535724993 10.992695063031949 8.737169756050207
Hf 8.72573284989955 9.825977298763537 10.8689767791446
Hf 10.372463604661833 8.05097617350673 9.172923192785056
Hf 11.569638689260836 9.565314136328068 6.675655673984733
Hf 11.432366281358101 6.0259784401503556 7.370573526696493
Hf 10.295932561839313 5.234056096555534 9.995920625867875
Hf 7.253732750598661 11.741640944283072 9.09102565671916
Hf 9.040888176201337 11.082518656628595 6.066654557671716
Hf 7.843727538941593 6.929317215083425 10.560090882477928
Hf 11.86395922126285 7.286653846658289 4.614810936750223
Hf 10.545252583874685 9.711188240095892 3.9955002983069816
Hf 7.7041982074525945 9.150206705137284 8.18823793580515
Hf 6.071781396009393 9.442552555285644 10.657769646050923
Hf 9.366481890617361 7.933103598395339 5.859564051780109
Hf 9.803780579993246 3.3746942887666727 7.805197374258573
Hf 8.533323801586851 5.993884986632425 7.88738155259281
Hf 7.825377126294336 3.7476438484241195 10.16402443396217
Hf 10.042497240654173 5.087978028502248 5.135884356948182
Hf 4.740751259221084 10.356216916442882 8.447421378944977
Hf 6.037384042795285 11.269390318395084 5.937954631024829
Hf 7.655842797215511 9.568110024610169 3.8860381098065724
Hf 9.353078887667394 7.194126922848302 3.074656242069624
Hf 5.736000118232322 8.363776798076284 5.8593010572141315
Hf 5.395500613848807 5.26068031994939 10.649936338744638
Hf 7.321219565352253 5.92809225389224 5.103069319457778
Hf 5.186389352303232 7.388738869026425 8.664797785887071
Hf 7.877697337000439 2.9789718360367834 5.6294217399613125
Hf 7.307770811189329 1.7774922931312884 8.103857102840179
Hf 4.807573457829758 9.910426365058443 3.5993675953683444
Hf 3.389146835015924 10.09555073075008 6.014543661277501
Hf 6.071205189054201 4.431564868101235 7.791260178379691
Hf 4.802421051424573 2.6587774006269878 9.361487065434206
Hf 5.640176774009449 7.0485311527139505 3.1747332098030725
Hf 2.582185342021902 7.594265810691193 7.212701347600635
Hf 5.184438529917457 2.032339368176131 6.137753925420646
Hf 4.327417317607949 5.4252909412356685 5.690982028583691
Hf 3.242676812494426 5.2593319768538915 8.873783599619923
Hf 5.78062333029455 3.801041923015058 3.612200189769551
Hf 2.889671599711289 7.799111348008419 4.364599217818435
Hf 2.7273653286403166 3.1455546563713037 7.2197911738121645
Hf 3.2854890933896606 5.305392027479678 2.982191706184218
Hf 1.5636130375730106 5.292698192953046 5.412557635660715
Hf 3.0994218537250995 3.018718770398504 4.483708148216251
