42
Energy = -364.89521479 eV
Hf 2.764067152025065 9.867247959629553 5.7528125300287
Hf 2.104209393346726 6.989071296388435 6.430174003756431
Hf 2.227641374903786 9.065337617715144 8.446052582500856
Hf 4.145542366734162 7.790503953947626 4.1689227140850695
Hf 4.254613629191635 11.010403770079678 7.900429293748966
Hf 5.761016423976385 10.25356755030522 5.335204566392652
Hf 3.26713455307742 6.484175314195889 9.227840917484555
Hf 2.801498154101947 3.9449092010824995 7.8805288585496935
Hf 4.480822367212009 5.394478747824725 5.548097450970308
Hf 4.606944450417151 8.173622390737194 7.119898575873233
Hf 4.792100708610812 8.987071984705675 10.065308232220486
Hf 6.4496521031875895 5.8824444318821305 2.9451595042695407
Hf 7.735919571266637 12.158141914148144 6.323698119984658
Hf 6.389499591466356 8.803618577212783 2.8043249066103124
Hf 4.579727195406905 2.5199480462715997 6.233238639182647
Hf 7.631236064056723 8.561097562024212 10.848423086874899
Hf 4.001497063655932 4.054882704344878 10.562142096121802
Hf 4.773527543936688 1.9882542887343928 9.004864165407882
Hf 5.580073627092275 4.630498344026615 8.117145746067845
Hf 6.986833928210412 10.222306393896607 8.42581420800572
Hf 6.981359284003328 7.230766522898617 5.278212390212901
Hf 5.891515751261224 6.182088579018173 10.98663570939282
Hf 7.039660844007443 7.29856934589079 8.450088397023395
Hf 6.813615986932992 3.56714710256332 4.831703364756718
Hf 8.392995025382334 10.693847727083991 3.651053700480279
Hf 9.7462989384355 11.369492949306784 8.237299490963263
Hf 8.84455544805949 9.475854016361401 6.178883650688568
Hf 8.963934160866083 7.763147480738312 3.0773980540511823
Hf 7.211603547188805 2.057353681125305 7.576944920985743
Hf 10.43582701321646 11.83238259797485 5.493563388641077
Hf 8.57268993187896 5.099029205241598 7.092013518790874
Hf 9.726978717259755 8.339076698109753 8.836950664484615
Hf 7.015650112896517 3.3720171898266504 10.267712619272961
Hf 8.799275531750391 5.836381280817946 10.352067681574363
Hf 9.269683887177758 4.979236230477863 4.088995966892265
Hf 11.054299142934214 9.451658946418274 4.204562616171585
Hf 9.250780633365169 2.567470223661819 5.719706569396201
Hf 10.639701548423893 7.0609044511455 5.850289699898893
Hf 11.679336825541212 9.656196818168556 6.956343703769527
Hf 9.849981014953546 3.1751368590794087 8.664744005208577
Hf 11.089477606628039 5.855977354478361 8.542307964544658
Hf 11.248973128222586 4.295910804102819 6.285144759236664
