49
Energy = -427.41765542 eV
Hf 5.043748459012774 2.47571964422191 8.096542862121643
Hf 5.051993846731913 1.4455436455566018 5.415403532810914
Hf 5.262221926147346 4.323826068938634 5.710736556232414
Hf 4.386583443018003 9.948622969054226 10.372074660511448
Hf 5.704775641503997 9.722466465607603 7.552671178887495
Hf 10.133584170073993 3.3672416634479374 4.523123330416839
Hf 12.02336576810085 7.36597887568621 7.808746609247168
Hf 5.252896920124733 5.453007648154831 2.902809945209331
Hf 2.4947006504245115 9.771959832019359 7.983094592802705
Hf 5.199261522482499 7.665383206240797 12.028560384468442
Hf 7.429175023957522 5.94592116760159 11.316231582586312
Hf 8.45822748597828 9.594825013852184 7.8963392832389685
Hf 10.719442075282828 2.618739464898912 7.164797324698352
Hf 7.7164932528314765 2.686666394796421 6.348295979240975
Hf 10.748546282089134 9.26145225282077 9.594049251908931
Hf 2.123234822689888 8.667186087268016 5.239764804509339
Hf 6.892616578122141 7.062324790463256 6.079993970371302
Hf 2.943176006112067 7.367529927362319 9.969564534321474
Hf 6.882851582685405 11.480697994292978 9.683973137351536
Hf 9.845249912077499 11.897612433518667 8.45218453974182
Hf 4.897706537017577 8.170029546416572 4.1673471577185035
Hf 9.321479033990979 5.084421977135796 6.784088736356182
Hf 4.3928757709264685 12.007775990862104 8.247901661589838
Hf 6.614949512925601 4.887598450123959 8.3994939399866
Hf 5.856275026520282 7.39011706484219 9.35325831763046
Hf 11.610000376914808 10.09265572289931 6.805029262894715
Hf 4.073233631801055 7.443029298889184 6.951426974296658
Hf 3.433186606323676 4.9454524445076045 8.281066976357666
Hf 7.922976140005199 5.068515224366322 4.04654675419764
Hf 9.581532193494574 11.617845520934205 5.622755745610352
Hf 8.902653399637716 3.5795184617188234 9.248887905137481
Hf 2.8039517910872718 5.789777357049773 4.934820864778057
Hf 11.428582059423874 4.773808349031646 8.858414730090749
Hf 6.415469927251456 2.8296982941839612 3.387466478783462
Hf 3.5939780633894136 3.21634557974367 3.6198893047498157
Hf 1.382330183374502 6.9441233220247796 7.3741541123770595
Hf 7.760260083822262 8.912143862536615 10.864231169766953
Hf 12.47581382317226 7.904131487693625 5.046983347328324
Hf 9.671045344559282 7.9264125508610395 5.866242289674154
Hf 7.196087842083108 12.193768234735888 7.0156390217974405
Hf 2.7529047880106337 2.929131199913682 6.304515709549425
Hf 9.180362418845258 6.731182138869416 9.273689002024133
Hf 12.12820767422601 5.067396506824276 5.935660577753758
Hf 10.405687659803451 9.49084212126011 3.7938926604500365
Hf 10.566555641465284 6.248544605867881 3.6071740568460275
Hf 4.033029576755987 10.756438829239492 5.538393846875247
Hf 4.758164452216563 5.062425344642967 10.828502731821557
Hf 7.338676934539582 9.907804832004594 4.929584149715911
Hf 7.972824961668099 7.757460566797412 3.2241766163326604
