48
Energy = -418.32269691 eV
Hf 11.836701626097032 5.867525467457289 7.3308855437344915
Hf 11.743786028521708 8.483875560310125 5.752036097251418
Hf 11.538704943658528 8.453597755363338 8.783876642035414
Hf 10.849781676503419 6.13607014948182 4.3309430819365184
Hf 10.937501367308396 10.86118541297935 7.187705445626758
Hf 10.35032619444469 8.85613376575587 3.164450116012034
Hf 10.958215293826951 5.868222737629364 10.405786329275283
Hf 10.676709997627176 3.6478034706015388 5.824767118010273
Hf 10.398127486899053 8.581970607413862 11.480430551308327
Hf 9.07385125028782 10.809472423971652 4.786335616507826
Hf 9.4237067596926 10.49047128445105 9.699832032177145
Hf 8.29803997012266 4.3366531904204075 10.787497139795072
Hf 9.007270989642086 5.695339053392985 6.884062265684563
Hf 8.47352966397798 4.336798998486328 3.927893499023789
Hf 8.722563066830606 6.609158302014709 12.396951243622539
Hf 8.963009587797053 6.70249656697503 1.9598558111822035
Hf 10.026432083026945 3.543276770727009 8.561933940545265
Hf 8.14090658907834 7.405279409167416 4.3888196662673735
Hf 9.148708066239639 8.702350427261349 6.949869623252899
Hf 7.979516438564315 11.555604588614806 7.287073531622733
Hf 8.601644310762309 7.2113449659543445 9.650390904327953
Hf 7.508182318268912 9.592475844783284 2.7163183746169977
Hf 7.450142417745024 9.198806250415668 11.640254633259026
Hf 7.879937329452718 2.819772135817257 6.414046209571854
Hf 5.551837539448612 3.2223286511120754 4.549100384601049
Hf 6.452705180679798 9.281576347256562 5.779958676030121
Hf 6.2821808013178355 11.80684984958263 4.744328803868397
Hf 6.524291308910646 4.857218578737325 8.36602309805693
Hf 6.035244316372567 6.541300695054351 10.817780223362263
Hf 6.548687382170082 9.220238609668293 8.8940855226868
Hf 6.836614235974114 11.78066219721735 9.986560772753519
Hf 6.260607596218754 5.420525726938805 2.575724702596433
Hf 6.028522760479574 5.7734542337511465 5.448698154933538
Hf 5.574571899076547 3.422172310436761 10.60991549243931
Hf 5.088812973871613 7.984707345921383 3.4854174701139713
Hf 4.712353794982068 7.374801020023404 7.619297052029584
Hf 7.483850933801061 2.106410190755626 9.078935250644422
Hf 4.981932570153424 2.5916910253826293 7.751003340132891
Hf 5.022327029789274 11.577480345277564 7.57768790667425
Hf 4.430546843222252 10.415806382546776 10.352629636554395
Hf 3.343348297401756 7.781992461667875 10.203588431898362
Hf 3.790920498749439 10.303999205353854 5.183314898846596
Hf 3.62893076060997 5.002356511249947 9.332202651859813
Hf 3.7255491994487286 5.351215944414765 3.7067296002751147
Hf 2.855240480042423 9.629964074830013 7.948954701388967
Hf 3.325827193962944 4.7535726154214615 6.443325084510064
Hf 2.81977348276706 7.587143305560794 5.359208189511852
Hf 1.9022469816285705 6.886706822317028 7.9398812029774035
