48
Energy = -417.45586772 eV
Hf 12.556338061977709 5.88482217357778 11.120872677961486
Hf 12.954458923468792 6.143989057439143 8.062406596830142
Hf 12.51612138186868 8.366539755026587 9.943793142907534
Hf 11.461128050593835 8.649553859788254 7.217724987694438
Hf 11.736664233383 3.831026841942405 9.468413711519869
Hf 10.026426127722946 9.609403199780305 9.632034506715451
Hf 8.744733781906646 10.55362745063102 7.0437997870895135
Hf 11.694491736668377 6.676949122528604 5.010151674671255
Hf 7.996639052300831 11.83606994240333 9.544059050322286
Hf 10.344067895398515 6.4964962074435215 9.295076863899721
Hf 11.066329812047641 4.274843335186224 6.699317749074323
Hf 9.844376349939033 9.108765632301468 4.778602115112415
Hf 10.339094743369932 7.665160579221853 11.872936924405412
Hf 6.832514326863902 12.81393152860909 7.141520650135883
Hf 8.756890754712991 6.908398833637847 3.1917243061789455
Hf 7.576036913655012 8.05873375829143 8.314476196073349
Hf 7.763555578421343 11.678097768749996 4.423372518315403
Hf 7.545328079239876 9.478636828138384 11.014100686384225
Hf 8.840181032975899 4.005502738334842 8.884518121207172
Hf 9.746763091470763 4.617892871408387 4.169197615569652
Hf 9.278326438985271 6.570868753029353 6.456000264782351
Hf 5.802653989350625 10.335303118379178 8.046765951578397
Hf 5.4041297055396535 11.415585775414609 10.665123264966923
Hf 8.1729513740036 9.567580079750721 2.417001744512725
Hf 4.929923941708215 11.40959692690182 5.345836056543681
Hf 6.872303001913109 8.998483991818834 5.074815623596553
Hf 9.930762781867113 4.723996235795127 11.51540613224157
Hf 3.1392460553277703 10.273695080672663 9.379465973281985
Hf 5.141181149573807 8.36726360175182 10.14773482368312
Hf 8.105363046684536 3.2626402939355685 5.857427446403293
Hf 6.787003586702951 6.035113690136447 5.314331931311787
Hf 5.999598357537228 7.4877983290567265 2.604574585816655
Hf 7.539431942141492 6.313449369589051 10.720004065676916
Hf 6.845137217368808 4.427549618768536 3.2923133748506395
Hf 4.544369818508782 7.754294628228661 7.112528116690756
Hf 6.215913310210976 5.145265743975566 8.085774745530559
Hf 5.652496436053322 10.483996759791482 2.81859186182695
Hf 3.819449214013334 8.786268902157097 4.227310068778601
Hf 6.378737742050676 3.640700378381158 10.525780145722205
Hf 2.525896173647728 9.892334309843768 6.649376406045115
Hf 6.693012599625302 2.173389046573192 8.101580733792671
Hf 2.133317697920443 7.683109340487164 8.633187540825222
Hf 3.9844769154409625 5.812166143522265 4.466753781237934
Hf 5.190841424461288 3.383247462451651 5.841526337019831
Hf 3.0294448629502138 5.118067849195839 7.281478382930889
Hf 4.121364641172967 5.63620188587174 10.042617044954692
Hf 1.932006861794297 7.318057786564038 5.822254275907419
Hf 4.198388542371742 3.0822780121810154 8.764265082609073
