44
Energy = -382.24981711 eV
Hf 11.034302510448185 9.320857856562702 10.353049788510097
Hf 12.91792731628589 8.447933681170579 8.557036810543995
Hf 8.69141260142817 10.907968669736585 9.803773194765332
Hf 10.888471508052941 10.375092941896066 7.607622472050756
Hf 11.5969933446986 6.388652155207948 10.333987463742536
Hf 8.820492554351862 7.820216675368607 11.04959730111027
Hf 5.981431056560074 9.256764738444694 10.676916756817347
Hf 12.015286533822046 8.18383883312989 5.845962757090826
Hf 5.9560555467007745 11.032313136864701 8.472570731642532
Hf 8.320443942237294 11.39004254166176 6.877111769680199
Hf 12.606808827222315 5.866201891633015 7.42254456478276
Hf 10.302956382329015 7.400043214380215 8.11484585402819
Hf 7.722338409363386 5.771154982862983 7.876826631235444
Hf 10.237293998668026 5.789213732149116 5.552006351349491
Hf 8.939946444589253 5.055795762215121 10.419467920955707
Hf 10.368252710989298 4.3099776026010055 8.219613480703208
Hf 6.332404778195637 6.273913800077622 10.406877223398391
Hf 7.8572546741376454 8.837110384877828 8.164706177125407
Hf 8.221728337179544 3.3492044471755293 6.130462473512424
Hf 9.203850200311763 8.956001799289913 5.369463338366909
Hf 7.350372472895023 6.652574781230011 5.127441097886041
Hf 6.521377427601622 3.300305059400033 8.674988749062475
Hf 3.7441226849548017 2.6035148511051873 7.776803172930534
Hf 6.124002246892457 9.808614141617062 5.819754619374605
Hf 9.057491535286678 7.091305731353811 2.997279056537057
Hf 3.352099594635676 9.857802985984893 9.346790472316346
Hf 3.9245320803196946 5.14540348348457 8.914765585717092
Hf 4.523549294940085 7.368925704810257 5.27310938510265
Hf 8.608663567665996 4.423491832713869 3.5071189155774127
Hf 3.598794978961229 7.437455977127137 10.628627763830826
Hf 5.8887657941711895 1.6322843027436034 6.213638031381788
Hf 5.406512506437608 4.478709475398405 6.238068281728583
Hf 5.105818571088644 7.856405403153265 8.190787282757721
Hf 6.526720757799559 8.767373446587893 3.0639279387240563
Hf 2.4184665079160976 4.939928361741264 6.337086722508848
Hf 3.5178754792310856 2.5980015054108567 4.991045951671442
Hf 3.880711343738784 9.828009115527863 3.8152791042011778
Hf 3.1104647535548615 9.810913474460285 6.452691262919217
Hf 6.363513432236919 5.899374784413883 2.411156808703718
Hf 2.229333834776537 7.5154385442550025 7.931431597831123
Hf 6.052175787960295 3.1596120344468903 3.6566855149170028
Hf 3.473048930634345 5.03684959387442 3.5810590655080237
Hf 3.9907261224005284 7.5421596245482 2.3601671336064522
Hf 1.95604511189979 7.623123830464876 4.563694305753219
