42
Energy = -363.16465622 eV
Hf 7.146814013206077 9.681021874551938 1.8693281496960252
Hf 10.149120343779453 10.604453714531807 10.143458412137399
Hf 9.251907521416495 11.063477670148062 7.3897096555699875
Hf 3.8839235889510197 9.852247951762392 7.91815352762613
Hf 5.493359204431843 10.451792402036357 4.045897212517581
Hf 6.605294533729996 9.488938620172577 6.857738767565775
Hf 8.334279748417835 10.692470668891529 4.327139543670251
Hf 4.113010638056631 8.339661323013516 5.343469024897828
Hf 1.9428251387717215 7.74887705157426 7.268508132797383
Hf 7.353360043743018 11.024162650080648 9.478402808911408
Hf 7.4467188516671605 6.959493533991474 1.4530527007601117
Hf 8.260047459700955 9.094085013203163 11.643982469657947
Hf 5.608557810974091 8.915537403189402 10.187582453603644
Hf 7.178511156157803 8.073138284808191 4.280628750498274
Hf 9.939605780838626 8.741645729207086 5.743037997982443
Hf 9.639404278146536 8.51023453767216 2.707556705330977
Hf 11.479594954389771 9.33472768929934 8.095564827912895
Hf 4.878577588044119 8.00777834433918 2.5481913403755634
Hf 2.849529127798415 8.06893878858995 9.874661200473996
Hf 4.735375730718008 6.993385923505936 7.822542848858795
Hf 8.719907598502706 8.523562955863309 8.708856806858526
Hf 10.961067351210863 6.557585370464751 7.632050772910595
Hf 10.819997872318893 7.722734208286197 10.45901753471088
Hf 6.286296448225688 7.158851435904994 12.603923451972769
Hf 9.368068882978813 5.932847282294634 4.681369434744156
Hf 9.946432093999727 5.5797157759188485 1.8533087313256127
Hf 6.93367434364212 6.2843072740256485 9.86974609026789
Hf 4.255164971779572 5.942000683876591 11.202486341207075
Hf 7.6030507539184295 6.049275688463338 6.94563912397456
Hf 2.9217323092950522 5.621072898589612 5.784362323019398
Hf 2.6123523361850163 5.227820017165564 8.682367979508605
Hf 7.545097238112399 4.358559552436917 2.6540615983216265
Hf 4.849219152082011 3.9385655583625114 6.953559693298723
Hf 8.93004283850147 6.354819359249177 12.155652137595247
Hf 5.564474825000689 5.62506624892128 4.626975551914687
Hf 9.93836623687159 3.4126674855130497 3.692135433136591
Hf 9.645537696222332 4.89935510416866 9.798874844493362
Hf 9.750274941073474 4.068098221090806 6.975080485810366
Hf 6.975824412147962 4.294493507545457 11.639560236008204
Hf 7.439386847607778 3.3220033316567656 8.6214145079827
Hf 4.889030181391735 3.773505071521671 9.727819679084742
Hf 7.528664204242488 3.5865122181792657 5.408898861592224
