47
Energy = -409.04180664 eV
Hf 1.8197212686887971 7.153364224379775 8.188975123385914
Hf 1.8800095304154028 7.29001358234371 5.373443010787727
Hf 1.866733490739183 4.635691334673518 6.360723282847351
Hf 4.029123257523941 8.479847635051 9.726996271735443
Hf 5.45070228034832 10.882456820679586 8.716795723715666
Hf 3.790535382485553 9.280358455767189 6.689108524541886
Hf 4.513940511876047 10.884559349592411 4.058137792105019
Hf 3.6055098670662398 3.5583416951915128 8.520728186112384
Hf 6.196605138173671 12.14607088488455 6.265527437584879
Hf 3.7560831585036625 5.721030181505563 10.162021896520208
Hf 3.393692957832356 5.260660263195037 3.8114164312876904
Hf 7.3515012398756445 9.77306964246952 10.410967306829027
Hf 4.089366097963374 6.2450721794366615 6.9394108676577275
Hf 6.304890012410445 6.7491700945529205 11.153043540800995
Hf 3.8797440093371676 8.144538147803425 3.5076313581452174
Hf 4.571912656015661 3.3507170794978998 5.836156271195294
Hf 6.239446581875358 7.938515516732531 8.168989706217383
Hf 8.063937564327759 12.191871701479979 8.67884909547272
Hf 7.18789537064392 11.57922588172317 3.642231643825482
Hf 6.464640159746163 9.075218048328924 2.4446770008537677
Hf 5.786032912026932 3.6004739442819154 10.869508310460631
Hf 9.050431651230337 11.876840034334927 5.69773045373143
Hf 6.421921212540862 9.287651560665612 5.300553368586325
Hf 6.268841037309401 4.993597842825996 8.664352305532665
Hf 5.571648021743823 6.349608448829076 2.052328606212125
Hf 8.12868421721868 9.858054067071851 7.498751860892039
Hf 5.954314384859117 6.369495604141799 4.852480780724888
Hf 6.183003076557658 2.0286042541680382 7.905988523501501
Hf 9.032969218277314 7.7728557997117065 11.72479906713274
Hf 8.693412467048978 6.74080987520672 9.0755855474948
Hf 9.211991895675695 9.43326317424787 3.8547696009312804
Hf 6.938047245754033 1.6657712396170785 5.135851955890593
Hf 6.216869716542003 3.862579336958776 3.3732861783063366
Hf 7.615320179264982 4.272778310771854 6.253251492025639
Hf 8.743171270602973 4.93005170519548 11.266316214602186
Hf 8.841725518183415 7.219071220183266 6.179409836951804
Hf 10.305773265355237 9.247765508052694 9.494096365638557
Hf 8.281228011252853 2.826816757267868 9.417016091595393
Hf 8.458500164985113 6.265649479614935 3.481603740208843
Hf 10.912133779244812 9.655506476706655 6.238782645326233
Hf 8.972653832204216 3.209439330308172 3.949966570814238
Hf 11.163704796458601 6.551151711643207 10.387858096928737
Hf 9.345512409833496 2.1132775778756345 6.7032099546728645
Hf 10.383449146790763 4.4271457481697345 8.42447321250983
Hf 11.14050601395591 7.400852941213965 4.539728658220894
Hf 11.495466494697528 7.096346025674302 7.533245414815055
Hf 10.63858150520927 4.789686397673582 5.551386304379781
