46
Energy = -399.96907163 eV
Hf 11.061155804947692 3.880155735206817 9.675382051891425
Hf 8.637085660404871 2.8957159373231063 10.854614008516867
Hf 9.6515000589468 1.570680244389257 8.648470393712344
Hf 10.903779016815205 3.3547218203764997 6.771577580543906
Hf 8.937474638391949 5.7224410247529995 10.874000041666507
Hf 6.655894708156549 2.018416624434863 8.634172224021624
Hf 10.776869561615056 6.199271758368091 7.81604477161965
Hf 6.252462957891768 4.468026911106032 10.513812442237231
Hf 8.600420533973393 4.28581779514317 8.28246021406102
Hf 8.078287590643304 2.112385110832269 6.1686021750891395
Hf 8.929904746512127 4.733434805697529 5.21191863035055
Hf 8.758365050778496 7.5976690666980025 5.967763438601569
Hf 11.30154372204239 6.573442287421169 4.968106762282533
Hf 9.205668585544156 8.223389915407813 9.07943250711426
Hf 3.9866830709074885 3.366012266562649 8.664792014932587
Hf 4.925960645123414 1.980417595732359 6.045191786361574
Hf 6.399193543899447 7.389972818716909 10.956566315864618
Hf 6.607952332887748 3.3967704577995956 3.8583324875310745
Hf 3.7813584126947664 6.120860384730132 9.949867412647242
Hf 9.068363998394739 6.703775996086133 3.1264189474029767
Hf 6.089769240583428 4.408726817402222 6.519534546814455
Hf 11.30835553788707 8.901003100667015 6.859544311694742
Hf 7.0070963114838785 9.825624928741506 9.156818838374004
Hf 6.660201397975884 6.694857708763555 8.28093854120843
Hf 3.7856709774955175 6.23320797332494 6.8040255455507035
Hf 1.5583182666623956 4.9531805471569905 8.29763103885534
Hf 9.783793955153527 11.17574622331969 8.390652837893317
Hf 6.334767952749859 6.290858218422744 4.212332841792396
Hf 4.400564627242964 8.662421776404077 8.933914694903914
Hf 5.552268451711764 8.46420154268348 6.202929422402573
Hf 3.8928268163903663 4.52976433265807 4.165106647154111
Hf 2.4830095642802004 3.47626599876495 6.232423553838143
Hf 1.7454379667708722 7.684159686186092 8.302372768806883
Hf 10.763756697901362 11.254372627906458 5.5454619476584135
Hf 10.281156235328137 9.20622400058202 3.8048778561195005
Hf 7.8850391867734055 10.46768067793191 6.2622310430192405
Hf 2.7102349155111862 9.028672187108182 6.015670780320593
Hf 1.3529912899548593 6.248142115529965 5.612278922895858
Hf 7.202267485035141 12.583305607560474 8.277113466794878
Hf 3.6716083013349445 7.5065391467915115 4.006271213284163
Hf 9.084449480837064 13.154647796066685 6.2895683490571646
Hf 7.414905928863522 8.899593982463488 3.2175449412342516
Hf 4.922422207879328 11.160251169885063 7.292867891313294
Hf 8.398573721909935 11.671931151327525 3.73630013136798
Hf 5.386241079881119 10.523742390480457 4.431233032321154
Hf 6.38893474013399 12.954164726519346 5.54617610898452
