45
Energy = -390.37497753 eV
Hf 9.214405840717422 8.088123252023976 2.807319505579856
Hf 9.513818732629312 5.1848109410831285 2.8789550673436697
Hf 6.428786268444382 8.579814500012004 2.4643807767657333
Hf 6.827660510373352 5.85045276703694 2.6762226812378254
Hf 10.688177895338892 6.639695228337701 4.92016371938269
Hf 10.824115094198522 3.7871820265705436 5.338036827508997
Hf 7.897741511451288 4.174528963902574 5.001878254863228
Hf 11.695425915402417 3.136963520500185 8.036649088782719
Hf 10.009290520641667 9.371400280329345 5.723516518026462
Hf 12.243982347714605 5.677038679358933 7.070104420753581
Hf 7.568285111533498 7.455571516071047 5.128104614177408
Hf 9.421877937761248 7.452115821576983 7.720763633259586
Hf 5.014079796466474 10.027876846187231 4.6109930702376145
Hf 8.988233195042067 2.0896526392969474 7.1815332955950515
Hf 5.985005857380064 5.580149592783855 7.234294841689156
Hf 5.039126180567095 4.374344400438127 4.670954026250816
Hf 4.60349425322799 7.170494912549637 4.26462704823739
Hf 9.07522668659135 12.077453844046282 6.371775536735303
Hf 7.8299499219496145 10.430431396118106 4.228005521960578
Hf 9.27615344299107 4.771258694358383 7.726334320212962
Hf 6.017356164067946 2.619264458516812 6.643175712540502
Hf 9.713083449013498 2.878693015205507 9.90452548767257
Hf 6.098366935093653 12.316608570003458 6.334175493738013
Hf 3.0840164698068158 5.858488575604865 6.330205871919159
Hf 4.606231363279937 8.45912958952879 7.227996654337512
Hf 6.968337854482063 7.5016929670468375 9.211429882337237
Hf 2.303580463730896 8.751656468429188 5.571575776860197
Hf 6.949555157161809 3.2991591886069895 9.181911939937809
Hf 9.845996218805254 10.297745954720966 8.709837187362968
Hf 5.451465787050203 5.465266906819319 10.808369890480844
Hf 11.929084925790818 8.178201629230234 8.575520472162953
Hf 7.38044767821339 9.866347165949286 7.128180509297797
Hf 3.3543955740800926 11.150544452905903 6.643949812359999
Hf 1.0568644586952756 7.342277615425441 7.743231988158427
Hf 11.339825128444511 5.466556695413481 9.812251082405096
Hf 4.08953961537959 3.7698400901729046 8.423310865165773
Hf 7.639989517098137 12.335431251092132 8.714362418436684
Hf 9.749276303744907 8.034864064272353 10.66660011312603
Hf 8.441706569145646 5.355679674247731 10.745511173951055
Hf 3.4550292954612507 6.4693666443761675 9.09228521116914
Hf 7.0965751652353335 7.593997472397523 11.991722837950531
Hf 2.3974684796304406 9.548530488174725 8.719182939730546
Hf 4.712099169442633 8.599351970327216 10.625664320589625
Hf 5.051082562296252 11.100090815380451 8.953534548975723
Hf 7.4065271749799875 10.100030744959106 10.538515055277566
