48
Energy = -418.65132906 eV
Hf 8.28111795392735 4.661438298362868 11.263459625335296
Hf 9.326048694089154 2.5147773597342917 9.675656936451524
Hf 4.947905711772126 5.011620655871819 11.113431650077532
Hf 2.393372435351225 5.5185746262620565 9.520329695456876
Hf 3.614502799217795 3.0904397633788365 9.488468058658349
Hf 6.463098659810017 2.9458246522682368 9.708207321825224
Hf 8.016082801654633 2.104804169341499 7.225612259412745
Hf 4.904861887235884 2.257251578440233 7.1561513030208905
Hf 9.753576731443976 7.0938342540109485 10.180119503362357
Hf 6.856258714791568 7.125374665968555 10.271585908461073
Hf 4.087417491030904 7.667582784974688 10.065362547299832
Hf 10.637299357937874 3.475600202396971 7.238118649079139
Hf 2.855686838956008 7.31082223889798 7.258239854257243
Hf 2.6260981850673533 4.168161040772096 6.9865859241891535
Hf 8.573565185874672 9.597041857703763 10.472246312634198
Hf 5.815383008540344 10.172894153401543 10.040884684623904
Hf 4.139831587048212 2.519384061897929 4.370318375615674
Hf 5.073163607924934 5.392964246480873 8.118836870358068
Hf 8.931911344076282 2.5538808716076034 4.488581630921809
Hf 6.525193173883633 0.9806234791639752 5.088913059599897
Hf 6.497853063429633 3.9849617430216995 5.183284063878231
Hf 11.016246238717478 4.621143791826801 9.865896157078042
Hf 3.0442223959877044 9.986833817135677 8.827937919638181
Hf 8.413168240409814 5.047755925925519 8.317189799465437
Hf 6.655008194174029 2.202609866121084 2.68158866449301
Hf 4.109803535465994 5.695959888679529 4.95220583206939
Hf 5.305119158091007 8.8065071750644 7.487881535724157
Hf 10.599675976330248 9.738518827528472 8.425355953964393
Hf 10.936271076541713 6.512305058990724 7.648515651582992
Hf 2.9963617766835946 10.273888265418075 6.136788010336497
Hf 5.0340368004962945 4.3385193537059115 2.4484279294863005
Hf 8.346782172675708 8.173137020404347 7.851110639662116
Hf 9.348565117461296 5.466829200226561 5.416639592822056
Hf 6.7143359508440446 6.9103954021279845 5.703200911396225
Hf 4.74465042677103 8.801248902875608 4.464188676226598
Hf 7.992480205641541 4.7581918720674 2.705837179346346
Hf 5.03452683236262 11.774588284970907 7.616240759832573
Hf 8.053551479815747 11.418560213280857 8.412448321348474
Hf 10.415329330090664 8.78589749576675 5.638946282940051
Hf 7.495672435296579 10.134286838168471 5.504897663714987
Hf 8.637495127294958 7.7758569273606435 3.474770357184506
Hf 5.184683458491901 11.75110381997493 4.605162363859468
Hf 6.015544349400209 6.881961420171644 2.8104462669247856
Hf 6.839477979224293 10.008804331151593 2.648025904778735
Hf 7.211941539377227 13.033922943616483 6.24124316023891
Hf 9.626305366948197 10.378742057381427 3.4022320822484033
Hf 7.9118695776731895 12.492258915178379 3.7081134197609296
Hf 9.834688853755065 11.763660324979735 5.966580577551895
