44
Energy = -379.24609871 eV
Hf 11.469057053691936 6.740030294965572 9.344433116932981
Hf 10.293417019343325 4.8128093416796025 11.27150853881528
Hf 10.130056999311796 9.564611357074813 9.702479991809634
Hf 8.839548739823531 7.064423349271896 10.558487793937603
Hf 8.42535913309873 11.800220441663386 9.824769563687813
Hf 7.921267738470525 5.023710116293217 12.562048460111024
Hf 7.505985515123941 9.564404489021625 11.381391288195994
Hf 5.9655501102356405 7.182043613840954 12.677214279946336
Hf 12.172534165640633 5.9370853500603955 6.867618803895383
Hf 10.282539604089653 8.281897378413566 6.873182996958739
Hf 9.71728821055518 11.181015774369708 7.2814499507972705
Hf 7.092900619813817 12.3146646343218 7.4688477541438365
Hf 10.987779588419018 3.899536456456316 8.645438786493527
Hf 12.317690325679667 8.354578912390025 4.724480651173075
Hf 9.999920048332298 10.00109371093082 4.360414594772699
Hf 8.969217522916464 5.783099837057588 7.396574108767496
Hf 7.6515837304644965 4.385227457544402 9.708034700139034
Hf 7.539592423174139 9.434911513205398 8.236649624809955
Hf 5.296655500965339 4.7203811237867015 11.541411085751127
Hf 6.002134431134344 7.133932722493566 9.7499134857734
Hf 4.6383040153202035 9.305250454771619 11.55487611226353
Hf 5.630662910734344 11.201199981219123 9.707024363820498
Hf 10.825533566422783 3.695652065483452 5.856042906764244
Hf 8.600775225376053 2.8481041603251795 7.309477711235144
Hf 7.4248652054137825 10.697842066354397 5.219054881193179
Hf 10.42604951309229 8.085666848750707 2.4436281171885796
Hf 3.4286503679386104 6.810997996186987 10.951334945458537
Hf 3.5806218736889917 9.03178312807783 8.905831814515805
Hf 4.893531059105258 10.508040283149784 6.791598753819154
Hf 7.866516375360553 7.660917362513295 4.955031840935099
Hf 10.496274631975915 6.1862783080392445 4.516505554019952
Hf 4.300898010810501 4.716539728925112 8.912791446641439
Hf 5.263263560550381 7.298409657063511 6.719487796807712
Hf 8.300802446354416 4.017327277940905 4.701352432183446
Hf 6.253465967571891 4.374195509278749 6.869270916222595
Hf 7.830832753229125 9.2852504521093 2.5291310875441777
Hf 5.088316293053637 9.145518257053086 4.199148774638511
Hf 8.31687578860169 6.154857546462582 2.4261078074569506
Hf 2.3843603168929626 6.592995561862208 8.133523770326477
Hf 2.7400670162092235 8.451971055694747 6.060026979292877
Hf 5.841879163789399 5.524599654770305 4.290128986204904
Hf 3.43986513510537 5.123034497784815 5.995057844254343
Hf 5.807436595080088 7.345709839307712 2.1553137794919612
Hf 3.448515889225868 6.903685495748644 3.706329777258885
