49
Energy = -426.21929121 eV
Hf 4.36727237579242 11.144299880308576 6.110198984677149
Hf 3.2713474110362704 8.576973303398896 6.439588920144753
Hf 4.825215639089218 10.717203171278276 9.004496307721375
Hf 3.6166177180573302 7.845364766886295 9.366260743958291
Hf 3.336968639191789 5.923114469559199 7.165541545088487
Hf 3.2526697605016435 6.616678761440607 4.263105626465707
Hf 5.926620547382771 6.930064052790162 5.228367021027678
Hf 6.4392981805009715 11.755969989419546 4.174012187179172
Hf 4.391227028872522 9.370806668524011 3.87239897522072
Hf 6.742067153992949 12.141624074732 7.132604135724349
Hf 4.151705234661296 9.578608090667801 11.62300266450742
Hf 6.38683897980389 9.199921578052734 7.178505871956107
Hf 6.371485069412083 11.329583322884258 11.59353025247681
Hf 4.090042906641027 4.702968132918798 9.6205441176844
Hf 8.931921383083301 11.30915053865255 2.743031429672171
Hf 6.049763894110338 6.3277871858019745 8.43878998866763
Hf 5.610080448184857 4.6605835169229755 3.504406377273263
Hf 4.886049061524507 6.786200241682149 11.81773086893855
Hf 6.648426403267481 8.702084734894727 10.3366656521725
Hf 6.367041118508106 8.933905058783932 13.22714295459449
Hf 6.831139636246025 9.391522441696965 1.9557803553364685
Hf 5.118398504489285 7.123947260485803 2.2924690636239293
Hf 5.384547869557802 4.17497979144965 6.457809992481236
Hf 9.092414052104195 12.024416196333982 5.410360489788052
Hf 7.853715793034111 6.523323463451417 2.6345654815563013
Hf 8.374683123728026 11.194053463300614 9.473757648758035
Hf 6.0171521796186305 2.2729745635442398 8.974107016457516
Hf 7.036086572972568 1.9363910926688137 6.0365806967689695
Hf 8.885466771823967 9.845955844943472 11.938366030033952
Hf 8.172255295434244 6.97727778263566 12.230716867453546
Hf 6.557434984389329 4.491107832182139 10.93062810484828
Hf 8.111159445670634 3.850015369928347 7.8665892812094995
Hf 9.68413158116049 8.692034887039043 2.2061444559545023
Hf 8.030134115754956 9.226410213808132 4.552469330705497
Hf 8.599349954130215 6.912539728298247 7.039340668317914
Hf 8.088416256061972 4.615948699743977 5.027039896493421
Hf 10.88911937239625 9.932926669119647 4.487545448039285
Hf 9.414740793988056 9.814186023282627 7.195235032884145
Hf 8.602569727581773 1.0135993515629598 8.23944788505533
Hf 11.229552454869456 10.218378942779404 9.462876409939355
Hf 9.547270893107331 8.150549272881436 9.632545286095878
Hf 9.032224475570079 5.456780992811483 9.914594918379272
Hf 8.52885645105421 2.535841957447171 10.600829076607676
Hf 10.2029580660313 7.021223456114861 4.526687267765426
Hf 10.951135468866957 4.9805462613350615 6.75119725934708
Hf 9.9125005314391 2.3048295773441234 6.082989318925808
Hf 11.43755127144618 7.880842584992082 7.205440099035475
Hf 11.708285773715579 5.935932779809988 9.353592116791065
Hf 10.767789705480958 2.963559125263447 8.804150529856123
