42
Energy = -364.95784811 eV
Hf 11.613114986631826 8.245540855412077 7.036185063921035
Hf 11.651778827471626 5.286520618155659 4.446328395746685
Hf 10.63829720610233 2.938132929353247 5.857707596902534
Hf 10.52874645010751 5.614483029739959 7.201124458625694
Hf 10.085241818273566 7.302414357453949 9.537113678587856
Hf 9.79774716630923 4.311586531102661 9.623042095065399
Hf 10.077544883051466 3.2527064982233296 3.0100975612493124
Hf 10.137961255517858 10.116235344428718 8.71712006963414
Hf 10.106758280951492 7.854670670948868 4.438934962110797
Hf 10.288602246384617 10.473268142497503 5.885158626082335
Hf 8.129868328265648 2.1625588920804764 4.658189086131231
Hf 8.088723160397768 3.1427993463115045 7.415680884680683
Hf 9.789787156532805 5.930293244697775 2.3412605692574715
Hf 8.787983102526475 5.025016583019281 4.987554699120551
Hf 7.963093082638928 6.044137762912479 11.340764607175451
Hf 8.730266705886347 8.279096641099555 6.978214257881473
Hf 7.500278744296555 8.961762515694303 9.591940304067641
Hf 7.576875958776173 5.794157933409314 8.521883518879042
Hf 7.285572873213595 3.4320354898504317 10.249014470237176
Hf 7.8225448813931875 11.18368332139375 7.443203851093997
Hf 7.269140500971237 4.274704263927902 2.7108439183653537
Hf 5.690749499851536 7.848388171077959 11.60434182048484
Hf 7.346088438816773 7.251639973329614 3.1871738231985614
Hf 5.1011061951120515 5.125504213031563 11.036005070112921
Hf 5.570500824431342 9.350570410720263 6.834253290196987
Hf 5.179750872141146 3.6830441557590454 8.3521625465254
Hf 7.823509547821615 9.87403435884538 4.467474900934067
Hf 4.739968712626854 11.822966202242492 7.882359830633226
Hf 6.343892890487185 6.6465171780574845 5.9032044596404
Hf 5.8733264066619 3.796399210477162 5.346912197557382
Hf 5.911794438154426 11.732630893697879 5.272873254693623
Hf 4.720439907997939 9.92446905325361 10.13400205153737
Hf 4.783588599741795 7.136225651661678 8.763002307885529
Hf 5.0245879788531855 9.183994886019256 3.858446786969326
Hf 2.891879890349344 7.6052426926500445 10.719411558956512
Hf 4.609495543154415 6.1220019029786785 3.8286123957767413
Hf 2.8498352763584256 4.943965688640637 9.361607114130676
Hf 3.295610761083062 10.827740909479454 5.600403147539854
Hf 3.4613601257362405 5.20716257257227 6.479995848046609
Hf 2.9928479150244374 7.967464377774649 5.583810794930239
Hf 2.702719318123097 9.694513813259517 8.211414257562522
Hf 1.8415875896640221 7.027284249076851 7.998561501779114
