42
Energy = -363.82393962 eV
Hf 11.304403255945648 3.602321289100892 5.093433104048656
Hf 11.672635134470704 4.664208902948592 7.973549524143906
Hf 12.343080872610654 6.282227786276478 5.61204653948932
Hf 9.88582182637288 2.3927774614093567 7.481223877702626
Hf 8.966596389853239 1.6322341737443242 4.958374084860382
Hf 8.277899372956194 4.341247196858392 9.009835702834264
Hf 9.109556403243898 3.657302517892216 2.934356326745062
Hf 10.22011981602956 6.288529663563654 3.6552549162740835
Hf 11.989112403908925 7.690754755622653 8.030597704790907
Hf 9.779394632742932 6.675379997298111 9.854430888958472
Hf 8.656561682385975 4.295004192064977 5.625717634889996
Hf 5.299726323515754 4.446928217621624 9.024763580519961
Hf 6.980079388649423 2.437541937656863 7.1240558791139525
Hf 9.790287893127942 6.448361327113619 6.999385371194989
Hf 8.401028304602114 8.976999701968534 10.710931978124318
Hf 10.638708783949484 8.72607298794786 5.381383389610802
Hf 7.121163001763097 6.350951492846591 11.31738900393514
Hf 6.427069320493521 3.1692475630071377 4.202397250911557
Hf 6.966888479029999 7.2026751682841255 8.757357449926603
Hf 7.218476341490665 5.841615131211533 3.166886989535603
Hf 8.391192410491913 8.593925782358587 3.218048097328543
Hf 3.7252383317121787 3.9876716833160923 6.573933441705551
Hf 9.402000872988253 9.218333935844766 7.996786471706422
Hf 4.3261818530156795 6.522378168902571 10.49689706407314
Hf 7.766522773380882 7.743229309591276 5.759165047941543
Hf 6.247785630844358 5.246179133478777 6.383601111402176
Hf 5.5627947253157 9.065193704228221 10.754352730027163
Hf 3.978083285057543 6.863975587717218 7.117013546273354
Hf 4.163889192205893 5.672872175032993 4.2929510082870515
Hf 2.074169975872823 5.705120361345597 8.751663369741856
Hf 1.6631497500101695 5.7921247016993584 5.7933636178675005
Hf 7.131730955346359 10.948955548446976 8.85811497982086
Hf 5.576912552114358 8.216580432247058 4.1590793126382675
Hf 7.447405035661663 10.540314380876938 5.568416019822296
Hf 5.350084170340223 9.372220767484672 7.191838487903374
Hf 2.867413985638474 8.697620847668505 9.44640587331656
Hf 4.314480885684566 11.22951951910596 9.309532878669291
Hf 2.645415262343194 8.42725597638491 4.78782789414303
Hf 1.1911525288835483 8.064076768538603 7.251235056499996
Hf 5.2934967521896645 12.18573602722397 6.86841521729935
Hf 4.500870288907726 10.75337169043141 4.650209785380783
Hf 2.6876664814658024 10.5423395453002 6.958974333704417
