46
Energy = -400.84013372 eV
Hf 6.525278687593438 2.9776970136577803 11.462276772712816
Hf 9.398210327585241 3.3936547910292565 11.224142747268571
Hf 7.482498488902589 5.172329996903044 12.80096975133549
Hf 7.713066522904632 2.301271304324136 8.895219728379459
Hf 4.967234642310456 3.5713058219013805 9.215670328190935
Hf 5.0595404402520145 5.565265061553265 11.213104537517143
Hf 9.747842336655687 6.278453865560462 11.743580906351646
Hf 7.699883294194806 5.193271537529683 9.876968117675093
Hf 10.530041106316364 2.477276270279122 7.9501779613416295
Hf 10.849622026352181 5.233972327052338 9.281454264011813
Hf 7.1717792856998255 7.687929928584196 11.36877888991631
Hf 8.281569072218451 1.8424052092069907 6.058636223778207
Hf 6.1510427033299875 3.780406220975964 6.6813702963937525
Hf 3.513345611409879 4.8797779022341485 6.347099261884572
Hf 2.686012546999601 6.757953475718258 8.548583178095987
Hf 5.61208972359739 6.37106047396966 8.38745871035513
Hf 8.989453378300414 4.584212935427336 6.901151194347672
Hf 4.195449573604684 8.603392730914358 9.782568667984759
Hf 9.40400012162243 7.89648446233535 9.413829379784964
Hf 11.934973396716268 4.689995682745314 6.656694375536718
Hf 10.506096344280513 3.0584084498141473 4.989564186591627
Hf 4.893146477030604 3.7534586629547264 4.078325287407078
Hf 1.9311534317349772 7.146612716518154 5.922938643310125
Hf 2.2334451592680304 9.619275490678687 7.440342875830371
Hf 6.893976559420228 9.321406058353503 8.78910855379648
Hf 7.863814084442918 4.148643850876594 4.104180853264062
Hf 10.261469433112518 5.993897129216538 4.542207836440351
Hf 4.586298781973561 8.445418103469128 6.799690717037406
Hf 3.378345764542724 6.206987832099292 3.561197472772014
Hf 8.150745269021511 7.333953844737272 6.641345672886751
Hf 11.025046555168329 7.368825483933544 7.034381188143274
Hf 5.97804808956346 5.507149583510958 2.202294570598999
Hf 5.94403725583321 6.321420013947441 4.959180630342467
Hf 4.565689866842611 11.020330169971796 8.509349753636345
Hf 6.75487631531042 9.736518512609587 5.130231717165227
Hf 9.19429511761636 9.997010818304984 7.138880464223294
Hf 3.0096256924066247 9.170780376571244 4.311050533751109
Hf 4.1158707235607075 11.569628791684996 5.752083253068293
Hf 6.8518305851075025 11.962490077457606 7.0663741650759775
Hf 8.079462440029745 7.2891222858487525 2.817781690145922
Hf 9.632382978293988 8.946164979485985 4.5545627202836485
Hf 5.3672564817795605 8.278173986240851 2.4230101593947504
Hf 4.802116674876681 10.929089727595764 3.0325272274991555
Hf 6.467781413237685 12.59107704473451 4.294855212219269
Hf 7.613485813192921 10.40845424089585 2.5267915060031254
Hf 8.974249065295734 11.699618820556692 4.86265636386349
