41
Energy = -353.1665899 eV
Hf 4.618104905584273 10.94440252327908 6.446126851265218
Hf 4.297991985903818 5.937443232554831 4.822302642596022
Hf 4.715178412730512 3.41104682556247 3.4716788371037177
Hf 6.171711287713049 8.195834672923837 4.319827659425516
Hf 3.257090061068478 8.601026813871355 5.27897583385951
Hf 6.855603940022568 5.326123997683238 3.023686607473868
Hf 8.950546832169211 7.3605203878349785 3.413027017888575
Hf 7.3816430160585 10.819713364296485 5.386282271860384
Hf 10.095702346482232 9.785712343905868 4.466971934457675
Hf 7.017074880151136 12.378378982468526 7.886825588015694
Hf 4.952134187706989 3.3361914657068783 6.390400486758414
Hf 5.453295668714935 8.253699902946659 7.188352401707764
Hf 2.9483058664445965 6.587828912153958 7.348202131497175
Hf 2.8265898555862465 9.30140938730201 7.973787490328455
Hf 9.336076300419018 4.8164858505970995 4.526526839981844
Hf 6.8698606576234384 5.664359394007929 5.976272566662033
Hf 7.174293855653856 2.915561660645627 4.5734809685541356
Hf 11.206936231622054 7.152167618931417 5.362151000015576
Hf 8.56575985770406 8.113362369321877 6.1833812566463076
Hf 9.743152414823046 11.41884035288991 6.894547965984072
Hf 11.984121401756273 9.60489193792403 6.535098726516253
Hf 7.816973786455836 9.874591450931995 8.812245273859203
Hf 9.811107265744354 5.347008362977716 7.394764316194457
Hf 9.393903957638818 12.274312723295298 9.608777366899274
Hf 11.64908915212439 10.447382289677844 9.246314577314651
Hf 10.170317055458538 8.099696460138716 8.536328473345536
Hf 4.873673173384947 10.510410773484683 9.456619878033518
Hf 7.664297047028497 3.3137820238422413 7.4656622984098915
Hf 7.542373588980951 6.819535995295707 8.97930895908256
Hf 7.0298330586614926 11.674088239030135 10.864420750582234
Hf 4.243852852337252 7.617777307572398 9.91029178497745
Hf 12.809955153085884 7.601954093974662 8.455520353763635
Hf 11.131329048858937 5.689352619376008 9.984000034112261
Hf 9.420559465568227 9.999776788864615 11.388566515056915
Hf 5.269505508944381 5.182622031416094 8.521234531173501
Hf 11.693086498220364 8.169068936073266 11.04256360870639
Hf 6.551632729358564 8.817381507245573 11.380914008142376
Hf 8.463118163593158 4.2824438330127315 10.1077933835719
Hf 9.022690871913532 7.002610735710415 11.51446756967858
Hf 6.260035379720066 5.64448293617285 11.280638196205711
Hf 5.951191751144987 2.853125249457138 9.766298183035392
