45
Energy = -391.19805242 eV
Hf 8.305098306904622 3.3591229383188135 3.571276529724025
Hf 5.442910911318061 4.370438780651674 3.509355767273481
Hf 7.617602689063995 5.4902838326569565 1.747434045397037
Hf 10.8664410730416 3.0884668091661727 4.977288989459505
Hf 3.588616445433609 3.5869983185936536 5.938473036464768
Hf 10.296400903403681 5.423954212859895 3.064479021052863
Hf 6.656617362790234 3.5489350931791743 6.031310673028219
Hf 9.083896412829906 3.012824251516294 7.607499223059154
Hf 5.236583942274114 2.8861684811761554 8.53130539143014
Hf 11.865124453817671 4.100132253590032 7.485544774356353
Hf 2.364570899676144 3.585774795506102 8.552648411643549
Hf 5.392206649363026 7.212282899344013 2.796373403253243
Hf 5.111477577640781 6.1134817849211744 5.868541886225037
Hf 7.604020781786049 6.075452273824133 4.482191895264882
Hf 12.387773203722507 5.586114587730967 5.0952033476718634
Hf 8.636141721973223 8.082284696687468 2.655660710852743
Hf 3.751384998980997 4.145290666007079 10.83270251727533
Hf 2.9286945682332277 6.362524433544597 4.298905584948074
Hf 9.996002051007594 5.215012431668244 9.297221930499584
Hf 1.8134979325545726 5.634452112171608 6.832134140966847
Hf 9.730719449825136 5.366431497930283 6.124512894792221
Hf 4.489333042554648 5.6887907383313445 8.588117579312248
Hf 10.758535791556444 7.9674192094075575 4.7500156564988005
Hf 6.332652821549801 8.804578734162945 5.454130703559402
Hf 2.07214766043459 6.375720106759801 9.67188473152534
Hf 6.522066559647525 4.526207786411287 10.601443934830906
Hf 6.347921269736971 9.87979920908866 2.721443980911522
Hf 7.399849349581396 5.5618587162908195 8.075501986419916
Hf 11.726627103117131 7.148079183714525 7.477868311668231
Hf 8.617901509727744 8.102248745900328 7.160504608873115
Hf 3.020587495663269 8.108608500741369 7.070771944417981
Hf 3.8137157071809806 9.365001974290266 4.303477140837459
Hf 8.67264549302677 10.335481796325809 4.602835980033951
Hf 6.041269633699246 8.572397324607289 8.678566624348779
Hf 4.387157941769827 10.571125257106145 7.119755613324719
Hf 10.22053499357188 8.029618292359173 9.6910121496268
Hf 4.668280991996062 6.857090982732065 11.327549858565714
Hf 3.504064517706929 9.298090434806646 9.83851753073387
Hf 7.704107995559985 7.166541335548644 10.798767367870715
Hf 10.456707140247513 9.9756427873832 7.48685980758129
Hf 5.9361373912473185 11.547980003008647 4.850076243752134
Hf 7.484883073510882 10.92510528129328 7.256969154555442
Hf 8.31809472364125 10.085089726432754 9.95392853174888
Hf 5.6922781834689475 11.32053998663871 9.568045506576096
Hf 5.921858515683678 9.385612649369843 11.513855297543941
