45
Energy = -390.88460213 eV
Hf 8.55123994837444 10.758798003356333 6.932464115454528
Hf 10.590375542755101 8.959159779443425 6.761572573532957
Hf 10.406087436113005 10.2289971079169 9.418281859717132
Hf 7.587439226687553 8.197800730577054 1.8826827829881587
Hf 8.78606243680458 8.545841655478565 4.585053573955987
Hf 11.092235144437586 7.300110222923918 8.744068312570525
Hf 7.877567132797806 11.605041785817606 9.500546805557981
Hf 9.771272887747676 6.305332832581074 2.4825982717612955
Hf 5.843239132038122 9.553484050529422 3.916073162498688
Hf 10.890658350501877 6.285509488991531 5.458517754761511
Hf 5.710441094458267 11.538795268151436 7.732833828024688
Hf 8.340909352751824 8.400112129369813 9.26102911583072
Hf 8.15370360740543 9.965196846890123 11.766222699822423
Hf 6.959456431596021 5.3238956276169525 1.6109594316108247
Hf 10.245111207735556 7.93001437963944 11.385021676116988
Hf 6.48132175484893 8.571849049107627 6.576346067390574
Hf 11.116987031554295 3.9371846249413207 3.9046300929467384
Hf 8.59378958757657 6.420472438195324 7.102699669430167
Hf 4.859142376337268 7.463257073268649 1.989508578392261
Hf 6.52709868250027 6.83905002889618 4.167468224410299
Hf 5.3824876726514255 11.42799931895206 10.944931232138535
Hf 9.128042846664142 3.481254142985712 1.9534474501950048
Hf 3.7888647833196614 9.574349639153404 6.639958038914456
Hf 9.214139494080591 5.5877244536138 9.971653853864344
Hf 3.1961609725741917 11.056553239748494 8.994585287631537
Hf 5.3051871143721785 8.993995473313946 9.381854279547781
Hf 8.465601034684648 4.689829129677087 4.4701796184504845
Hf 9.208809376123114 1.8705257494602243 4.308038143788517
Hf 3.6536579137642042 7.377451284357063 4.601506074257621
Hf 7.542777048560952 6.989234503227371 11.84527968289372
Hf 6.372564352521012 5.752601591243227 9.377077546970453
Hf 9.91150491975112 3.6829041868495906 6.699133759956661
Hf 6.568247344424847 2.6977761706435723 3.2745263826962634
Hf 6.019036864795947 4.756874825972374 6.093702247638144
Hf 5.583473517579886 8.835443609205809 12.400437443377088
Hf 2.3444556090003523 8.312145928837355 8.89635506631188
Hf 3.1830081899890215 9.499429303076608 11.305086354610507
Hf 4.366389840168817 4.797769317023721 3.315958519572798
Hf 4.372127403564674 6.719788651559434 7.602404454266125
Hf 7.643521102262344 3.4639801096370744 8.514718633007249
Hf 7.078367681605387 1.976334856950665 6.173187487158978
Hf 4.030673478366631 6.783092839931134 10.839906004701957
Hf 3.0604288818279928 4.788405148178868 5.947371376034475
Hf 4.716954425898108 3.476836231000763 8.058766553304457
Hf 4.414399951305248 2.468413965040436 5.25802364431888
