42
Energy = -364.17990257 eV
Hf 6.774690422467704 6.595861620511131 2.4637013753540287
Hf 6.780614722703821 3.9626133576974336 3.5510861645412106
Hf 4.337688780941241 7.873292257348642 2.5343235803312143
Hf 6.5660484929418095 9.797934293006488 1.9977895453042585
Hf 4.3079215600501986 5.312341076082802 3.840007250978143
Hf 9.02054760828563 8.312718989337812 2.812080375110604
Hf 9.074513159443253 5.764566092879686 4.32153499909224
Hf 5.033019963819732 3.2667710673212387 5.849156905024743
Hf 4.033623156860154 10.25721816163961 3.6088983689088647
Hf 10.923117479980858 3.799844996479204 5.831615754216804
Hf 11.729281490226581 6.518653603273268 5.773031192870456
Hf 6.539121130001463 8.933748057590842 4.662766465836992
Hf 8.090682672767496 3.267851518155454 5.939615353386645
Hf 6.4859869879338055 5.89772912724811 5.7446873968588
Hf 8.751537322057949 10.779135055989027 3.9292343886804617
Hf 3.8487366507056895 7.904042211716411 5.541885940936544
Hf 6.23086329095716 11.884620976250405 4.114656586334847
Hf 2.695118449861991 5.0144718632313445 6.493974394174649
Hf 9.724166632583376 8.619235559474113 5.690744239495418
Hf 11.987804416790079 4.955970276522896 8.16107495905791
Hf 9.720781052437435 3.156966114025924 8.578067915822052
Hf 3.897188035630137 3.2455399046908133 8.553840120066313
Hf 4.605913892994389 10.911991408857146 6.210330896927795
Hf 9.329806286108477 5.74577086287924 7.217782378034417
Hf 6.687252947272437 3.5198428663335886 8.343099818294661
Hf 4.753879036380329 6.1473943805508515 8.245760530391776
Hf 2.275935069140473 7.650345511696746 7.867398383650502
Hf 7.614928214788723 8.359398568008334 7.660309937519322
Hf 7.577548374405507 6.051598557152409 9.455694298790224
Hf 7.513637317541679 11.209663540514835 6.646049633319849
Hf 9.72786487088589 10.272663552826208 8.249295257681268
Hf 4.843186742830142 9.098166265170306 8.362123487089164
Hf 2.2775883171312308 5.23387919230077 9.409517365496988
Hf 11.113754275666706 7.76391464278906 8.42144115272831
Hf 10.29616768569863 5.51863297745459 10.422878921029184
Hf 8.034871069918964 3.6631433546230134 10.951811345975973
Hf 5.218479921957157 5.065979894657788 10.84010026814427
Hf 6.122306925127119 8.108386997832504 10.988530472445548
Hf 3.371564852139303 7.5989332026413035 10.447210549397072
Hf 9.126563846977051 8.435471344137408 10.539527004592788
Hf 7.212062141139916 10.457692246346431 9.551129056740917
Hf 7.862986556558523 6.171892837130804 12.186780616413493
