40
Energy = -345.94096142 eV
Hf 3.8565598110179122 9.305424512416948 8.683376521695044
Hf 8.984625657777583 7.319402180204911 11.120637162249773
Hf 6.380720812250909 8.014140654190612 9.918271862445518
Hf 1.5281390383472941 7.610709572385579 9.238054513554726
Hf 3.9322939852615915 6.5433797948034425 10.277171097669312
Hf 8.779845635734237 9.675189860862305 9.438945227806848
Hf 1.5687560841464128 9.129041411832395 6.814879585628009
Hf 6.9146430819325 5.3064325259668825 10.627867930794942
Hf 4.088706581414187 9.576312288875464 5.718289425009682
Hf 6.445955306290332 8.883407900553449 7.201267425822112
Hf 8.304742114329793 11.231290559155793 6.978563556683254
Hf 9.928097643653803 4.74273937868431 9.858927254866563
Hf 11.115907827281921 7.909761602036649 9.224729788266917
Hf 3.3637621008168295 6.894578195112911 7.033829260955056
Hf 4.632278765437953 3.798198903153147 9.759630098277801
Hf 8.502632044423365 6.405805625544406 8.390777973711874
Hf 10.989649652749348 10.547214613379579 7.871385469844121
Hf 0.5022061704485661 6.550417358025495 6.815460231781739
Hf 2.1017691849563174 4.746893204974827 8.647353976105084
Hf 5.785014407119902 5.6915871683117585 7.790570485726192
Hf 11.505446211580068 5.8196454573437375 7.539647162082632
Hf 12.08941429237566 8.351995093363278 6.079145309900596
Hf 10.384844369049548 10.68132434665288 5.109276532342974
Hf 9.397598302301134 8.532967197303542 6.650739540633468
Hf 7.332271181612854 3.311131279100832 8.630807780037566
Hf 2.3331713075790206 7.278465269302566 4.509458507652141
Hf 4.152937030742346 3.231156533546552 7.015214880358159
Hf 1.9020826614204935 4.523133989844852 5.686072610979594
Hf 7.617486017325286 9.741684042717523 4.518417920669812
Hf 4.428962465564841 4.877628346628577 4.722737915002431
Hf 5.60083095206472 7.39203520194089 4.677947105712538
Hf 8.3124540898608 6.258395392477866 4.967359925532441
Hf 9.620005964913444 3.905881359091717 6.815617162245883
Hf 10.195380162422161 8.359301757724788 3.5360294255931555
Hf 11.181236630973325 5.693141212043346 4.723144488645863
Hf 6.836127343598196 3.6411877986248236 5.643754635972187
Hf 7.512422467745848 7.733279450709617 2.464736386305028
Hf 9.140438106984098 3.608909324583475 3.961698003196523
Hf 6.84871636349838 4.938332191604955 2.8542208343031783
Hf 9.541188318883695 5.816983238533128 2.3372019876714094
