44
Energy = -382.70192947 eV
Hf 7.574688361921299 8.045356663167288 11.448806244227356
Hf 9.933174514584893 6.238046506359528 11.397259622665
Hf 7.345310307142501 5.124284786597225 10.680065549927539
Hf 9.986835975592708 4.021095313879737 9.52020881738136
Hf 4.7312227273880225 6.863737065779917 10.818452384947232
Hf 4.726052784318349 4.039061899988896 10.210564563093381
Hf 11.734126013371874 6.541134362473599 9.25568886219222
Hf 5.275484723079383 9.716714217433607 10.891726101975104
Hf 7.08213261422365 2.879943122524229 8.933222650370586
Hf 10.126501222858135 8.826237250797496 10.38462499987301
Hf 7.830204136016399 10.761272383503734 9.954413603708804
Hf 6.637129494595599 8.651527044963437 8.641960415364014
Hf 11.293787775230449 4.725098475584696 7.155077519498623
Hf 9.011940812300123 6.691897220081144 8.646344900948257
Hf 2.929179265061438 5.601208919942246 8.560619094935351
Hf 9.5158415660517 2.495697474327322 6.6330607488834685
Hf 3.5723631204966524 8.56446794841557 8.795261291486506
Hf 4.410032678514993 3.1136756569044133 7.5157350295813865
Hf 5.677232162524911 5.898425886354257 8.19845526609014
Hf 6.698789945190665 2.0432276535532155 6.23206665522025
Hf 8.104770913207648 4.683305638664567 6.8056766036600145
Hf 11.105282646979838 7.420635433024949 6.29374280299139
Hf 2.668190267314408 4.590603919278163 5.897213429776977
Hf 5.123518757531375 11.294260614995599 8.536128678581473
Hf 9.485111688350518 9.44827511971113 7.654673525815995
Hf 3.029954622460221 10.33636317013711 6.673331905312247
Hf 10.201628119814327 5.032689492842304 4.61453562872633
Hf 3.3591662062584775 7.493055559560754 5.807872708215447
Hf 5.7626489306066775 9.204396941029922 5.915205583646894
Hf 5.582100861681703 5.439992942788768 5.211563022009233
Hf 8.222404663299626 7.5253902482486845 5.486522044228003
Hf 4.583257553477236 2.951186942725082 4.361498936085237
Hf 7.597538306538817 11.474526595428152 6.854411651457617
Hf 7.666254068336822 3.320003821577368 3.9834827129988333
Hf 9.50312005107455 10.134339386995723 4.798077757208723
Hf 5.0446317350470204 12.02163907236628 5.7303890017893915
Hf 10.384304670513274 7.690370939917983 3.5109281345412495
Hf 3.308308883093407 5.615489670657342 3.478795383523188
Hf 8.134996822484883 5.963912736593657 2.8061173456275066
Hf 3.838216051369954 9.997891979617224 4.025880056622852
Hf 5.446480994081703 7.653600861340139 3.263165891798766
Hf 6.73203910656935 10.99471360561275 3.8207657741893364
Hf 5.628083050137726 4.728626064768209 2.317768893409967
Hf 8.045446941852118 8.809404463446205 2.689619850389729
