43
Energy = -370.32436128 eV
Hf 7.665983925132176 8.645382906700549 1.2763370821095363
Hf 7.177793498302706 5.973857231184939 0.9122989219767504
Hf 5.06826651463963 7.800425172019643 2.0037518400551635
Hf 6.71230899953625 9.854215725829066 3.802532166903719
Hf 4.229597058339523 9.658498269820564 5.19827323051241
Hf 9.484076670014709 9.527780872716146 3.0808011745744097
Hf 5.087450317084603 4.9520886628159335 2.5133782392553625
Hf 6.505113040319463 11.107658729591442 6.576129524619195
Hf 3.981531649005558 10.376678977925568 7.818421031885033
Hf 7.231181701654109 6.849346226817182 3.6087327458627745
Hf 9.398966852914768 10.860761347004292 5.421442901082058
Hf 8.06264797540247 4.182647380850724 3.0504105423881356
Hf 4.763851806976403 6.695780754863428 4.9038912470538065
Hf 11.216477981163454 8.168262717637925 4.7218284141678835
Hf 5.638259796840399 3.700920481638589 4.990147129259509
Hf 2.7787334969162476 4.8728677212140195 5.049743538496917
Hf 3.0440718540070315 7.541544717425601 7.09543788289469
Hf 5.901499898660882 8.328070907886021 7.13489546032552
Hf 8.599559626388725 8.211311233750331 5.798838502639048
Hf 6.2432361416009154 10.06638875155748 9.571047952940349
Hf 9.781981593847867 6.703122556301656 2.311329642632702
Hf 10.043781669650878 5.3993093313184195 5.061715975646597
Hf 8.47505742426896 3.017630764935128 5.5992495767131025
Hf 3.6304519599607765 8.668535714367856 10.055221802788004
Hf 7.3841479378961274 5.587803022470424 6.636967071691549
Hf 4.439449584712434 4.764383671422627 7.390663165588184
Hf 2.5782089253913907 5.780598333773456 9.341824370753196
Hf 8.864408090624986 10.060329011138657 8.185457791612814
Hf 5.468373570519985 6.443196922785306 9.579239542835333
Hf 6.807067926439999 3.0487269623936126 7.849828228784148
Hf 8.820652752333396 9.54372876702688 11.157572528546481
Hf 10.712064513440264 6.957744090194999 7.47643450757683
Hf 8.293605474451283 7.4481657071663605 9.131972905533068
Hf 9.658916724165769 4.204043710805273 7.861712368876137
Hf 5.888200710384796 8.168841893388151 11.956558508543809
Hf 3.6181621221943523 6.364998365891579 11.829444288034434
Hf 4.557640849294459 3.8638506578222653 10.320780803804528
Hf 7.714999560074927 4.581493055524082 10.092777571021738
Hf 11.139330495674246 8.822356508932314 9.653327966772318
Hf 11.050804461535206 8.111375252176972 12.297616610119462
Hf 10.641040257251195 6.044359696888419 10.270593117811721
Hf 6.0141311002301 5.2247079248030674 12.35831129665712
Hf 8.446421088454063 6.7326363113831995 12.051895859833852
