40
Energy = -345.5056982 eV
Hf 11.704432745459416 6.949009180601393 7.935042231912246
Hf 11.024068984938229 4.2778236259727365 8.365261947213277
Hf 9.981054562351375 6.314273299802327 10.359648478871291
Hf 10.197474722637995 8.355833369850913 5.862608059552427
Hf 9.987752475421251 9.063836815777535 8.94233705953168
Hf 10.795990736087946 5.377363138194745 5.494155246789958
Hf 8.563819014776136 3.8550816366263096 9.561737562117447
Hf 10.264416218612169 7.151102038758813 3.1044928618071435
Hf 9.28565935518433 11.203272986961656 7.038197192708713
Hf 8.94612504441402 6.053892501251242 7.570705924318569
Hf 7.990134428056835 9.163057175502843 3.6194070804362735
Hf 8.439535777527839 8.6126213343615 11.414759679843153
Hf 8.88303579670286 3.2601279207633405 6.583240702852869
Hf 7.036939307087319 5.91307110761608 11.266034812461127
Hf 7.508091653137658 10.618326745512894 9.446609012203085
Hf 7.5554926406831635 9.215769554244986 6.575446633539196
Hf 9.048388130714303 4.391661535203962 3.053209960763329
Hf 8.087264085425188 6.53453386642941 4.723068642380744
Hf 7.201609694503712 7.569058136425288 9.100608408652189
Hf 7.7751915276530585 6.79152621235516 1.890509630575853
Hf 6.038636820455281 11.754317066282324 7.175458858173469
Hf 5.404682332493592 6.951582122529813 6.199534591149609
Hf 5.404915196029337 7.482459089987211 3.2988234889320336
Hf 6.050233885106372 4.63626286902093 8.488666366412073
Hf 6.301783773177789 4.384170964075155 5.579647722938128
Hf 6.190459406052786 1.9124862552182147 6.799202361278898
Hf 7.378539602810662 2.2116967456514804 4.125796204388118
Hf 4.984703291386771 9.000231462942338 8.048360674763504
Hf 5.098855384969373 9.94287286207856 5.090079090446667
Hf 3.80150563480459 3.4815842699723833 6.904137704335191
Hf 4.612914097866258 11.291686018575087 9.64935698009557
Hf 5.511617808438225 8.823736773687255 11.118485619237434
Hf 6.056978297596747 4.5600727193311 2.681620121636779
Hf 4.395415597040943 6.531861738158017 10.031787301994413
Hf 3.529655752266764 5.31530796670559 4.622869231988484
Hf 3.2062092934201067 11.03305431008394 7.159910423762282
Hf 2.951314959665263 6.20799825160474 7.604784018094716
Hf 4.5922158422352775 2.5436776998329913 4.351100955284604
Hf 2.8831502496841437 8.416858477411603 5.988247782209343
Hf 2.5841490905566094 8.883053600715273 9.199016334602149
