48
Energy = -417.9246222 eV
Hf 9.392615769298452 10.985850662460978 3.7353742714499885
Hf 9.049135189278665 9.390858959381193 1.1390561120199068
Hf 10.367697140544468 8.11924834197339 3.1395989376417526
Hf 10.718154573550619 8.98764014813583 5.849577762956984
Hf 7.263353803037184 11.438825994292328 1.6690571180298337
Hf 10.313744160667788 10.367775871651984 8.365084990478538
Hf 11.8216966732193 7.926455102736812 8.334259314975338
Hf 7.951992975540062 10.109900263349447 6.398919420490656
Hf 10.98301135376759 5.855175715853872 6.372605781692039
Hf 6.515115631778574 11.815970640001694 4.410853170697734
Hf 6.308880327944825 8.786929385968659 0.8069652311958321
Hf 7.238462552045342 9.173545272408461 3.4781665564773143
Hf 8.074911759963554 6.687100697916009 2.0518680348550142
Hf 10.078143605637178 8.4113392958142 10.600637145299395
Hf 8.57672867168043 7.056408655731439 5.038508625776709
Hf 7.770702453761793 10.300455882913896 9.72347166896323
Hf 8.969280727346003 7.890746731474325 8.016345430439285
Hf 4.759557872437184 10.424792921248352 2.5160230096465956
Hf 10.565701841386476 5.413865219719983 9.225142398296864
Hf 5.518118323996827 10.323032534050272 7.962474324181765
Hf 9.189120335706091 4.085809826677135 4.762560984426003
Hf 10.138313485543401 3.2579393347882317 7.271379026919864
Hf 5.81068258427508 7.444085831338992 6.35070382742968
Hf 7.487672185529998 8.481872494284895 11.828483235616961
Hf 8.40841110227393 5.771998710535969 11.058786353938093
Hf 6.628640143827825 5.045341088508764 4.337954829937074
Hf 5.0930598672540395 7.4117061242471305 3.2257698196712736
Hf 8.043574081779418 5.219977079485282 7.253886759038045
Hf 4.5944562688625625 9.67672594782169 5.269148513289881
Hf 6.269437290435197 7.63562734978625 9.247487153716468
Hf 7.135390664315085 2.5347147351052737 6.852308350066894
Hf 4.839398508352533 9.261201953124663 10.706488909086337
Hf 8.459273698235874 3.0724960009441085 9.581765066522133
Hf 4.793483292179088 4.62904004886597 6.624452360085029
Hf 3.9608549686715255 4.6969446866156 3.4170570741065784
Hf 3.424535652446085 8.509190939670951 7.975017731334956
Hf 6.7696789476798775 3.54778122328378 11.854837590320995
Hf 5.631600952190983 6.3174975257936525 11.926216373110051
Hf 5.868727092661449 4.698985682875052 9.399945578365571
Hf 2.959878894106364 6.775665105130206 5.102812429347005
Hf 5.06484030472156 2.49183820888506 4.625328540471955
Hf 2.212099355435286 5.9359127356533845 7.611210469773759
Hf 5.524824424209073 1.9426053260199458 9.690362936462778
Hf 3.369873243312682 6.347381323031505 10.148356499396183
Hf 4.2158926768602045 1.7339947966632308 7.086472554292213
Hf 2.4108656115820426 3.6761242397811253 5.679239433618606
Hf 4.045146191658677 3.7910065028755455 11.464023978222656
Hf 2.9266860111634094 3.5083658490321854 8.870912948662015
