46
Energy = -399.97774077 eV
Hf 11.37061856220725 8.482622947494054 4.546000932562226
Hf 10.988771677046543 6.087708330467505 6.233016556600189
Hf 11.47040091063921 8.167631912264012 8.441664129560703
Hf 10.701775825280755 5.809655659432027 3.1968707377043417
Hf 11.186811789003544 5.387061476495186 9.044768635444134
Hf 10.613931875693321 3.386141137443511 4.987668435442826
Hf 9.916743143789107 8.342351532864043 2.0751095146526257
Hf 9.660396485059472 9.697314112142786 6.708646383077434
Hf 8.827594931288541 3.5370652089295334 2.67194047971464
Hf 9.926479605974594 7.21253106384938 10.89598217320937
Hf 9.36543147177757 10.48448075213933 3.912641295377776
Hf 9.234002249314345 9.996672739430112 9.583356970111174
Hf 8.533576106502183 7.836343356756992 4.626750809255423
Hf 8.97400454662426 4.334216070845185 10.594359508852557
Hf 8.914407152900111 6.910182253526192 8.10975025947173
Hf 7.952123948240128 2.2855458778292146 5.071971313982256
Hf 7.868797556936791 6.240580895525423 2.0705017445947753
Hf 9.020841837573931 3.9240358596217497 7.540400233441827
Hf 7.590190072354114 11.635483683234241 7.607566153367502
Hf 8.37970409026703 5.093664145128221 5.0037224316548246
Hf 7.841262061874803 6.048673994847633 12.530381724638982
Hf 7.2163637646181025 9.231307429641014 2.4018065702768414
Hf 7.390954959910953 8.626699551668123 11.330531692635052
Hf 6.964141711367199 2.8840625174761825 9.191797105656175
Hf 6.891201008041089 8.94008426582773 8.114276201950442
Hf 6.212401105155313 6.270004717787376 6.744095062278443
Hf 5.542938660461183 7.33368024265344 3.7172894543185055
Hf 6.718855232440254 9.998530143630104 5.306651017216532
Hf 5.756126194028465 3.4601820663224023 6.522824698760565
Hf 4.255245356077033 10.15081967439347 3.932802767352862
Hf 6.396263334745749 5.900654302949216 9.814235781354405
Hf 6.071853526745845 4.139671733998889 3.5988354855954388
Hf 5.882673038837982 3.9958080960375333 11.750897432781088
Hf 6.240385119197085 10.92682132434669 10.028386506266969
Hf 5.260468253097742 6.979035086129204 12.387881488499465
Hf 4.12544836994919 8.301026453858645 6.253740223854298
Hf 4.354672017450662 3.622924673649182 9.213034660426688
Hf 2.600081939759938 7.91666645985548 3.7465472607404013
Hf 4.572844184323249 8.368867932735444 9.764272494572525
Hf 3.775625684047703 5.480515864144176 5.266035200775429
Hf 4.686230269929099 10.78110202205264 7.480917866762176
Hf 3.5216797198336707 5.680088706725342 10.853558416725775
Hf 1.9045549253776883 9.941334412550479 5.688158991341166
Hf 3.3618982223282696 6.110768447836949 8.076849508013943
Hf 1.3933300983081125 7.191284049780666 6.187873719714494
Hf 2.127106072310168 8.90289691466973 8.352320136432647
