44
Energy = -379.52207008 eV
Hf 6.699406085146357 4.569035092540631 13.252335162132026
Hf 6.021986557470888 7.111762569491767 12.344294012094588
Hf 8.819506516114105 6.610106985604775 12.34065296419368
Hf 5.639225785397654 9.955872894298217 9.86964807557669
Hf 4.499906915138348 4.92914277837335 11.528916815314835
Hf 7.833495193728149 9.267257891016325 11.747683622600578
Hf 7.29707012504672 4.854551070627219 10.602092402896314
Hf 5.147227662814945 7.132057280397236 9.604164630562632
Hf 3.940465374522464 10.091749827477441 7.276263157341989
Hf 10.544812544554224 8.472034744291767 11.09307422487562
Hf 8.244138609982365 7.308596333860721 9.432621597106879
Hf 3.44469752789775 4.944982180478744 8.612341364899521
Hf 6.756634429503423 8.87310103735407 7.256703070352474
Hf 2.3521006366208166 7.755319772446911 8.614220182982162
Hf 6.339475322935971 5.12879311365827 7.837052107147119
Hf 8.496484023698937 10.553547336924298 9.282280141742763
Hf 10.661110603544278 5.755191213086705 10.138167143642178
Hf 1.9243844993161336 8.428828107284248 5.760344021018761
Hf 4.2330900833864735 8.916658254859508 4.169695258304412
Hf 4.268530654968467 7.046230346907634 6.661576589415057
Hf 11.456622928885691 10.715269910175047 9.867265954253572
Hf 6.390883787178606 11.742195813051632 7.721224782286755
Hf 10.540320617866282 12.023009720921698 7.595772189177004
Hf 12.99959623873467 10.475649017704546 7.6075326241243415
Hf 10.3847931534962 9.046183947637473 7.5873929347520015
Hf 4.082177725693347 4.1887757177452 5.9632114972871255
Hf 8.858805567160264 6.463011826453662 6.2136955565073775
Hf 5.855623071910628 10.910480085593779 5.17182561622514
Hf 1.6578565486181476 5.7798822973212145 6.596156189526122
Hf 8.608388636148536 10.700620934952195 5.853614344390393
Hf 9.114052087946362 4.103080722097925 8.078391590432071
Hf 12.61195373644316 7.9139840705261 9.074264578682945
Hf 3.071647324778429 6.259975456416827 4.045845060036852
Hf 7.2636119022977335 8.411083366938911 4.2473985596600565
Hf 11.664887167002254 5.645328428106649 7.33842885066156
Hf 7.589779551252676 3.7327718963624665 5.571089679527009
Hf 11.512506426535342 10.729271650109137 5.295819676828763
Hf 5.991366689802846 5.7578805203515335 4.598119634797396
Hf 10.168374355670712 8.495753160431548 4.194691448018164
Hf 5.560805968357717 7.097992639633174 2.305709074479276
Hf 8.689219177450376 5.690778885583389 3.4639656620651333
Hf 12.652707640447137 8.13327552768598 5.984942934117934
Hf 10.280988586891846 3.9436231289727908 5.4488050472448215
Hf 11.44979408860666 6.077670352148551 4.413639914360697
