42
Energy = -362.53042392 eV
Hf 4.55100085124773 11.066816829887845 4.363005964637448
Hf 9.048738516124569 11.429151303993331 8.164988150868025
Hf 6.748255219803927 11.09442266162633 6.163771322797113
Hf 4.593114133819333 9.363367215426637 2.258343695598253
Hf 7.132452637240219 10.368488820533006 3.305618049087134
Hf 3.9604985205124934 9.983984470328634 6.9699050751013925
Hf 9.445962548096881 10.873044967799055 5.370519922104788
Hf 6.206067856254261 10.177136134445751 8.976402098897006
Hf 11.213270527614501 10.550783728158 10.051864071684484
Hf 2.794693454559868 8.77396564665241 4.536584661092814
Hf 8.753486303700077 8.126928512768162 4.377653903222413
Hf 3.651465817806636 9.2899786912407 9.686404135473383
Hf 5.696983920908899 8.301650587584946 4.907015025855051
Hf 8.448234469768542 8.739173439537053 7.266531359356789
Hf 8.596813531750698 9.286120608506558 10.440163587730643
Hf 11.371624623631021 10.009011889125825 7.224186426116957
Hf 2.254077437305019 7.711297209603771 7.734704328835339
Hf 10.872069629700196 7.301174671569307 6.115687114594254
Hf 4.044272062415876 6.778503106457656 2.859420676896742
Hf 6.784862411519337 7.428940272942307 2.2701705440318656
Hf 5.87316765780729 7.8113127620455085 10.916925061865081
Hf 10.860288055312719 7.88150283183439 9.041986950807937
Hf 10.880152220562383 8.457971191156263 11.938303406652155
Hf 3.505048241456717 6.107956908136319 5.611848673391229
Hf 5.208472558842365 7.242666826321907 8.091385361275915
Hf 8.132193915933634 5.95052977213066 6.288383360874644
Hf 6.051058946502409 5.1932896858974305 4.094480822737816
Hf 3.168316772844854 6.688907809825903 10.349094579184815
Hf 8.063567089201925 6.472383376921502 9.351699626475165
Hf 8.426280314790759 6.9440853844434 12.285426642404918
Hf 8.77646894082245 5.292814170476462 3.398247642105618
Hf 10.717733578525387 4.464211883465358 5.24362464440796
Hf 10.535735325077798 5.04067883815244 8.032655853681113
Hf 3.160676820618558 5.019810713773417 8.194909654416326
Hf 10.568574880457723 5.583567038289283 11.048085073520689
Hf 5.521259538315643 4.266970734289977 6.904953213167251
Hf 5.546308160677205 4.938607438608862 9.915866630196545
Hf 8.096367327426243 3.2345513383399775 5.281940399535295
Hf 7.942161195324128 3.555260745285947 8.418426776346019
Hf 8.1245723026751 4.203988473788391 11.319825842497185
Hf 10.27139610530074 2.322586867295433 7.128972695152684
Hf 10.239660962382473 2.792223089826721 9.925471227634093
