45
Energy = -391.47651676 eV
Hf 11.402590737461123 5.203357207082397 6.654364267494401
Hf 10.666043035082922 7.635025581722004 8.14317165029744
Hf 10.604143731551632 10.226192479333935 9.535037111195955
Hf 10.138166162766442 2.593016129900465 7.3104416235348735
Hf 10.185390693255307 4.81692998197091 9.320730198488484
Hf 10.200329390910753 10.223827101453654 6.752855563246513
Hf 10.654392715277096 3.4253186190037495 4.666469881260182
Hf 10.212555846367758 6.172913290645469 3.9242346932193706
Hf 8.742269851033992 7.740672105785955 6.045732343977882
Hf 9.697204621688007 7.677288963603437 10.864771272831705
Hf 7.722851586276184 6.396605621311348 8.719049793760185
Hf 8.089517195718889 8.979184409152726 3.5462032485472865
Hf 8.20442652173755 2.026798615947826 5.091925577001995
Hf 8.476498328964873 10.254448006023482 11.247301864433176
Hf 8.268551094178116 11.910557337323413 8.674964132471457
Hf 8.36010195118508 6.628250381943241 1.636896111193425
Hf 8.608441289715456 3.9193774295671653 2.7301376210431263
Hf 8.571642869263775 4.674405939323524 6.286877317864065
Hf 8.038504615021207 9.239340688498075 8.49350380593299
Hf 7.770534126312906 10.951449991998501 5.711028892210319
Hf 7.593432712681047 3.4340036261664335 8.947491214112306
Hf 8.084820996921016 5.273757424764853 11.293200427302262
Hf 5.839830095370761 10.603388648551835 10.288972363446387
Hf 7.114285651611344 6.096978317357002 4.087544200898509
Hf 5.614013717103816 5.206234861678407 6.873915639984622
Hf 6.788074100846756 7.926783541367568 11.375609622898702
Hf 5.552484498273705 11.225542914442057 7.3310449803114945
Hf 5.7628059792580215 3.2757364384126206 4.1749727602420155
Hf 5.356852195657138 5.526967556958513 10.570694976726482
Hf 5.871821845359499 2.1504477590162288 6.7865418495721155
Hf 4.669250464499229 3.2307824076126375 8.925601928368794
Hf 5.374218794245293 10.549630234167788 4.0559517255841655
Hf 6.06979555921121 4.922946393307703 1.659411318748707
Hf 5.862955860244585 8.338337252995224 5.611346242395466
Hf 5.777399468472966 7.855079034966092 2.118900227963744
Hf 4.919625348249918 8.181592597231404 8.396916567527828
Hf 3.3456823029443097 10.548982417890876 9.049232426311248
Hf 3.4094128180335233 3.6774484665083547 6.2532356972045475
Hf 3.7267831478304623 8.182811264829995 10.854387681398658
Hf 3.212754393969548 9.776407841387963 6.222677777535825
Hf 4.128660745934636 5.5654698381470595 3.7515930152304824
Hf 3.546910667144781 8.31052180159562 3.785470814230479
Hf 3.149952781600181 5.640171406294104 8.801790493430596
Hf 2.9034066618611 6.813149954437205 6.142442314240764
Hf 2.001772861855455 8.254710909913312 8.441239395166026
