40
Energy = -342.79675916 eV
Hf 8.329327890134946 3.6294393379741794 12.521208566145527
Hf 9.678608933982757 4.613218115308118 10.07768859409484
Hf 8.233178336296243 6.3656882007497 12.00903366033367
Hf 6.8137193692244065 3.3973664295454427 10.170071485195965
Hf 11.342477557802226 4.951170215387836 7.388367781100865
Hf 5.839248226577455 4.894046303338958 12.359039884579913
Hf 11.72561565214104 5.554151354261301 4.500429307869839
Hf 9.90574291640616 7.434066110449275 8.65844685586474
Hf 8.54408326766532 3.788552192930975 7.613935306256433
Hf 8.193017166492382 9.077090347223681 10.661441595398554
Hf 11.890823043985 7.569762463979721 6.481777022570286
Hf 7.2979435801632775 6.095466691868388 9.227439801969162
Hf 10.075373648134006 3.516885462230944 5.271603147818213
Hf 8.658640647678697 11.18520268866137 8.705011292026814
Hf 5.783391761660967 7.5953829015565315 11.288047049290572
Hf 7.708849003556977 12.255907100419359 11.021961731364987
Hf 5.338178484073054 3.605668489758476 7.395123709222953
Hf 9.23066162484706 6.372438738611126 5.901745852237946
Hf 4.506508964373999 5.198664849190185 9.70499619570962
Hf 10.624589715821132 8.035789862714276 3.7418837459720566
Hf 7.935024637407418 8.746245137360388 4.217481314984914
Hf 5.88606902822428 10.533761621720203 9.93903008545071
Hf 7.361050114447672 8.745578181811835 7.791881264629966
Hf 9.779437175945455 9.447071207411383 6.305685358369718
Hf 6.429614375699299 12.956458010893813 8.583805061536436
Hf 3.199404048155943 5.714804504263926 6.883046726103058
Hf 9.24410938538137 5.385742899945947 3.0597894805721526
Hf 4.549230533319567 7.928097864902897 8.637717432536041
Hf 6.10323994325663 6.152418152815857 6.432017099792375
Hf 7.104254664721658 11.249410470931638 6.183382817376112
Hf 7.228530302548216 3.8097431432348574 4.928053259054443
Hf 4.46321945469083 4.418618219460865 4.751839197005084
Hf 4.5039771168025835 10.781171778461298 7.405349496753553
Hf 8.204833688964376 7.777790341942023 1.7163113917519675
Hf 3.428786499605836 7.154072854024646 4.178807938599598
Hf 5.425996070392372 8.782117428674756 5.598531892790184
Hf 6.3411992630967555 6.226848226748304 3.3480821231242586
Hf 2.672720745873768 8.577486727594225 6.573889333509362
Hf 5.501554400460531 8.855714819847893 2.6465760488735444
Hf 3.4264641847539448 10.179769261311613 4.475370767334465
