47
Energy = -405.69780857 eV
Hf 11.759029318773859 8.358980855978967 4.385440559940337
Hf 10.919536623738223 5.957913594024211 3.0842231623124046
Hf 11.09434398096738 9.04486989866368 7.199382252842292
Hf 9.40249619291003 8.534229952914483 2.646023700076431
Hf 11.557053619811956 6.092263959124867 6.049386798534421
Hf 11.45319064968921 3.6174706813631907 4.672096849581742
Hf 8.291167003620517 10.485515243748356 6.919957233842114
Hf 10.029709273529086 10.470695400505669 4.731010330815548
Hf 8.48767040038787 5.875740832867814 1.7674319776654661
Hf 10.4047265975751 8.596035259040915 10.54998413250319
Hf 9.462842041157028 3.195788989656231 2.5254554052598785
Hf 11.09684954965293 6.527744083290956 8.757352810210243
Hf 8.453911349129607 8.277562938760722 8.82572192587933
Hf 10.188069421273335 3.688963711230669 7.302682412032103
Hf 8.303406217890467 5.668058443419812 7.70487806948557
Hf 8.990709486675085 7.874407814647889 5.474675870401312
Hf 9.44044200448637 1.8493879609318373 5.240419502203968
Hf 8.557444051855128 4.633495382375307 4.755207535004791
Hf 6.242207375714336 8.522926369952037 6.704735412594187
Hf 6.632661204348723 7.220979503907975 3.4412534347967263
Hf 9.047967186406193 5.9399806635815295 10.583564145742269
Hf 7.11143953613338 9.960459657934582 4.3189053856320125
Hf 6.366160169560562 4.275486767639173 2.5886671763240674
Hf 4.982704550680622 11.023377542575254 6.211969474174986
Hf 6.17100386645723 9.73367710555566 9.55761712203602
Hf 7.168972821921444 1.9486736631516348 3.8557812409905075
Hf 5.808805356758595 5.674076984905441 5.935982149640618
Hf 5.8196654944431 6.753371646622969 9.08677256352713
Hf 6.8023616164140455 7.502091206460506 11.694576952437407
Hf 7.084004857108812 3.047966147941061 6.769814281677073
Hf 4.130951672369854 8.766099681836538 4.508382704806138
Hf 6.864432590891906 4.002262506976615 9.871463548939783
Hf 7.17498305752683 4.781454982022396 12.55216540590583
Hf 3.923343421107899 5.815305450052261 3.6540344136498892
Hf 3.5886078353248863 9.9511888482424 8.51671030055912
Hf 4.7923825970034155 3.2432536514454355 4.824089494556949
Hf 3.471265323192283 7.281827262215319 7.090700867649589
Hf 4.4000283606508 4.3763983070256804 8.16088837146796
Hf 4.021918830411782 8.186473545734344 10.854459606245555
Hf 1.9963501482717911 9.95077538248131 6.145133954324366
Hf 4.668945464863201 5.406036820862729 11.403716832362209
Hf 1.468568742728994 7.349373367767739 4.874468035687969
Hf 2.5291708364871526 4.802655573117369 5.869075997468289
Hf 1.1402266631161933 8.556469483169646 8.676648502597876
Hf 2.385470644127079 6.118002285647634 9.532947403909773
Hf 11.759029318773859 8.525316285627198 6.4387965733404355
Hf 0.49307180727132216 6.113239758939363 7.376735584471437
