47
Energy = -409.93586206 eV
Hf 12.50793588676693 5.654959967769027 8.579939947574907
Hf 11.363902002780225 8.319165964916204 9.117029183755475
Hf 12.650955369182157 7.665042788011669 6.469521744715015
Hf 10.406677475383887 9.452721834364203 6.651768026643748
Hf 10.071737160734978 5.829857671736188 10.140333288748506
Hf 12.191301495036956 4.909234407602746 5.888182657962678
Hf 8.399084177127477 11.414257724060285 6.133133422801337
Hf 10.375633992801946 3.7115684434385874 7.918568232891293
Hf 10.11850438076981 6.434612497033284 7.115514611438749
Hf 10.136554609214473 10.142472922725698 3.9704184966700753
Hf 9.269790609579212 8.514882930877326 11.036164476904466
Hf 9.046528565884703 10.605019080875664 9.029069974866704
Hf 10.638891860833741 7.074854313748525 4.272696569647417
Hf 8.960460949265137 8.489992376298767 2.1023642863810266
Hf 9.575707193546902 4.111535920662011 5.019750922101876
Hf 7.254093326461093 10.670350007362579 3.329245646788952
Hf 6.908883279842735 6.737081421988847 11.046716531818484
Hf 6.065956218204792 9.267166474476902 6.761939807027704
Hf 6.19196709066902 11.61980583593985 8.372460606016471
Hf 7.673387211177108 4.6142276890064045 8.96738451872508
Hf 6.813570946056217 9.67229591016798 10.57285503640477
Hf 8.073485218319503 8.292681041155051 4.844272992381728
Hf 8.00465512841575 7.836975859210594 8.507512895851033
Hf 5.779623023461995 11.93901856124632 5.486380246902922
Hf 6.193516811345876 8.181933288531566 2.2340803673236245
Hf 7.261367957790793 5.5274956435653 6.148061219060062
Hf 4.37600598007925 9.100364247645933 9.24651950327777
Hf 7.804832739583746 5.885123965960313 3.0545231919609304
Hf 5.46256942257369 4.306094407128939 10.954191176285526
Hf 4.44821206674654 9.651270022187935 4.2823973468011545
Hf 5.151897290579771 6.296156523607006 8.704538680890838
Hf 3.6801904020061706 10.821967792484408 6.94786423773251
Hf 3.924009212283421 6.719092107971117 11.269807393721027
Hf 7.634289760576058 2.558652051702097 6.651836091365648
Hf 7.03361002628941 3.2538807248969768 4.054726645641498
Hf 3.377676682847375 7.926285246826539 6.617663838646258
Hf 5.307419068730644 2.73602336683701 8.529912938752283
Hf 5.381485120777008 6.889877182534766 4.5369449096550145
Hf 4.359212341794445 4.634682176497754 6.280364827755671
Hf 2.222136476302835 7.20286287496452 9.163479279455252
Hf 2.9143276098642 4.403766135477722 9.605161165326152
Hf 4.849182373568884 1.9618413851636969 5.488013699646308
Hf 2.724019124563201 2.500008742152746 7.426552826382543
Hf 4.493567232784976 4.293878432455067 3.320034658735873
Hf 2.5849551701924662 6.151990788244505 4.354639043069721
Hf 1.6099673382974182 5.241874336603418 7.0066541020561
Hf 2.274994489081624 3.338678606272638 4.81391738502703
