43
Energy = -369.98333859 eV
Hf 9.11107272355655 2.988517668685347 5.2813055269615825
Hf 11.229901113057307 3.490919538128603 6.99699998669271
Hf 10.49472686719588 5.6672879633843305 5.0296654462483446
Hf 12.97902852753333 5.640362354408933 6.157893323745957
Hf 7.17959717263596 7.593702259243447 2.8886729741587303
Hf 7.631931469716128 5.499712130170302 4.926599836024382
Hf 8.709987958789545 1.8982827559996185 8.0302575429762
Hf 8.443645442453144 4.6603704941489985 7.761979549590845
Hf 11.696798969277799 8.208237463543892 6.392056230288747
Hf 10.500215967735825 3.738881327397915 9.660948756861483
Hf 9.262613083437106 9.069319548307309 4.534084100559805
Hf 6.479834067209337 3.1435629756482357 6.142682197056047
Hf 8.941280171226865 7.43761043488897 6.911141582295838
Hf 4.971764371288549 6.06174419581921 4.119620220254082
Hf 10.813185797084492 11.13067793528008 6.7140863202533705
Hf 6.235803487257052 8.527470490945946 5.481321926759682
Hf 6.759333323579706 10.488513988907197 3.3824352439528607
Hf 11.443272883276627 6.141599922016377 8.460441391313147
Hf 5.779447530233871 2.491665431344587 8.84240849038192
Hf 5.487338032508698 5.902829805675937 6.993345904591368
Hf 7.923714136634508 3.377843554225779 10.510226598171979
Hf 8.934005796543104 11.963414363172804 4.729019405692425
Hf 4.519904018141254 8.583992885844633 3.0658255486289914
Hf 5.977523630146804 5.376727707186862 9.754987262569788
Hf 10.511723690061316 8.994036865208095 8.968019416056132
Hf 3.4605249679048744 4.435514639741331 8.92021020919824
Hf 4.69385666458093 3.301285351581678 11.26732920134916
Hf 8.180759849837056 10.323990764901176 7.122805196213568
Hf 8.653968081489236 13.159485076483769 7.261379092666073
Hf 8.889850252681155 6.481008688382414 10.11748407722807
Hf 6.749373391757657 8.260582021888053 8.687008607219077
Hf 4.076032687673626 10.564252400248895 4.824141447130994
Hf 3.4209045716354494 7.92126806027452 5.83656021057127
Hf 3.6032275589531535 5.866538666313108 11.386857412662437
Hf 6.211367766708801 12.186388587365249 5.8323647915225045
Hf 9.705068691479322 11.695458296856323 9.424135838295586
Hf 4.526942051442016 10.244098497831807 7.613154228633281
Hf 8.31915080923053 9.640828965758207 10.837621850263828
Hf 4.047269901457628 7.518493845691873 9.13114800247419
Hf 6.2998250098744935 7.601922635141795 11.428349324494535
Hf 6.348141596010945 12.114287191175238 8.764472535041802
Hf 5.302388739654061 10.144018150183168 10.526133576863527
Hf 7.462900179681274 12.266629617321385 11.245484144151963
