41
Energy = -353.28381542 eV
Hf 8.709127171019597 2.245983918568216 10.45370687814724
Hf 8.658604453108838 3.4788793356210648 7.793431135012811
Hf 6.115760088461529 4.713572210084989 6.866024772519168
Hf 6.393217437840404 3.445556291885488 9.458879163664097
Hf 8.911855047257525 5.21837061177015 5.399918115426158
Hf 7.748672092746796 4.794811248411956 11.525614830425338
Hf 10.183748934607943 4.596712984378089 10.022081795986148
Hf 10.415763839707925 6.314758422459632 7.58566254705929
Hf 8.309085207807518 6.4351945381841364 2.9333820052727946
Hf 5.479009487902117 7.368394102285564 2.80253909958459
Hf 7.725684561240227 6.299219622275687 8.633363745876181
Hf 4.83279413598153 7.252739320772787 7.771782614242379
Hf 6.594926957442487 7.384405969449371 5.33178155020513
Hf 10.485902676537302 7.4765724220337315 4.59683775910064
Hf 5.395747578984065 6.046195286616968 10.336420889117099
Hf 6.418668352821262 4.747270610439335 3.96899909938435
Hf 4.109438059152821 5.8386900802587105 5.116874448846116
Hf 6.7212378122175 7.820299493882207 12.129194001235039
Hf 9.448272119232739 7.135672052152759 11.051592914853972
Hf 12.208749216741317 7.262309890260711 9.621643652769189
Hf 8.836524861675008 8.780474653578853 6.660907271363325
Hf 10.084970436249419 9.346388155685933 9.270719300086983
Hf 5.997414181504171 10.60582659910394 12.018931169871276
Hf 5.605160349393549 10.098311583083323 3.8428965835346744
Hf 6.987815425491592 9.253758979715238 9.500250190641303
Hf 4.305276111517058 8.836225492025141 10.678572161159602
Hf 8.262451980081755 9.210904481246859 3.3162373715341253
Hf 12.051271768784034 8.759255277550068 6.902087603893601
Hf 3.8239681816754905 8.55667575850548 5.2716993950747
Hf 8.875739536776011 9.982394186325157 12.139300757490513
Hf 11.647956622528898 9.127303799214086 11.734329054088505
Hf 7.7883997302475825 11.36815615511438 5.068258589594069
Hf 12.895389449953566 10.067151983442955 9.395234540618608
Hf 10.49452373550284 10.420660835874306 5.010655118092371
Hf 5.797564213079095 10.205314589032554 6.763190208036689
Hf 8.421001483815777 11.442838144510468 7.823325605836391
Hf 7.882958767176324 12.035146057415062 10.56411108914701
Hf 11.337772920918885 11.510638803353629 7.6237063632164865
Hf 3.3595573190878696 9.667747079400051 8.110213231856616
Hf 5.171390834606452 11.544506050360201 9.463112651175436
Hf 10.830910562860526 11.703012074610683 10.614684182091706
