41
Energy = -355.75098924 eV
Hf 9.413844162524953 8.458681593815715 3.2146763212140286
Hf 5.988501525674981 4.848468179117322 3.917437414982682
Hf 6.769248222326479 9.049261624597197 7.217862663860497
Hf 7.768832442463215 10.9057011355852 4.070185850971967
Hf 4.6245006552224 6.521553067884639 11.119522897660048
Hf 6.874812961471953 4.375622465958326 6.703496901086925
Hf 5.80091543640572 11.082565519260342 8.706826998854794
Hf 9.473345581413112 7.760754568684902 10.749668812308066
Hf 4.779607547806256 7.313247988661719 2.360022384536153
Hf 8.010854659096372 1.7152559461574723 6.8956823259880276
Hf 2.2286394270793424 6.594558750228521 6.621604552021897
Hf 11.29411540588753 8.728266580564718 8.467802675925466
Hf 4.383105308494003 7.967239501116221 8.66727293890101
Hf 9.630872284050362 9.253024760375853 6.021258117894727
Hf 6.6547567044163545 8.746617176592194 10.449324025291906
Hf 7.9816270686546185 2.701374956183931 9.35115129020134
Hf 6.785750636662346 8.164326416483533 4.412514587155503
Hf 3.827977858615934 4.901320656944872 8.829821529635534
Hf 7.73087837894039 6.431767632366759 2.2548003664799805
Hf 2.7825293546696845 8.196303922684413 4.2235069244419625
Hf 4.824095050510216 10.115143320484929 3.5359285901454345
Hf 3.761332453636472 3.8867860572567463 6.175256683598548
Hf 8.987278098550476 7.0983446019030065 7.927602087436121
Hf 8.749719203020634 6.141235586797586 5.109974473443866
Hf 3.757794098201808 9.57716878120593 6.437286744197277
Hf 5.867711767981241 2.1354454664846965 5.169855804890374
Hf 11.335799221484978 6.7227164991525905 6.403467003600255
Hf 6.974418558881711 9.185423164863096 1.8288574858639557
Hf 9.783802807779196 4.180645637046351 7.429547238892039
Hf 5.37988782999059 2.367136756017642 8.22999770717465
Hf 6.614117831610454 5.985415515527228 9.18475687170002
Hf 8.822666521836135 10.183464261719523 9.100987930534599
Hf 8.129880923140282 11.698106863540087 6.889350486947159
Hf 5.880674434926668 3.894482039021422 10.93045081741054
Hf 7.250640655711335 6.296993053044129 12.041254617563867
Hf 5.589628621460925 11.626442330415465 5.862949581319633
Hf 9.127939431053887 4.826391767077169 10.549861505344584
Hf 4.860020729174323 6.665878413232603 6.008139605760482
Hf 11.343626375580993 6.040162047489844 9.224928173546129
Hf 8.45978468652155 3.293403862458789 4.576811975839444
Hf 3.0483394023208903 5.465687011271201 3.9600378015866284
