40
Energy = -343.39036192 eV
Hf 11.773013071648553 7.402878311793714 6.80560110178452
Hf 11.202645117036788 10.424200557820866 7.248012385321431
Hf 10.521564591543248 8.898413180633007 4.932976414656754
Hf 10.779171765245138 5.67577483232056 8.692242818543546
Hf 11.315210943330678 8.187611326370417 9.63741544903318
Hf 10.360460767286302 10.723290895050738 9.992156013631528
Hf 8.036582611073415 8.661992956382953 3.575049212457099
Hf 8.530724180404427 10.932125045247103 5.389877847943374
Hf 9.169808204887923 6.338398787527628 5.488492273122591
Hf 9.131888857433932 8.538982526564553 7.732647003184735
Hf 7.637806281416695 5.857489913479967 2.728850397270447
Hf 8.656332369370855 11.73246805862663 8.132686716784225
Hf 10.581306033597803 4.0112399562911065 6.5451174747709
Hf 9.248302479393443 3.8369590748138585 4.102635142089436
Hf 8.927752134557412 6.268581474163612 10.647017597685519
Hf 5.935714575628438 10.521498003534797 3.993076155808899
Hf 7.987719101123218 9.049364646742575 10.52294404925413
Hf 6.582396567430344 8.980443686912736 6.3549277243598254
Hf 5.232295723305534 7.8803809900891695 3.0619434516338333
Hf 7.883168390360863 11.825042615999415 10.959310155447863
Hf 4.927953535867447 5.127511134001683 2.657498836867339
Hf 9.141363115039857 3.381084415196631 9.2394319353729
Hf 6.464063375015121 3.4400639590494038 4.075259583396917
Hf 6.147415492483168 6.1450253150026555 5.250312968541586
Hf 7.899347936864972 2.830786406075594 6.472721151529357
Hf 7.3570857509587135 5.274381705659831 8.086766053395054
Hf 5.913183913833985 6.7435328155553 11.658592626580976
Hf 6.152448939697523 10.81042356162513 8.942307775068368
Hf 5.936193969644853 7.643568950698101 8.93881647689078
Hf 5.406292559535974 11.570834046817861 6.408602675168322
Hf 3.8055487957865757 8.960574431233104 5.400575949934163
Hf 4.84932643164505 3.913199974723623 6.678024652360287
Hf 3.2984259683290666 6.119125564842046 4.608170360322899
Hf 7.003763692166878 4.216983217379234 10.948323547594784
Hf 6.342505753948077 2.6372969699410045 8.843595144933632
Hf 5.082004514644785 9.439797716341598 11.0540595717529
Hf 4.529228110396215 4.7853285916439185 9.58194070462149
Hf 3.712769933485765 9.555952699988323 8.332224103356678
Hf 3.676006923879234 6.5990399349759725 7.360162262123305
Hf 3.3961249736843757 7.309822720789015 10.222859524178418
