41
Energy = -355.71194602 eV
Hf 7.136681604986201 12.382633818459068 7.825215156014892
Hf 4.922610809753936 10.503221589480859 8.254574240445885
Hf 9.217270877983594 12.579548356242332 9.743793010484367
Hf 6.858505853993494 10.916144507864228 10.513292236700247
Hf 8.066718682644487 8.205606963634017 11.405885607310394
Hf 5.404683362409853 11.78166650436201 5.585946731734449
Hf 3.567338941156499 7.90408719862493 7.852238796523657
Hf 5.8415102258909215 6.631057529589755 6.068645541372028
Hf 6.614053915832877 7.370093624051103 8.828463548895055
Hf 10.056813493104128 11.866033217838746 7.055380833960064
Hf 5.061981692790218 8.50715534398137 10.74388370937923
Hf 4.015398674431832 6.008914089952524 9.842658856869424
Hf 9.650758488795251 10.508970403002131 11.566813367204302
Hf 4.304927834774047 9.241923580887606 5.265329945480167
Hf 7.124085322834257 9.630172118789144 6.469928455767949
Hf 11.517058135161703 10.994687563058246 9.50458836772862
Hf 8.921523378968578 9.772451838305985 8.86908134043705
Hf 3.079591301161065 6.7528561517406 5.159754592279176
Hf 6.381131428498279 5.721632802576299 11.241061026613156
Hf 8.060037974856117 12.15435391428788 5.043188619218445
Hf 3.658856641253022 4.862594530966646 7.2809405476763995
Hf 6.83940105427094 9.909947327899372 3.697826186651643
Hf 9.110862863425263 7.24361363223481 7.053903425522541
Hf 9.729841146650164 9.754329445358817 4.885023845976682
Hf 5.386122434005508 3.4914656475333414 9.45806278346916
Hf 11.093442052246834 8.269660238648195 10.142176048747256
Hf 11.641211742302698 9.208370110000466 7.252090753977988
Hf 7.51368607284771 4.595521109673455 7.674488117636175
Hf 9.292647503329217 6.015573979587893 9.80229475379475
Hf 8.133483441612084 3.5459273825856163 10.456648226094469
Hf 5.3694127268899985 7.0845318870835845 3.3486373764060464
Hf 4.481889273924148 4.52425394152885 4.47374451483169
Hf 8.313113373584542 7.301759116047684 4.268292911960504
Hf 7.289007789251924 4.419494603193114 4.374895600150681
Hf 5.6987158463178975 2.7511584865012044 6.359031701992912
Hf 11.261267413895066 7.302062083097937 5.1351212243002955
Hf 10.052487504329777 4.797298466772413 5.607873429429737
Hf 7.575856575465121 1.7869721817900104 8.453956071607152
Hf 11.650433545650243 6.240887253731033 7.778352429314657
Hf 8.521286598628068 2.3796197847350853 5.937538172164259
Hf 10.073403686702251 3.411797295208463 8.237440310333932
