48
Energy = -416.96199873 eV
Hf 3.461858417897275 8.129355819917036 4.306835987482831
Hf 6.071506215768631 7.198308277100565 3.0094848685062865
Hf 2.6435919546239726 8.551226620993981 7.250631314358774
Hf 6.876218996142613 4.465364581914816 2.7804301955130555
Hf 4.305073312280276 5.0901395801100975 4.059515973357328
Hf 2.682774156778438 5.9477111656922625 6.248262501356574
Hf 3.044684342001575 10.712087095346533 9.14964880476011
Hf 4.451729441510195 10.417458212830024 6.466310524180754
Hf 8.259652855802258 8.861895256714675 2.6276664598511545
Hf 6.060014068606187 9.975865705638935 4.036509209446355
Hf 5.96898569087605 2.656674109069336 4.554972425435264
Hf 4.510165560118118 3.759891560581189 6.712103477839969
Hf 9.01488927482348 6.176827576985135 3.2036204735799436
Hf 5.616590039038855 11.724653572563247 9.248679298585248
Hf 8.113984567452869 8.26310684615808 5.6352425341453
Hf 7.174088792073166 11.372442771211073 6.540103353926812
Hf 5.231771478238343 7.43213810849402 6.219955581541786
Hf 2.581213324982907 8.251541395421574 10.202921767549922
Hf 9.065490875047486 10.849010518164249 4.458241611559098
Hf 8.895172170522931 3.3410264694589573 4.605718239320472
Hf 8.146948358521513 12.82171301704728 8.981171722401104
Hf 7.054250550718661 5.154788595028516 5.700200657510844
Hf 9.902710985661178 12.366081947845101 6.986719670332801
Hf 4.688794961887535 10.005614010063118 11.45473205587541
Hf 10.632445224362671 8.437102440480526 4.0527129747657815
Hf 10.567836920518198 6.035500257991719 5.61708702437757
Hf 5.297289701988265 8.74912362794293 8.962239219745275
Hf 7.278142197665663 2.4273541570379225 7.043712752050345
Hf 10.397030251958597 11.464237360033348 9.769030333078216
Hf 4.181425930299198 5.917769119081808 8.856566211512266
Hf 7.8763047875505965 11.026644422121418 11.155375712710951
Hf 10.242789756078643 7.0858461151168965 8.39053453057943
Hf 4.578902918017634 7.180524162609004 11.61192076431097
Hf 10.637578448902808 9.588139885125244 6.673381733796875
Hf 7.1811934723798725 6.2103453354532006 8.672048022523914
Hf 8.353964806510303 9.61657166555597 8.69876987103627
Hf 12.842067682407187 7.612343452566005 7.142222324352278
Hf 5.76936094878868 3.4904983757775123 9.20823833476792
Hf 9.540788772970915 4.189672425340409 7.524258004872421
Hf 12.349093026491401 5.018514298714633 7.656330343961826
Hf 10.16682696184223 8.957433915023353 11.180630945386646
Hf 7.3038420581670955 8.059822996023879 11.180529107265006
Hf 6.569754143078142 5.16825093785492 11.334213365345882
Hf 12.193148005895623 9.389975931970598 9.129162272520594
Hf 12.504155911482943 6.7788172761128624 10.105081980937465
Hf 11.22650561311377 4.229838882280875 9.97234648307192
Hf 8.45500222715115 3.413354481166796 10.038624465919627
Hf 9.367618222399985 5.9868502894195545 11.11645521733481
