49
Energy = -427.00036945 eV
Hf 10.28492997507314 4.317866874935995 10.13760833965388
Hf 8.041635545268482 3.2809263481608433 11.54126214855756
Hf 8.691457182301152 6.167721110925618 11.781227112199035
Hf 8.661277705582448 9.043546387234308 11.47868637167047
Hf 6.347903867083631 7.800654478816191 12.543711577281906
Hf 11.522308620025521 7.083251295769586 6.868939278811041
Hf 8.556534911626708 2.1000782764490875 8.97862404788017
Hf 5.7716631670504706 5.13404247553407 11.615565707544668
Hf 10.536065820916072 9.87813779282932 7.225130497988277
Hf 9.872765269618535 4.572204160100503 7.2390744018602495
Hf 9.833049682580057 7.278693463063381 9.23089397186018
Hf 5.8073007532439265 2.5835968788221852 9.944586315006617
Hf 7.657584558284577 4.887770423984032 9.158678259578288
Hf 5.935072737845346 10.143524836369577 10.932184472215674
Hf 6.915400590466356 7.554544543837269 9.704542373524102
Hf 8.681877054814322 12.346747675362234 7.040176010564772
Hf 10.602005516639338 8.601032296805304 4.549016085817733
Hf 10.760573900479024 5.66724497002286 4.722441357630016
Hf 8.110568910525533 10.21212254399272 8.942996793853693
Hf 3.993948345958492 7.935816354455276 10.870940808596586
Hf 9.907524653412985 11.367796493535442 4.70974476026692
Hf 8.52348774274463 2.245685262860692 6.1415555263362025
Hf 8.59710297882013 6.998439585664074 6.417829897734735
Hf 4.4108377963190195 5.539614350740484 9.041525968604704
Hf 5.967476056457336 1.2185270112575246 7.232332346620866
Hf 5.259356791440249 9.185449349126191 8.190115992984927
Hf 7.816129724125548 9.83024046905602 6.088419822870361
Hf 8.131188099970538 4.589999757869501 4.490611810456236
Hf 3.1522002959160265 10.34812705597634 9.363391124881527
Hf 6.036181461610165 4.047064579902152 6.687771147389377
Hf 9.40883938975363 6.902291772522229 2.485994355641948
Hf 3.642491521120064 2.9077774240380307 8.14166480503402
Hf 5.729889620514272 11.735917015128168 7.140632514978884
Hf 2.6700630117004365 7.682011991408515 8.308432835462833
Hf 7.167987005679836 12.140876213592135 4.555550951331584
Hf 6.422979420989551 2.2198801214820065 4.404437294247192
Hf 8.227138248879884 9.771014533406008 2.8605674991083396
Hf 5.198103413199171 7.037998342502838 6.350441238505136
Hf 6.698639194632793 7.314568038430803 3.710894895619614
Hf 3.854466998225645 2.432716263219014 5.440737704718051
Hf 3.1185981927738817 5.099574272089966 6.381112655960587
Hf 5.28829061562597 9.83424626635864 4.800724775296896
Hf 3.0945621595250024 9.734556390706045 6.453271152448276
Hf 7.173453984117105 5.052622180319693 1.820034972903178
Hf 4.928298931390978 4.851009479444442 3.991891889840072
Hf 7.2837037484228615 7.76670021303132 0.8629266269318644
Hf 5.296931724128371 9.366598268456066 2.0055816891122364
Hf 3.642909096472311 7.652281367577555 3.9152473173720717
Hf 4.800750583418936 6.5560978911059875 1.5534868753519364
