45
Energy = -391.37481175 eV
Hf 3.835899273470988 4.723327197954262 10.32515605982278
Hf 6.628264672668142 5.374166804778053 10.839845358078502
Hf 2.4230896664802164 6.716241036717577 8.656462717925939
Hf 4.642730289356909 7.563328069131758 10.526994810165304
Hf 7.4139090056190575 8.309611343324963 11.572652898744332
Hf 3.1980143338825746 3.888099543812697 7.636013373476671
Hf 5.5335133461544475 10.71756061280798 10.348641256132408
Hf 3.263623327313909 9.490764339831841 8.991131377841132
Hf 2.17049679996395 9.0594030025472 6.255634497813506
Hf 8.880615963244825 3.8291098848500718 9.816081061622603
Hf 5.880896002436476 2.9967242112568853 9.077950181930438
Hf 2.1983931254453526 6.074249810343259 5.92021342008063
Hf 5.34976623299683 5.689064558323873 8.103794891082426
Hf 8.601516640123549 6.85360556735634 9.050027888994245
Hf 4.708628767130174 10.912424387891836 7.008540968033266
Hf 6.58018913473338 8.964403403390286 8.615419780393998
Hf 8.386047685915043 10.693829285565348 10.333431936194552
Hf 5.542377373396265 2.7126806871485125 6.355918410719205
Hf 7.423603027111257 11.652130443343397 7.761286521971608
Hf 4.418886668887315 7.962151130758187 6.634358372951706
Hf 9.324305319363836 6.040623239638511 11.685819808366878
Hf 10.664406590156014 3.664281448170903 7.541743465341129
Hf 10.3184528214573 8.511573019829825 10.660755365399575
Hf 8.350565532208467 2.121119515760358 6.725453268103426
Hf 7.883786263342239 4.631032790773584 7.080334384311537
Hf 4.143356928799498 4.437020249620596 4.632634576965451
Hf 9.669344326904872 9.85123165747091 7.918672891371152
Hf 6.348472564001569 6.377105792091217 5.125065539664048
Hf 9.387037849578022 11.271267480005996 5.434178396659152
Hf 9.453164784185871 7.146947477049585 6.104430589149194
Hf 3.6406547991116427 7.261737530739695 3.7129364142672934
Hf 4.355367110079976 9.973428561572948 4.318096290367693
Hf 11.258982583490466 5.707967148842531 9.487861631095846
Hf 7.195753200983551 9.308745414974425 5.897132859826568
Hf 7.09406020029416 3.637673796414586 4.169832909601923
Hf 11.853312969857443 8.16370793851749 8.220607857952364
Hf 10.0109836565258 4.314703277089185 4.842926217132146
Hf 6.940901571695303 11.241911229208895 3.9955373032853947
Hf 8.470621059508376 6.201145502177446 3.104563133329654
Hf 5.684113351925016 5.586799606151123 2.4656191278572606
Hf 11.463054631948678 9.092607529665095 5.533292524702791
Hf 6.315497192996954 8.462354787663749 2.8933773387396253
Hf 12.045084185905909 5.954913493373642 6.438382776469128
Hf 11.168772348806089 6.841972599201366 3.795315656770719
Hf 9.19736689179368 9.101557482876265 3.5636916277677275
