43
Energy = -373.39520793 eV
Hf 11.572367844513867 9.359518567392831 9.574725762343114
Hf 11.032115230949024 9.658862563422419 6.7585289146535255
Hf 12.099794392822636 7.045139895522772 7.845848616849342
Hf 10.768648435184547 6.706416252170462 10.754792883640071
Hf 9.161726281535248 10.792204381393464 8.653754680535705
Hf 9.112519245369926 9.159636782754973 11.034118612525734
Hf 10.188215805848163 7.175078566176051 5.434111691552935
Hf 9.40083737175739 7.968042029241831 8.35193507742225
Hf 7.9207129009665245 9.489720118857626 6.24559787742418
Hf 11.141253782757115 4.603545411748724 6.422545722161942
Hf 11.706653147257471 4.4601729935713195 9.226738331104498
Hf 7.916734633193567 6.556676062347852 11.185142284426494
Hf 6.795319468793628 9.044208878288911 9.15848440968642
Hf 7.778586952473816 8.144725755064561 3.602688505082288
Hf 5.671800935584916 11.036914488278828 7.499765864189311
Hf 8.427278425472698 5.472439623362147 3.453433079069164
Hf 7.5167817233384 6.461127218915163 6.052612814511681
Hf 9.922914970129256 2.6201657168466435 8.175322000847501
Hf 8.961008242013072 5.2466849745227595 8.393084657027812
Hf 5.513256212516573 9.145579856705885 2.3367089595678743
Hf 5.499260651776961 10.950852524368464 4.64203310312408
Hf 9.163297938177172 3.883868345660608 10.765421380727233
Hf 5.795518794793456 4.069946085710881 6.130139782400579
Hf 6.258168640188376 6.439639278921445 1.4199651369712578
Hf 5.089924214437853 6.442277899740122 3.957966266755083
Hf 8.507347694946581 3.5209950572137996 5.804791923582548
Hf 5.005539165655798 8.537037120157338 6.046097336196964
Hf 5.81629978305157 6.22644162028672 8.53689674876419
Hf 3.480545300566446 7.4946200781653785 1.6241535241931009
Hf 3.161190572117825 10.715438046568575 6.420935607203808
Hf 7.092204889094949 2.939513810294883 8.646799460708914
Hf 5.203106236066239 7.4806621490650205 11.09810130269383
Hf 3.0292996959881595 9.35343692993234 3.821110291170724
Hf 3.854258627256247 8.66265469110325 8.679690578987039
Hf 6.125045341079174 3.789575297685168 3.176804124203602
Hf 5.8109019516485665 4.538082072752425 10.874487000709737
Hf 3.812905831475253 4.814625117441599 1.878244759327453
Hf 3.5093549832514044 3.9070391204665964 4.518788516793006
Hf 3.4276527404073933 5.832757129132705 6.7726833740758385
Hf 2.149309033573991 6.432106604604738 4.002936137373676
Hf 1.9909816334053752 8.239069849759769 6.346703799923752
Hf 4.2769338876184815 3.647887289107163 8.58194898016593
Hf 3.2632549390454617 5.877359995239729 9.833139368289238
