42
Energy = -364.43547121 eV
Hf 4.133658255938376 3.09771179421724 6.991236241572498
Hf 4.101940237110801 3.040676247909195 9.899072115349405
Hf 6.61685808644278 2.4345733234228266 8.26364530859628
Hf 4.857760290292916 4.287175217356709 12.495374434462446
Hf 2.6803987243412886 5.405501547333281 11.033819331017137
Hf 6.450779687353352 3.129838204303766 5.2136029477489965
Hf 2.8689865936928935 5.367404471115044 8.207157532178194
Hf 6.918488193252611 3.2477617714364304 11.003852306859685
Hf 6.34019418599936 5.062188731602294 7.307095331951759
Hf 4.419196400923406 5.222690255508844 4.777588227592279
Hf 7.3118861758755775 5.9043839075394215 12.122587405116828
Hf 4.562269856169092 7.0899473668475 12.349252629009142
Hf 5.4007446874277205 5.652133616587732 9.948414735938918
Hf 8.992398858907007 3.938940739948697 6.375805649301393
Hf 3.5059396472997277 7.9133156282933825 9.78434229852468
Hf 8.505898675637011 4.934251142004096 9.463284087153355
Hf 8.761199658629636 3.6220366671189286 3.4611070342225343
Hf 4.6228992295452125 7.460904932115254 7.177739468624649
Hf 6.198272955857017 4.295496350254897 2.500483614823962
Hf 7.679398575889786 7.70893867777159 8.094765305250437
Hf 5.496127133634397 7.0852727149566155 2.4356861726764145
Hf 3.5493224432775765 7.9314464655769505 4.355040033812262
Hf 6.4070384214525316 8.474363959632486 10.661662813372358
Hf 7.32477424990751 5.865952650709225 4.6240639065268745
Hf 3.861082175803595 10.125742735590414 5.930578223425493
Hf 10.29355377364659 6.3020439004731506 7.372392759357307
Hf 8.592569835776713 6.13456788245567 2.060432989958533
Hf 5.805347785261146 10.180611057846788 8.104027305099999
Hf 6.29316099386702 8.756568652592753 5.1976235666332515
Hf 7.624291519834135 8.806738310403132 2.2237247451039996
Hf 10.593251705524443 5.671349903295941 4.293495381289466
Hf 5.152242854123628 10.204202504038438 3.2047748448198323
Hf 8.406484818573702 10.137076882323992 9.560693306302769
Hf 9.141236636359311 8.182445681380639 5.308431364320672
Hf 9.393399997155257 7.596032977682548 10.337155385227447
Hf 6.110091559015133 11.728233677885626 5.587004115021899
Hf 10.477131131854756 8.52820791749269 2.941017424061681
Hf 8.296836307798682 10.858137034150118 3.8626991661477543
Hf 8.534333725456232 11.052905565995253 6.809838097330914
Hf 11.931139711081741 7.906090391631484 5.478608898377393
Hf 10.506682127387373 9.10469818040467 7.834608011084144
Hf 10.865248198630056 10.485490010550524 5.2263342066198115
