47
Energy = -409.67985618 eV
Hf 4.356857530251079 4.973905460617671 10.92060352298664
Hf 6.819966699111591 4.812893728954169 12.366884756403028
Hf 5.76603317449626 7.473129401790633 11.956408068972154
Hf 3.64100808707497 2.902803841519853 8.793626127540307
Hf 2.112539092266556 5.531810113966074 9.130189615613745
Hf 6.578796431943838 3.1612481036302174 10.018066915696794
Hf 4.04384961484108 7.597462609748402 9.679493283766737
Hf 8.561662955457477 7.033424492525071 11.945907909597159
Hf 1.9045559605761293 4.297244641430351 6.747958672266355
Hf 9.151103676890852 4.472799134098888 10.93148544300394
Hf 2.725402669549831 9.830438240123819 8.221632541933541
Hf 5.001482948068149 10.447103766604135 9.893023356012124
Hf 6.966301626015322 6.058688409274198 9.637899554524374
Hf 6.5696901875024025 2.6349363298066715 7.14841535615477
Hf 4.540334289177646 5.234300899289662 7.579447062853131
Hf 4.054521279185784 2.708959418677519 5.934596761019405
Hf 2.665663892331231 7.300906024181746 6.550895958297228
Hf 7.5611940801522035 8.967978918418574 9.947968963482857
Hf 5.325879200728904 8.933427350139574 7.469158231782653
Hf 9.896649457486616 6.764470145576877 9.206513918349787
Hf 9.038684535728352 3.991405843584207 8.20050083484215
Hf 4.602148258602481 11.745540610251835 7.325832216587261
Hf 3.477663806009053 9.939027386764096 5.304047071198777
Hf 7.19935983024814 5.472355673323216 6.455773862879433
Hf 10.301378924901256 9.779716088913032 8.334693424964822
Hf 8.27188506687325 8.384308156743918 7.21272201172887
Hf 6.410699456971729 10.856394890594872 5.221394414008236
Hf 12.155765332582337 7.548151709898485 7.577501400532671
Hf 5.269992320376419 7.354191475610985 5.109855016863056
Hf 3.4662269732988804 5.019612921916086 4.3836714077169106
Hf 3.1182866407282797 7.726309990393837 3.4461538082857546
Hf 7.334836761020746 11.22124987891937 8.126685916262677
Hf 11.02216508007248 9.230162445588524 5.358543266673951
Hf 7.974668159036858 8.224976979392414 4.53599065130076
Hf 9.960194709950402 6.3044189989519275 5.928435872723869
Hf 6.120698429421087 3.7784871190761304 4.27085606859302
Hf 11.867587681847933 4.6353290949862735 6.865111965376425
Hf 8.991450541587916 3.4909531630089097 5.36189003811066
Hf 5.5975744878397595 9.260309371694916 2.856226679953611
Hf 9.118703407639863 11.115218260142987 5.935507799593533
Hf 5.531863823535629 6.273806612522681 2.478002233719128
Hf 12.640403939220358 6.773373342563839 5.005594187368693
Hf 8.463909957490895 5.297471288570293 3.129058943710372
Hf 8.864744325125722 10.259473138246353 3.1272473298882257
Hf 10.515528204838569 7.458627909714669 3.017866861626771
Hf 11.249776291298847 4.6531243913502145 3.919947564284037
Hf 7.8950757531218665 7.777682882951604 1.738799088097352
