48
Energy = -418.34970892 eV
Hf 7.336998255065127 1.198114246832178 7.081929821391116
Hf 9.695884534315914 2.953739286178653 5.947623964799703
Hf 7.4974186106297935 2.352162527707279 4.379150897623804
Hf 9.5529660792936 2.2875356111733085 8.700763449315032
Hf 8.57711610166721 4.6043819574330636 2.762825496071174
Hf 7.025594960963117 2.056485695608573 9.913740187791504
Hf 4.598579978015042 2.550905873962831 8.45593366699899
Hf 5.0138996488602 3.118627800098406 5.648352761771591
Hf 7.399111646419865 3.855562673306581 7.709135164287036
Hf 10.122597054460016 5.1214949051097305 8.053392558114322
Hf 10.489491471320488 5.843253801060668 5.262503997510799
Hf 5.715234541527365 3.9545511385655514 3.0183796278164134
Hf 5.5850422186773265 4.4349733620992025 10.658202513821239
Hf 7.459131866941783 5.2940880510977255 5.183233485923794
Hf 8.674431637484895 4.445176385396491 10.56816337793775
Hf 10.985631142790714 8.692608909186864 4.864635772965291
Hf 8.657364321836946 7.534762753323604 3.6066966923090953
Hf 7.472329676655743 6.640965097180608 9.110172773583844
Hf 7.18018615699647 6.79932696421959 11.827582742533842
Hf 3.190742695255104 5.656348057613711 3.0450391476926755
Hf 2.8325380371424624 4.8464947444337625 9.505964398577003
Hf 2.464136049337043 4.782497926813135 6.319689099703934
Hf 4.893729335058678 5.302588851627387 7.7943655024154275
Hf 5.995711664027897 6.607714497063328 2.2733687316148044
Hf 8.766876232629759 7.760207863052987 6.518480235141215
Hf 9.834479824615215 7.534383588031216 10.350685000257656
Hf 5.762019344644821 8.135747919350026 7.6567717914915665
Hf 6.21166640484278 8.605790890753665 4.8745053093306
Hf 4.494831358018964 7.220883761990975 10.338709895172684
Hf 4.690037147658445 6.265251848626314 5.138885359726769
Hf 6.805481798673078 9.493129844864107 2.3149081045901085
Hf 2.640647556101081 7.3415366632243195 7.877064420876042
Hf 11.489208290875608 7.8151422439973075 7.606478514229666
Hf 2.073116353662521 7.460836006818428 5.0226174313058385
Hf 11.495078911690374 9.812136534950806 9.703351850690034
Hf 3.980742293228097 8.658088821959245 3.0157426543306767
Hf 8.80372976469568 9.898437305377652 8.455833430112788
Hf 6.572975688085672 9.319961184672698 10.30905651156232
Hf 8.425118895807348 10.400564795667318 4.933390793947275
Hf 6.112407176070536 10.97486386046577 7.134134184652782
Hf 11.108135635403919 10.7214073737162 6.910952413465547
Hf 3.965967471917406 9.840170078207272 8.90627366344574
Hf 5.474816392569046 11.191079085736488 4.1788554492511265
Hf 9.177591891080642 10.395361372527455 11.277357127664338
Hf 3.5677532552133666 9.738625794656414 5.959009441061706
Hf 10.246480371290112 12.271150699142028 9.310914563048133
Hf 7.39550432082734 12.134568302499089 9.628511969887095
Hf 8.610923291831218 12.487261770579464 7.037934985602978
