48
Energy = -414.38602503 eV
Hf 7.346670789605758 11.89578434165513 6.28199924688848
Hf 7.917928045866523 4.1516403052496855 6.593090736875519
Hf 1.2116818302481633 7.378278312205554 7.79721917455783
Hf 7.56635968292131 8.880890304931365 11.664890320432876
Hf 3.280947222486422 6.337949923350458 6.013968308203794
Hf 8.247190950805535 11.895784341655132 5.728384077440848
Hf 8.13249982896003 5.748035283725761 2.321149060747726
Hf 5.865009177941858 11.531644197099762 7.352830617321993
Hf 8.227483332707745 1.6285545277957048 8.266631830179762
Hf 7.030194046863956 3.4672426820757862 3.716800030846675
Hf 5.848260430692269 1.3998655686151846 7.01096315528116
Hf 11.997312751373512 7.649858638080037 10.894769380449254
Hf 3.5720168808366886 11.147230092514418 9.331454986103221
Hf 6.894703858991841 9.141446391880443 5.858254081664654
Hf 5.9683751898823125 11.164537273865307 4.166652201774684
Hf 8.754530708384697 4.18461075873186 9.588068945132573
Hf 9.820713216667817 9.337570394182386 9.848673593828568
Hf 4.317264406732573 8.78886913868742 4.301982575430739
Hf 10.49886761283447 3.063073699861676 7.308930977970847
Hf 5.8462771067717 3.7756329262551764 8.694067118985297
Hf 3.758205418175774 6.2661914051317575 9.068189759278031
Hf 9.490107965862967 6.538271356616184 11.063829800223802
Hf 9.187305001336629 9.651551842093859 4.01326808536687
Hf 11.447841942143041 8.360765171936425 5.19381915947128
Hf 3.898535447069743 8.781387479460276 7.577420169535331
Hf 4.80836154072999 8.8746839540971 10.821259018366003
Hf 4.985733586291066 3.7952891776560524 5.8050664275979145
Hf 2.167637439464782 8.712302951675069 10.008038892767411
Hf 8.46276571369812 1.5591082088010604 5.2946815446384985
Hf 6.9163172041992995 8.408863395116487 2.9571066017300724
Hf 1.2726487165329345 10.227824937636424 7.819436532910131
Hf 5.674369168819517 6.0726160785505225 4.0356817897580255
Hf 6.040235263535438 6.393782475097597 7.189474929815355
Hf 5.856541884152854 0.7615596652362818 4.3455065225033636
Hf 9.075454714819529 6.781700894841646 8.0322815713229
Hf 8.454157727443189 11.711455058194922 8.556121429253926
Hf 3.319490202307593 11.154691357900708 5.909728216608335
Hf 11.86355059624661 7.881486316519686 8.014646573718125
Hf 11.440247259088434 5.281557341088046 9.212457415542454
Hf 10.729412631321162 6.7731119243002045 3.120414105207062
Hf 9.740166728728237 9.735774044848242 6.964580208666378
Hf 9.816747705099234 4.134460738944688 4.038985579863295
Hf 11.35508827206289 5.646071504973778 6.076425785300403
Hf 6.974053142924019 8.988600782685824 8.817998686724088
Hf 6.351654803730639 11.285210048653632 10.45138138079997
Hf 6.690247869143015 6.369012500461187 10.133408766831787
Hf 8.628287690935867 6.8546441056839615 5.011044064143803
Hf 1.7520221702364536 8.807793663844427 5.451647166700573
