49
Energy = -427.17165239 eV
Hf 6.261664692027607 5.3042683177381456 12.024082526531966
Hf 6.962300107651198 7.9971818917291415 11.201038527974202
Hf 4.682789944265902 9.680231552984608 10.100788113809237
Hf 4.230463173624282 6.855152825091235 10.525884519495557
Hf 8.915117026968963 5.730741042770007 11.916618551177162
Hf 2.7307797430598626 8.063310776538955 8.433658473380484
Hf 6.384151387778925 11.63731595471029 8.816526836720909
Hf 1.9082711327045958 5.028523540472773 8.854076239054157
Hf 4.1912441122996205 10.634261851205427 7.347161322189199
Hf 10.058107699930462 8.129982298772545 10.788320773932366
Hf 1.4361082472982822 6.522563240573419 6.2194937392983585
Hf 7.789206081470262 3.2690349912335988 10.653897529360016
Hf 4.959032111436123 4.158045035497655 9.814103933369697
Hf 8.294120340919642 9.400134911900981 8.885512507640673
Hf 7.48700225695371 5.705068527752124 9.308499300141554
Hf 5.748657857401579 7.934243071932384 8.111444923932085
Hf 3.7369923335444595 8.26632571666902 5.7802623771458
Hf 6.093217067675764 12.55239539874414 6.188364457857243
Hf 10.52037647394946 4.5579427944131465 9.98824853325484
Hf 4.009973988792629 5.559591188087995 7.214342295654628
Hf 8.771159804729475 11.990657146560077 7.304198301369759
Hf 1.8446829688863993 3.8392732626927764 6.095604150319963
Hf 7.124771838019647 9.839740923191794 6.238908227712143
Hf 3.423103240101842 2.6423587986241115 7.988407564812475
Hf 8.62695411535255 7.198401948334212 5.721687688995548
Hf 6.331389471302348 2.522041029383551 7.873407689360864
Hf 9.258514021061332 3.89817651871381 7.3239810556681535
Hf 11.218303945621537 9.418388116134976 8.52095964930698
Hf 6.654241626255557 4.992431272475248 6.262376584952057
Hf 12.462405725112225 7.024713420703272 9.5191160469748
Hf 9.97696554454584 6.793931394480122 8.179003152918403
Hf 3.4428514511926847 5.402476953365341 4.174734851757445
Hf 8.179876548789036 11.778356304172965 4.496920078300844
Hf 5.323263733722221 10.277241866665127 4.126861447369453
Hf 3.463798020127307 8.190987585926473 2.939575176080519
Hf 10.084100413570368 9.691372454543838 5.798623449766973
Hf 4.581309473222024 2.7281131681448922 5.420617234736297
Hf 12.163451038217685 4.867219314680417 7.752065007627663
Hf 7.5038974615932545 2.4426058454175035 5.274550999572955
Hf 5.966126182520174 7.205257550078573 4.134742821759367
Hf 8.73000133117414 4.830970728559929 4.166968464968984
Hf 12.290064530263216 7.528333650119668 6.470600830379835
Hf 11.196243131433949 5.147639165525399 5.313693672781764
Hf 6.124310722354208 4.0788296612965 3.220352258517052
Hf 10.633467092392477 7.325166648424786 3.6620986737270655
Hf 8.288078948550805 9.070860380464692 3.446940665249101
Hf 4.901385255168738 6.123126432129438 1.6381120116176613
Hf 6.006587537485361 8.700405820113081 1.6399112477291413
Hf 7.8222137390137085 6.4514625502436855 1.9716072403458111
