41
Energy = -353.36389238 eV
Hf 4.105616520430886 8.163562582289769 10.731720195025275
Hf 2.7282164777341102 10.194077217581654 9.12572420755346
Hf 5.545606479658244 10.622235160384237 9.814728044076434
Hf 8.483201329805135 10.55501433945318 9.80035688486815
Hf 2.975330692697886 5.592654486225957 10.400792149490798
Hf 7.147743468812131 8.174126668783716 10.735738205815112
Hf 1.8482597226973032 7.55472861945838 8.855928965677103
Hf 7.138390956031456 12.068863431274465 7.8742195850018915
Hf 4.80173487395719 11.079129548303303 6.913301642144401
Hf 5.572405062481529 5.425052660839874 11.59859606340376
Hf 5.815395471776795 5.989923532983833 8.894982468963818
Hf 9.4929197580622 10.612229954619137 7.0280650894898296
Hf 9.667705428789317 8.08112731269698 8.896465390936884
Hf 7.056355121861581 9.05792340263671 7.717706568588015
Hf 4.1839355550823365 8.389404169893155 7.629453388467498
Hf 4.3661448660387565 3.4866925192710414 9.454773432380033
Hf 8.515895816623269 5.55678475896544 10.5852837539208
Hf 7.310177338993327 10.683273738452426 5.198688252783083
Hf 3.1385197233107944 5.157997570779527 7.487283192209478
Hf 4.959975305522427 9.067299393276471 4.680964185326347
Hf 3.2394432382934975 6.934030146622495 5.274210726675093
Hf 6.079085204530259 3.694962899724857 7.008473445001185
Hf 9.136772710939294 8.002268064318635 5.615746222796934
Hf 11.859838209395395 9.488290051010065 6.05431158991185
Hf 11.037853807189277 5.3972455983203735 9.267638221057004
Hf 7.2367042353394195 8.498478958140874 3.0634560079670754
Hf 6.261204575373418 6.337103699924617 5.489568927621421
Hf 9.52790152518555 3.140510100865076 8.750046940062171
Hf 6.935001462300751 3.3593523716472378 9.994115587024531
Hf 10.147783179778672 9.926492327388724 3.862008436379468
Hf 8.584730281144022 5.582039818334269 7.5629630570085755
Hf 11.77583883675007 7.002221880351152 7.123375584275382
Hf 4.07353511115116 4.293933401639924 4.798001097386295
Hf 11.075295933055813 4.321261591349505 6.5609704965320015
Hf 11.723240069136533 7.30797833252505 4.29593781776019
Hf 9.234112494950097 5.277672301462495 4.391384790002946
Hf 4.871483749902045 6.523151832850888 2.9769863235126746
Hf 8.71998786998654 2.8875439567568293 5.971709320861897
Hf 7.493591228090288 5.8142891372017775 2.229067295968999
Hf 9.751368582632683 7.454970275664377 2.434720105232218
Hf 6.624165587576504 3.7874364767169566 3.970393353154193
