45
Energy = -390.88707016 eV
Hf 8.592602823496733 8.27994216024743 2.011058756118053
Hf 9.660482874599474 10.811911626728568 3.265172082433106
Hf 7.0619993629127125 10.803776683913327 2.4457143115720026
Hf 9.483609481426127 5.958146578669486 3.8119527154492596
Hf 10.912696336273498 8.43067241249734 4.202756166776383
Hf 5.5525969381725915 8.428544611602788 2.4797860890133188
Hf 6.862444617200996 5.858126157834671 3.0658435657306744
Hf 7.912354241098458 2.958132049493607 4.24295819707283
Hf 10.581934483708451 3.5874824590527736 4.943751290517299
Hf 4.146144108426519 6.129411457120701 3.5525868058277017
Hf 11.82489728197096 6.046776425016402 5.822759087670331
Hf 7.777234399185114 8.997320925238451 4.602107497344529
Hf 9.94835057708383 10.575613295213612 6.1130085267670315
Hf 7.685045786990804 11.93057338068372 5.004589564098438
Hf 5.2168108095711965 10.612683871667395 4.518053212411323
Hf 8.17938273313865 4.795820743564751 6.35024131013282
Hf 3.4591014581684782 8.585724137096333 4.608580803125983
Hf 9.36107338100635 7.462459918858469 6.735934348547507
Hf 5.350064073758349 4.253795100756914 5.361444676771168
Hf 5.881748894017181 7.14695377877092 5.695297078905459
Hf 9.229004667689196 2.0270891854173265 6.673844557191553
Hf 10.88909517799692 4.118999201441505 7.782635827369854
Hf 11.906646197135101 8.732315943909155 6.9677779302349245
Hf 3.1676923128441388 6.288693541825357 6.362967411031741
Hf 4.539577531903946 9.441862048668819 7.305138266432115
Hf 7.506986677056584 10.102914871671292 7.370855134261524
Hf 11.559185376748252 6.721292410482031 8.642586735618488
Hf 6.963067607194386 7.6158788340683605 8.559720318495271
Hf 1.7705749844461816 8.353478451758859 8.080710117984887
Hf 8.227010233994601 3.278242958856958 9.137812252376426
Hf 6.435826009774234 2.377986269144087 7.0555952932803505
Hf 1.568516475979085 5.599619661602458 8.777869392478618
Hf 9.55090303423155 8.894451816177348 9.1802770179459
Hf 5.950960600165851 4.983777263384734 8.209146009423067
Hf 9.080874202389058 5.904508510689158 9.611241593194247
Hf 4.0779336115094145 7.080853326714235 9.04102599729179
Hf 3.329278446222928 9.673639501887676 10.06101777396559
Hf 6.090726173364855 9.812007254832848 10.130538911551806
Hf 3.4579384820232058 3.647680468483486 8.026350561046812
Hf 1.9635691265987785 7.367823488739444 10.87009751057002
Hf 5.438768669354126 2.803165654913594 9.901262529805509
Hf 7.675625396946598 7.772723321238625 11.351215774555532
Hf 3.587538912510385 4.835408646535817 10.843127481314786
Hf 6.4973474349698135 5.205579821972133 11.238797222435737
Hf 4.788525672694249 7.588333333202231 11.766648138256546
