42
Energy = -361.88410578 eV
Hf 7.514113198098278 9.840482114739112 3.3100885957604462
Hf 11.002969898118131 8.764319311269016 3.9781749526206265
Hf 11.981631472732925 3.692212047048633 4.965843476578
Hf 12.969214396753541 7.136363061985266 5.496984488933275
Hf 5.808166157774834 7.655198189781127 2.9637477476315994
Hf 11.10536127054253 5.991840558587142 3.7131296538727074
Hf 8.514044100284945 7.0910859371337285 3.770023009928879
Hf 6.332652709567227 5.439453779699561 4.800365575999399
Hf 4.608870562138666 9.946160251597517 4.206751989830175
Hf 6.714557247196259 11.559016870252377 5.334979533110232
Hf 9.251173629537561 10.309406207507118 5.727245525472642
Hf 9.881029280643927 3.1832599417394354 7.330838891506525
Hf 12.010338754771354 9.708216494424706 6.4344500998337635
Hf 3.8313525609104837 6.990063368906784 4.921515022015856
Hf 11.950363849135057 5.088707084951084 7.2286086970644945
Hf 9.134471658891016 4.198682915135313 4.761765164396935
Hf 12.310490388371665 7.652692156811441 8.387311012073758
Hf 10.072395392865008 7.413726389909101 6.424332221527269
Hf 6.604289242422932 8.517733921021398 5.7554407787757205
Hf 6.972666727314032 3.0685550060785407 6.717333651631741
Hf 2.6161015242939336 9.139866932493446 6.176596399565875
Hf 10.09354582315046 5.750253742405244 9.201284423287412
Hf 4.685366113907199 10.796541988511542 7.1233712164607885
Hf 7.436003297788753 10.786947886128692 8.04994777845431
Hf 4.8241275097581235 7.711505686110313 8.141406281296323
Hf 4.575139278582567 5.009694049355852 6.997399853093096
Hf 7.869225241719829 5.508048754464199 7.378811723578095
Hf 10.190503476442712 7.993396223608143 11.024027192222938
Hf 8.143723000489095 3.326780918738541 9.418989345065933
Hf 2.1846866893520875 6.693985755619255 7.391770360328303
Hf 7.846052607602491 7.913799403990455 9.233432297378359
Hf 10.212301533587256 9.716355695084149 8.660192153186262
Hf 5.381050763978891 9.977324856350892 9.967455544678051
Hf 7.975950466452132 5.6202089344441895 11.22331566376213
Hf 2.419805309568192 9.122795499616997 8.967608847462964
Hf 3.016897808163601 6.498187784088661 10.098951356828826
Hf 5.74032714312963 4.921225413323919 9.505030182885191
Hf 8.320966513935504 10.230112264159791 10.969503721922774
Hf 7.951325169811619 8.126721273818504 12.7427002761304
Hf 3.2587979009894004 8.959062155701858 11.738265102405
Hf 5.601279146285683 7.299922367063341 11.324706611606516
Hf 5.777839783323933 9.887484171537443 12.747173607418077
