44
Energy = -380.97587315 eV
Hf 5.986584214221907 2.1531867402563805 8.663726232865441
Hf 3.4479912524814087 3.504871148199831 9.125566298553592
Hf 4.989057558569351 3.485155330969127 6.432711436821644
Hf 8.033460817610393 2.591147798066832 6.717344405217028
Hf 2.310727966322519 4.77255936421184 6.791641811378148
Hf 8.422016054252207 2.842272039695982 9.646344171289286
Hf 3.5278937483228985 5.571246912585371 11.218250498224643
Hf 6.015190745862807 4.094979610838668 10.7406792835143
Hf 4.1638713745782665 6.143765324800451 5.200357766323422
Hf 7.2259967610160505 4.848809081095589 4.91352842824095
Hf 1.6666989870745705 5.915389119039985 9.204326070356647
Hf 10.162046101374207 4.38563087301391 8.104744531075758
Hf 10.217373373416729 4.300760479718629 5.036621998470214
Hf 8.64863888373015 5.62215566520783 10.52504048782107
Hf 5.948153757629186 7.029670673456923 11.038008655171602
Hf 7.237742655816802 4.9812223916309915 8.001764182119201
Hf 4.493863517016899 6.1162832925395785 8.396049226898597
Hf 5.909883441983183 6.862089496798372 3.1219578287807486
Hf 2.4932317385243405 7.695931244107131 7.08821787927323
Hf 8.91652422158796 6.509132534988874 3.18831735394399
Hf 3.222334802380108 8.19024380504722 9.987627550366483
Hf 12.139594349554885 5.817491396949631 6.752006371507619
Hf 7.668980926923555 8.211708088465786 8.786553219596259
Hf 9.51799082844135 6.833828113967695 6.131179338391812
Hf 5.037595869024272 9.197821582680552 7.810957409441214
Hf 8.353168241762239 8.529923335564153 11.638609859458205
Hf 6.662262057060007 7.612911177728256 5.884538420400477
Hf 10.629152838774418 7.225173993899712 8.882848981170381
Hf 7.356612228293065 9.240983735644152 3.3906353286717392
Hf 4.658512678785729 9.010433116077781 4.5882803495507565
Hf 10.043985704248392 10.019047321346516 9.725199298387352
Hf 5.915147076497311 9.793031631169002 10.6996741259582
Hf 9.278919088536504 10.003694936055455 6.666459791472771
Hf 10.21634844755727 9.059176505216067 3.863001231768056
Hf 8.218556513703081 11.434955819363083 11.436563193723392
Hf 11.706970059027881 6.658246792195497 4.155720974311815
Hf 7.4290170315892565 11.2923290165039 8.649405035362056
Hf 11.86953228164937 8.714661736843295 6.473804112558139
Hf 6.553171376031658 10.935544018382537 5.690591024497153
Hf 11.680206985247708 11.570038536071332 7.80138798754839
Hf 8.829602192972388 11.642343179769682 4.072566297884525
Hf 9.751490400071146 12.816812622448811 9.522104723518058
Hf 9.335881931640126 12.882625680544175 6.6085810954582165
Hf 11.374573880161806 11.411290814331409 5.129695489791687
