47
Energy = -408.6793217 eV
Hf 1.7756751088839193 9.002669205855947 5.379221439523903
Hf 4.3854743845048025 9.279759657089954 4.161182583590166
Hf 3.277169204198558 11.013546844250188 6.353539046949916
Hf 2.9560160851582187 6.560205829580225 4.39740432361287
Hf 2.007221665153516 9.174421387216398 8.451468486694804
Hf 1.3460544827050926 6.792388124327035 6.8632303862443615
Hf 6.256247253723557 10.657418276755662 6.255282573837948
Hf 8.56840562745188 12.3454668769189 5.565406537704692
Hf 4.118119700990913 8.228940506241807 7.03635732880874
Hf 5.6573505573636895 6.2729358310874925 3.076297749260446
Hf 8.203062429127371 9.762599520967543 3.9905349279844913
Hf 7.968694420319325 12.052923209743506 8.265442034881461
Hf 4.585817471948632 10.616727447327483 8.765829817391632
Hf 2.3121190261376836 4.190488871312035 6.387267725107048
Hf 4.608259681229655 8.034333019666848 10.151951055392864
Hf 10.689683236062342 11.04724748617293 4.524654144406593
Hf 6.543018346183348 7.78501559102887 5.439469020462352
Hf 8.45261496784453 6.6717967973876675 3.2570071618196796
Hf 10.946285504181906 11.90307728885473 7.480630983030691
Hf 9.33053556068223 9.759799868831852 6.877606935958775
Hf 7.44134138745996 3.9065724978430767 2.652531402483434
Hf 2.9434533607990225 5.932319233341372 9.00402056222288
Hf 4.6413969420107355 3.7962239678892176 3.806062619584447
Hf 10.793485441760714 8.1536485703444 4.257231227145618
Hf 7.360451283536835 4.77754160596207 5.201489546424726
Hf 7.075138840256237 9.333600798907343 9.062605683612889
Hf 4.7177593548101155 5.3309897905929065 6.529588664321525
Hf 9.557921698964202 10.452389067339354 9.857450475181546
Hf 9.02955460404403 6.93209277534994 6.4382398000328624
Hf 12.35276979254508 9.619171606906342 6.168143227131463
Hf 4.09981063700459 3.0712075844858213 8.72299347184131
Hf 6.73538305024591 6.51352926680588 8.39947184987155
Hf 5.3784225226335725 5.023708172872907 10.563798615077435
Hf 4.3388343091605295 2.1664547560844665 6.126355421868027
Hf 11.74853086221429 9.289686437932561 8.784722140128828
Hf 7.236837063924487 7.254572931353913 11.116638918787897
Hf 9.632915237421235 7.400406012820693 9.390578456452953
Hf 11.754491399236443 6.95061294514702 6.969676355124912
Hf 6.638334592905689 1.8962181436644199 4.7572315272849
Hf 10.278795623921862 5.009073320125901 4.815280044947202
Hf 6.961594149445297 3.611926707210926 7.779943692922274
Hf 8.376635648265298 4.655363298103516 10.316171667609948
Hf 6.510160578466591 2.346613044548132 10.31125596930884
Hf 6.544221905658174 0.917252034015307 7.676399352970552
Hf 9.962919119156403 4.447131138176166 7.705937374173219
Hf 9.076148294639783 2.2073421886111815 6.101237928054199
Hf 8.970870173849793 2.0523600541318663 8.990597548851815
