42
Energy = -363.69205806 eV
Hf 7.276184725304447 9.844649637235431 3.482258480962567
Hf 8.739152426112181 7.256004295312109 2.4151087367756467
Hf 10.040636822453013 9.566869506322808 4.261528243810149
Hf 2.8926539910866285 7.680383398828569 3.6240340783070883
Hf 5.653650049517051 7.485146964251675 2.726239948429969
Hf 3.8019084203184024 5.08204890822447 2.8449995719617407
Hf 7.831117846981664 10.143551492279908 6.491142759910378
Hf 5.060285835121793 9.067101177453518 5.307022131504034
Hf 11.25345600676743 6.926086052103353 4.176696673325129
Hf 10.6619822442631 10.63485035254398 7.027165363429909
Hf 9.31449877159074 4.788438881422282 4.202405469961455
Hf 1.8234533551068446 8.060060836153125 6.265578407960207
Hf 12.529008931581137 8.893079120791516 5.866964003044478
Hf 7.7689420541228 7.491861161938897 4.944029488281972
Hf 1.8798647036973337 5.304962810599028 5.107741248566465
Hf 10.06522696256024 7.791730034807428 6.668715915987145
Hf 6.740947047487929 4.879611055006816 3.4220026392010383
Hf 3.7953244324906414 9.587484063764881 7.956882246120321
Hf 4.733704659197159 6.178588043821379 5.23090705698727
Hf 4.46522805038097 3.37685688858399 5.229552589385602
Hf 12.55751393016759 6.280698799950046 6.857640829608688
Hf 6.349099135559563 8.012756613661534 7.92293942599607
Hf 3.8497288172822137 6.481498500439886 7.841008121696306
Hf 11.934536678578588 8.538050023918794 8.781541098037655
Hf 7.1971226979459155 5.402414005819514 6.756647641840157
Hf 10.15521879877235 4.7010634267376314 6.773854860625424
Hf 7.466215593590465 2.9617563054554448 5.7846535531370815
Hf 9.279401890768439 9.913519729110453 9.462578492908776
Hf 6.4454538630090745 10.387480466001882 9.39892683285284
Hf 0.945736289012988 5.786246291329467 7.8801425929505
Hf 1.8165401105871162 7.940413623041964 9.286278322636951
Hf 8.745424015618758 6.9272040048779555 8.99975119420763
Hf 2.6543715999270754 3.6944900379342225 7.410602560242967
Hf 5.320878674811394 3.725401961685994 8.197979842557817
Hf 11.225194483226803 5.586942024013899 9.506213734430231
Hf 4.50082313592588 8.134380376967375 10.298340192621113
Hf 10.39190054571454 7.91854853831794 11.1575753358075
Hf 2.9514352442736946 5.170182815980763 10.019181769541243
Hf 8.471521587584522 3.975661737818873 8.97635894493632
Hf 7.470774962933964 8.233753616575067 11.252884265677295
Hf 6.174103625471659 5.707629024804466 10.180283083018333
Hf 8.866434812878165 5.564469347606492 11.421504366942367
