48
Energy = -418.44524377 eV
Hf 11.760068878684828 6.31854345922696 5.375047421916813
Hf 11.943531657256628 5.64823414534838 8.35112933507001
Hf 10.335909253398208 4.395475375745268 3.428819098162552
Hf 12.012352383408002 8.447632141027624 7.486202278502322
Hf 10.374379256228224 7.254434705977446 2.9419844278632996
Hf 10.296505153861284 4.050397293504554 6.428477723301515
Hf 8.80619584087807 1.484350457153413 6.187894572641732
Hf 11.06410757527668 7.728211279619137 10.150942971125458
Hf 8.109860345173598 5.77175204592601 2.129517424366587
Hf 10.409875905091221 9.045129831587904 5.1975800199062
Hf 9.245271011994612 5.340078589961772 9.97217076786602
Hf 9.592314967249228 6.864865681416267 7.424486183584126
Hf 7.471382813064141 3.429549162393504 4.0078919962274675
Hf 9.383450206360854 2.589968036526583 8.843038061868294
Hf 8.640756494155134 6.02445917037776 4.9326592635728375
Hf 5.981678160274969 1.5301827668332877 5.7989170817762945
Hf 6.966251813089603 1.1826716933963313 8.418533828660456
Hf 9.597294737935654 10.189990003532898 7.855492601436821
Hf 7.776492416293029 8.573726519879736 3.521278714898969
Hf 7.359744253355691 3.7383483071553765 7.034075918738458
Hf 6.480583455320639 6.004964977356112 8.316439239030496
Hf 8.119152512750512 8.17860614334896 9.541032046440186
Hf 8.368042812003994 11.073225913196845 5.108845985433975
Hf 5.376214891277209 5.233703639507173 2.8144722841452356
Hf 9.424953579729083 10.22545306815943 11.022258247089988
Hf 7.256875455325712 8.969526703076918 6.6526266817911095
Hf 5.803797765785542 6.855278672014495 5.212638028453899
Hf 9.095465257422052 7.577645416649465 12.158172659864842
Hf 6.809201722165718 3.480399695231405 10.188421007155288
Hf 4.911155336483343 8.11252033948791 2.695797748683289
Hf 5.6328018405654285 10.509739829666913 4.208953863715941
Hf 4.683475536562951 2.988973865345138 8.13386773534268
Hf 4.740215647872244 4.064239321079595 5.3428650804018165
Hf 6.561686121807844 6.362963550586762 11.399724454266352
Hf 6.147733463112143 11.802796718438756 6.824534724582944
Hf 3.1242220255924273 6.4537413749238635 4.243531670269626
Hf 7.017102319805917 10.842209066827266 9.36570282033016
Hf 5.060975380373462 8.203564262199572 9.518274311978164
Hf 6.789977687403077 9.309046377537124 11.80726089568151
Hf 3.5771330036307702 5.975718336039308 7.382927532922624
Hf 4.103944346223079 8.93286096111401 6.626585497923981
Hf 4.328391495955628 5.227678589010428 10.02813149542178
Hf 2.652017711067938 9.465361944537515 4.205553479905528
Hf 3.6144764165818444 11.772829284960764 5.773235082493078
Hf 3.8593988672260564 10.97204700799561 8.672185482044572
Hf 1.4080565442412278 7.65143722891346 6.254394336718026
Hf 2.305514762668222 8.35762272167864 8.85253508430656
Hf 1.577357826687534 10.324664597029345 6.888900580990652
