41
Energy = -354.54973001 eV
Hf 11.07455457558916 5.298508674678137 8.965421474125282
Hf 9.096363028838194 4.912352808396715 11.067796641713164
Hf 9.799775513152296 7.764084770946202 9.816611111177448
Hf 9.650262361586988 3.0497984747426887 8.820514579947908
Hf 7.725787552436974 7.393974419023114 11.920618408482975
Hf 11.042991343260613 7.383285195216738 7.111711535084515
Hf 10.722219362696535 4.072878704934217 6.2592189973196
Hf 10.089371719033975 10.272651013724104 7.928880165792268
Hf 6.230956315385131 4.948008604443204 11.752678390230106
Hf 7.086536465699228 9.282653586315337 9.662045573906537
Hf 6.923808163234927 3.113681219563022 9.469480719508663
Hf 8.537508096650745 5.337952923682313 7.132288640760075
Hf 7.15719504877893 6.249376329310924 9.437895187497173
Hf 8.008103495784683 2.3630188228547606 6.694527291845124
Hf 9.794121656746864 6.697296232533216 4.492056530409588
Hf 10.47895816492348 9.421695303254031 5.181266945521015
Hf 4.961513560593081 7.4284020568291025 10.921371677306173
Hf 7.5152746435789854 11.676916267305444 8.070848115949152
Hf 8.338124018160597 8.334253257727953 7.055688579494867
Hf 8.777814569330149 11.677413499572758 5.497130986358468
Hf 4.425169962491075 4.794265622208668 9.549166725958923
Hf 4.983852605567403 2.1338438001178184 7.305328770139639
Hf 5.95694204839151 12.643243379839 6.018633084655995
Hf 5.190073946039363 4.923206024097667 6.620423189474551
Hf 4.717829398343222 10.638548336218758 7.793182993184764
Hf 6.142149773321689 2.7241714750521404 4.6534105610714835
Hf 6.451276799883249 9.876735142763119 5.645217186586626
Hf 8.366989818775782 9.295792509726645 3.3237457303549918
Hf 5.330263845255898 7.707722850762203 7.965073672795127
Hf 8.2749991076567 4.367740987595522 4.235306647000661
Hf 2.5526859770162256 3.88253153224862 7.446405983395994
Hf 2.7792956550957673 6.619100494491037 7.958226760394514
Hf 6.541332177729455 11.594395190432383 3.3865534835205
Hf 6.721546316622261 6.931163658117792 4.958557803986628
Hf 3.5248237659586406 3.108950178319678 4.943690074885395
Hf 7.607395228380962 6.634450384968579 2.3698262718374172
Hf 4.036943503728963 11.00087916171087 4.747013362167682
Hf 2.5892181801102216 5.696413323568824 5.220271528720447
Hf 5.01243172683683 5.229171148984903 3.4633991283628145
Hf 3.9862750066391226 8.217339120359975 5.5818453152517105
Hf 5.436584150596836 8.832493193481891 3.022196274659754
