40
Energy = -346.04176226 eV
Hf 10.460958710037799 3.419059489350515 8.928681569645768
Hf 8.189579907070582 1.9477918333561208 8.864316347793352
Hf 8.313587307463305 4.129099981481225 10.889239816901236
Hf 11.631849438456598 4.795664238943381 6.715867145526976
Hf 9.295875370221033 2.7212399342791 6.26622996603925
Hf 10.750588596435335 6.188548672049655 9.353432560429424
Hf 9.498541999574005 4.680331482342437 3.8969177869549005
Hf 5.751005207103674 3.1197908868969066 9.50976083128025
Hf 7.913336980370425 4.836790014500438 8.377427575472344
Hf 11.300693410328014 6.834237889248089 4.485996446825279
Hf 6.249062140504487 2.1843209835537722 6.672775701529774
Hf 11.98399593239029 7.623152907968664 7.143647636266475
Hf 7.838535863072141 7.364561044608305 10.16929332124676
Hf 5.697631734092696 5.686481478666477 10.642450846452007
Hf 7.461873954160076 2.610383798385463 4.0010695830960135
Hf 9.444124615284405 6.525100651964007 6.595830343660832
Hf 9.671831466786253 8.89398155620257 8.503008806646621
Hf 7.038507041071792 4.860640283098892 5.678405655586935
Hf 8.328731141493256 7.438544702998824 3.916817596873392
Hf 4.384443542389917 4.388532943039655 7.294874644210435
Hf 6.7846163539949265 5.161537330037044 2.8445465719848166
Hf 5.195325150554743 6.7978794249523515 4.926184969180481
Hf 7.478193280846021 8.743307859448127 6.449196582810734
Hf 10.071035212321041 9.313700620294762 5.550347852199902
Hf 4.789622036195581 3.701699832619732 4.427139276023144
Hf 5.671385590286571 6.895580878023253 8.039388780511432
Hf 3.11823209629314 6.229893423551099 9.317380598974715
Hf 8.667897010968465 11.31241538562468 7.196418983413033
Hf 2.874403205993679 6.637461843753562 6.512005422098397
Hf 4.7510387551600655 8.518642460784672 10.192570179310536
Hf 6.977019199215584 10.296138791762017 9.213865868683502
Hf 5.6577710830130234 9.08760716660711 3.61106892388581
Hf 4.920544948370781 9.556249834326385 6.762070200169709
Hf 2.8226371739129346 9.152407682894664 4.962719569958787
Hf 7.444523045013826 11.102980078309264 4.653925336016207
Hf 2.4102430126203442 9.003684352988017 8.150550668319175
Hf 4.170368235924188 11.09592038429159 9.181236494641688
Hf 5.854960065757745 12.258848033305968 7.042149967473251
Hf 4.555228750435277 11.466506360432426 4.49136479437371
Hf 2.909094539855714 11.529224459647915 6.714382146785144
