42
Energy = -364.37922362 eV
Hf 11.610198126881345 6.326058089224871 6.5023418878416965
Hf 10.253003057959791 5.95573545226568 3.671233022093738
Hf 10.294988279713404 3.9429078938452045 5.655892536908771
Hf 10.364734813311237 9.256256532481636 7.529750462104546
Hf 10.25792831627799 4.150586579690974 8.436049941723022
Hf 10.99225932965644 8.526335263106036 4.796678294974529
Hf 9.717356063831268 7.065670371809974 9.268596243155237
Hf 9.022760437064557 4.831209474498906 10.945252154933476
Hf 8.136065749369473 3.520601722018178 3.8859321222308436
Hf 8.99148614541515 6.682042130824109 6.157372287010562
Hf 7.509906637436896 6.0042755146091915 2.259233173644636
Hf 8.99998025115781 10.42136233920524 5.232052957066342
Hf 7.459291867688894 8.569440732642162 7.615250650871965
Hf 7.996644566374902 2.625668464573952 9.762569964637587
Hf 8.287903919634383 9.648804606674723 10.136568392042419
Hf 9.127428145761924 8.652353108787208 2.570470059574554
Hf 7.4248280588535795 7.078029578333093 11.285180191354849
Hf 8.114228720446663 2.5542470920348417 6.847404608948317
Hf 7.470110388131011 5.204326611831678 8.475130205198234
Hf 8.165740192841277 11.336558796516112 7.813401167666012
Hf 6.979614617144329 8.22648985406799 4.394738454591073
Hf 7.003108705157435 10.809921231562983 3.191751586436606
Hf 6.34220271145874 8.563749623538005 1.6414554399673178
Hf 5.579734703604731 10.616396012351354 8.975999027599837
Hf 6.398652102797968 5.2350170407239665 5.501264541499445
Hf 5.682049068026535 2.6259227587722997 8.385332938261184
Hf 5.7269290244163455 4.625967126918146 10.65304738939202
Hf 5.473625478020501 4.048281358950602 3.036297256640975
Hf 5.9138671296668575 10.62972790551502 5.967631393409242
Hf 4.575721309145848 6.983898812974729 12.029551043711463
Hf 5.123806810197369 7.380914257600497 9.240349536775927
Hf 4.653778209306885 6.697896249882887 2.8894432876892138
Hf 5.68788507120429 9.411994327230909 11.475442867751697
Hf 4.457363241727984 9.519965959246598 3.7135062879763883
Hf 5.3598979327948655 2.650499907217748 5.53388104509039
Hf 4.799228451853445 7.59921833640712 6.135098032361842
Hf 4.185946460830815 4.880226028688975 7.705383392373223
Hf 3.374999497936492 9.728559774585127 7.363590332040744
Hf 3.53655751455302 5.01778821660988 4.988998833302999
Hf 2.8003017266288714 5.884730397383528 10.221452149669393
Hf 3.030723686927038 8.91570207324317 10.244510385170937
Hf 2.3931534848783276 7.169530195115018 7.810927467948892
