42
Energy = -364.19235993 eV
Hf 6.419623277073194 10.583598968649781 2.7921986275360475
Hf 10.18100851019419 3.113684484740949 8.627797684028451
Hf 6.8056602607918455 5.600137910003885 7.901351481430618
Hf 12.225922858401134 4.876407480202989 7.465718194147938
Hf 8.29658535192051 6.835801330034496 5.359103300249934
Hf 2.4692158106715176 8.713001454088957 4.828592613963869
Hf 3.096432515355612 7.325713989254539 2.340387857198707
Hf 9.609737756119545 8.982002215171114 6.973152130730489
Hf 7.488419603699721 10.436134221730642 8.684679149639548
Hf 2.3083418070906303 4.404366504543276 7.116411847356655
Hf 10.40958790469347 7.692900002182643 11.423486081029287
Hf 4.777445413993412 10.59203961153614 5.335789178388473
Hf 8.365299733144688 8.570169367412433 2.9059016930348904
Hf 6.348066739593873 8.375566306385677 7.124359284194117
Hf 6.037701033815761 5.542484824234024 10.805258116495661
Hf 4.739494380120904 5.172253858302117 2.831413585364628
Hf 3.8390147893115203 9.914345195863262 2.6249039408177826
Hf 8.286398825118441 7.7923370000621714 9.55493401456032
Hf 5.663875576335115 8.036874236195658 4.055264594152281
Hf 8.945156150163044 5.0188705385009165 11.152982679471801
Hf 3.563099267645765 8.971244635079444 7.592967537252393
Hf 7.344688764377675 3.2142240595554483 9.65416946417615
Hf 9.983580097324168 4.179918393821218 5.699335876454814
Hf 10.232942489610725 10.017590355379776 9.556908400646805
Hf 7.768308709657478 2.8168303835679747 7.005994709580867
Hf 11.607832457115496 5.2515901919415295 10.182169111649527
Hf 3.8667375430341244 3.4250790693314315 4.949946018926544
Hf 4.968315132122301 3.6657868125654045 7.717885514563364
Hf 4.2541802987923045 6.217107981330154 5.969771025033556
Hf 11.18283568082903 6.849638281747442 5.712988006278037
Hf 3.901209058801449 6.398829446971592 8.854409238536535
Hf 7.647767993754107 10.25177897412827 5.254543866408264
Hf 5.6557459784444 8.517973329036293 10.346033334385364
Hf 1.630478212440498 7.046006784170825 7.013924940454945
Hf 9.684809940411494 5.842121538418734 8.04861886463286
Hf 8.196948343040255 9.842534866158063 11.462687813402894
Hf 6.629633192205014 4.479959272729078 4.966313862756085
Hf 7.580656972911133 7.275896711095887 12.346452458723327
Hf 7.520545994456738 5.973784492013939 2.643167023541253
Hf 11.866459255311879 7.7023482966094665 8.554171431255936
Hf 1.9393332026349375 5.629735889920315 4.4298272337755495
Hf 5.798485472066726 8.032986752537557 1.2828267926803743
