47
Energy = -407.51938963 eV
Hf 2.824800146766613 8.598832519045956 6.165549026466086
Hf 6.763957346256062 12.224054322732623 7.7946244562333975
Hf 3.225010239847155 9.076947358550697 9.048501601610903
Hf 7.8213072742840675 9.257778745089212 11.115290759093359
Hf 4.0820518039408284 10.657117933826795 4.2513603946432825
Hf 4.355478413405206 10.883963746177939 7.194543373717716
Hf 5.616132782152853 10.513641502957014 9.831644944408842
Hf 6.625869130221174 11.939886167346193 4.774497310730995
Hf 5.223850011869512 12.534197770043708 2.337395188164335
Hf 9.063796165104609 11.207540387785345 9.30898460895236
Hf 2.6823447490254395 5.703132593865471 5.399586157163558
Hf 8.409045144072216 6.517455936055823 11.71196421440004
Hf 9.026399103112736 11.514713629524882 6.4237337756517405
Hf 2.621615265267903 6.424728140405293 8.233989851662397
Hf 6.1257609326457585 4.711078251566602 11.725439373820011
Hf 7.64613489934071 9.343416172134965 8.022957970095813
Hf 4.2884451882921 7.663891010855434 3.716743695549104
Hf 10.315005060227225 8.43060326913151 10.055908574620751
Hf 5.520389032444647 7.497363779654046 10.52069976884643
Hf 3.73441751110512 4.778042296618993 10.362412288881936
Hf 5.188470323370198 7.58442820607638 7.546840568835978
Hf 6.364459372878871 9.163821701985878 5.380052845760289
Hf 6.283039612636372 9.96451325779167 2.6477074354143326
Hf 3.854935307385421 3.155397236927162 4.739984055787802
Hf 6.075714321227175 5.066137997803373 8.86134359648426
Hf 8.458952997557237 6.579719610474881 8.908860690803873
Hf 5.238133349061031 4.912837026295467 2.692503873803301
Hf 3.6012229683475647 3.8412891973612013 7.521938062472067
Hf 7.133649271673374 7.18292127815688 3.3659909609823746
Hf 10.63878964735278 9.390533893072703 7.200091162488478
Hf 9.199004415392697 9.46851155723043 4.268555309643314
Hf 8.82724153525985 7.008422769562726 5.73013977808017
Hf 5.642984449211583 5.445948174556093 5.409764003693768
Hf 7.992289205780331 4.372350371815909 6.789699355323859
Hf 5.676659625093304 2.529264355541998 9.784767141736937
Hf 11.254140966910862 6.508293776172949 7.664530822230859
Hf 10.731408469477508 5.555651253515485 10.366347575143458
Hf 8.500474707346367 3.7213934758848586 10.450925532686274
Hf 5.910586885184001 2.0340357654860215 6.688018404066991
Hf 6.404190528576084 2.6491713908416346 4.022361217450908
Hf 10.464426226250577 3.6761992094291482 8.135473058638482
Hf 8.32036569340933 4.549038296529591 3.6168693037286137
Hf 10.023908734370604 6.8350824809088415 3.0364748833881934
Hf 11.56193813248723 7.737670771966171 5.072137340877759
Hf 10.780011782967566 4.832957302801591 5.208406049945469
Hf 8.83586905475547 2.1876023246632395 5.5279650999613485
Hf 8.213052872442283 1.8447768816058652 8.338985221804828
