43
Energy = -373.00195455 eV
Hf 10.405162319782246 7.902038674761468 5.482511818999587
Hf 10.374616477442972 10.135640201369922 7.7485239232782535
Hf 10.880449537793764 5.579747036371797 3.7917002521382392
Hf 11.912059370374102 4.845502380547302 6.462508720257213
Hf 8.683645011308826 10.055958447704636 5.163465757876883
Hf 12.090763111369181 7.51344979877031 7.660427943914319
Hf 8.570829280168597 7.336269476117835 3.278878686918469
Hf 10.763588604585646 8.160931391210744 9.928292068549876
Hf 7.022637543565346 10.853277636256333 7.624145090024219
Hf 8.476163971593229 8.242358190838514 7.854736239670602
Hf 8.723355049239727 4.347166236903138 2.589604265188994
Hf 10.028809479757795 2.9583792863262284 4.918168129918011
Hf 8.279142185091326 5.150076324090445 5.252641056530181
Hf 8.431130716373708 9.784302733567518 10.127641581242246
Hf 5.944888544724563 10.655072021842683 4.920337888214355
Hf 10.400361286518692 2.962137368615808 7.888376724722014
Hf 6.81468141493767 7.7394170674797005 5.569955449164379
Hf 11.443946509190885 5.249986225576241 9.522984095627638
Hf 9.586470958543993 5.763318175345527 7.779174150439795
Hf 5.667918237548997 8.562934223283877 3.037962172440252
Hf 5.99326371846102 5.579209786519786 3.2821355464529285
Hf 8.53248187540159 6.669703528167638 10.66062894606022
Hf 4.245150981622629 11.621797059579507 6.8114335181815
Hf 6.733077330463157 5.559642749778273 7.9798501277209155
Hf 7.0732312926395675 2.7480555708418306 4.19893813927548
Hf 3.3744871231299296 7.050900852122689 2.7285442757524656
Hf 4.650251583881719 8.818267756757834 7.422831182018544
Hf 6.01505945654603 8.110923419578938 9.850947847845445
Hf 8.362439558069466 3.686319305141804 9.851471535629603
Hf 4.134900166572581 6.5351840687100005 5.50117154295226
Hf 3.2571287972956724 9.367115280106916 4.817883067663465
Hf 4.523603688392195 10.733334440079027 9.49736185312676
Hf 7.674603749081456 2.577437678093421 7.098281326111556
Hf 5.141849509361863 3.840898174846439 6.080855728175314
Hf 1.4110526693770153 6.7441029892958 4.674501609921364
Hf 6.02306534326343 5.281546104192865 10.77192901901629
Hf 3.957652904628531 5.721444359311173 8.682890502585131
Hf 2.1144658465364676 10.146193526987593 7.795621754520818
Hf 3.1625408278600466 4.47390770892074 3.834190100075655
Hf 5.527131212672614 3.1605657799094953 8.97173063962547
Hf 3.052675930914924 8.331904641788896 9.848476867985855
Hf 1.7441098247595967 7.261006146011316 7.554846802987678
Hf 2.2145509721476846 4.623731627836452 6.4991955933832255
