49
Energy = -424.57567802 eV
Hf 9.337517330088236 1.6268513124296655 11.320803653373504
Hf 9.36566701776886 2.316759733051174 8.356178759296721
Hf 10.253742054642956 4.145274415703925 10.644867856886561
Hf 10.840070856093169 4.91521620597965 7.997973765220889
Hf 6.506150749049377 2.824788040561942 7.379933492179807
Hf 11.413458364399602 7.0015741429859855 9.913750606539862
Hf 7.0209363740407165 1.9003285615663614 10.031257116266723
Hf 11.179827221370726 5.749947169846955 4.949325074976976
Hf 12.029714829877193 7.385758026092013 7.197170696428678
Hf 8.425350365943059 4.917759196698924 6.186314499506839
Hf 7.518413214400201 3.9358752687674783 11.983334442165784
Hf 12.19373375714507 8.586203642564833 4.743341027237713
Hf 7.830754147667981 4.7370806093915805 9.162866904165343
Hf 10.250551066663292 10.34675856346318 3.711164744505554
Hf 8.790709067292745 6.941180460407655 10.961454720512178
Hf 7.178969424827137 3.193364488568624 4.405515070799276
Hf 4.526331827328485 3.391572095537195 5.300567338918874
Hf 9.924196485801525 9.448490362665725 9.815662790231853
Hf 9.15539283484507 7.345554242715525 7.932215055054154
Hf 8.505804872826783 5.685434857833226 3.070681787872987
Hf 5.160876406860667 4.088064937191124 10.092444517703948
Hf 9.242661496685535 7.990840681770633 4.840250945643441
Hf 10.978946649152803 7.424593884539574 2.5686935262559425
Hf 10.48467246663482 10.018141550925613 6.839586999078442
Hf 5.904657349196016 6.5195899072940335 11.545622904468665
Hf 8.713211766379263 8.742172257992399 1.9388210566729038
Hf 5.417272614652743 5.544650836065882 7.235738975327584
Hf 5.371730953803755 5.065525756892058 3.1198149915731843
Hf 6.190644704220843 7.7553805626734045 9.01962037277995
Hf 3.1125953912352173 4.160174448271754 7.717848124399116
Hf 8.585784424273156 11.785081703501987 5.584449869969278
Hf 6.428849777485967 7.070393735635713 4.848648662823337
Hf 7.2514050504756735 9.592908862765997 10.89750234567984
Hf 7.355783666011869 9.416514330833216 6.67090457036613
Hf 8.10510145845988 11.42300739633463 8.46674034684145
Hf 3.4698261222520266 6.440805391293971 9.841771256864442
Hf 6.357221148528087 7.463140755305647 1.9524729431416332
Hf 3.0198694256022742 5.83448831355817 5.165124443254633
Hf 4.439075467660067 8.932587305710442 11.04442219584304
Hf 6.7788030973746345 9.933797086324194 3.83009203238193
Hf 4.392078918477082 8.53748259175537 6.710579215404497
Hf 5.131548826505347 10.798858381919132 9.040666447789905
Hf 4.023051582585409 7.960725476773483 3.439606127474281
Hf 1.8768759382627909 6.718225625448451 7.525255631141947
Hf 3.98567696345421 10.550457169799168 4.480599564392092
Hf 5.826065709648717 11.855649263633236 6.314522615417294
Hf 2.5135862113671115 9.15300071769907 8.879653083767316
Hf 1.8849684112711622 8.871429289116989 5.607078440731996
Hf 3.086334598010587 11.193091596921608 6.993144161394848
