47
Energy = -407.28625552 eV
Hf 11.512090983441647 5.6986789706840435 6.822332131485966
Hf 10.607322153006692 8.309217165507198 6.223811916398021
Hf 10.73557687457503 6.0363303557180625 4.122944880791994
Hf 9.816627912152246 10.237636887960864 8.562941833456005
Hf 8.923618144440672 8.704746756336773 10.94358861430428
Hf 9.816718337992942 7.0758264095484 8.738429706300668
Hf 10.23012362309393 3.3942942567035663 5.786495823347802
Hf 10.259535545761581 4.061345080344827 8.738768626432597
Hf 8.095035281924439 5.964909134478049 10.93249630520381
Hf 9.77476170648976 11.008862447234632 5.6766511105990896
Hf 8.616513315815075 6.102194310267901 5.996930752435414
Hf 8.613692400425677 8.452160379200238 4.072111745915842
Hf 8.15671252538924 2.9523910928335284 10.530850989114994
Hf 7.804226738702992 12.174110599113884 7.3632374322827445
Hf 7.129612982042486 10.706985091137073 9.989166340329442
Hf 8.736908758653414 1.7744544879476543 7.998879966221606
Hf 8.389345753452703 4.113401687566132 3.502690468471997
Hf 8.757201803206494 1.3285566483285034 4.342775445669437
Hf 7.846715965310228 9.24716694203507 6.744336479635294
Hf 6.33318006573826 8.291819077435981 11.827160609489834
Hf 6.774095720449886 7.812289006982502 9.014608615915083
Hf 7.2331677249636215 2.9386260692057027 6.0083407433573255
Hf 7.007669785667014 11.269172280877845 4.639198199015468
Hf 5.918408470531559 2.072763327240489 8.977141269044617
Hf 7.35318609926559 4.6577247931594945 8.414464096612638
Hf 5.887091390730411 2.3017776799696126 3.7060752398164323
Hf 7.157221742316909 6.752919766067095 2.211914424207441
Hf 4.859000696663571 12.164733267229899 2.9898520611065056
Hf 5.967794296020858 5.223429300904312 4.534188237357022
Hf 5.7274235433553145 4.408635216623809 1.8417073114845088
Hf 5.030062078733103 12.948296958390243 5.6591712916942845
Hf 4.483147887805438 9.484983870467753 10.153831158990517
Hf 5.766075958147026 7.996993274289548 5.123676105704206
Hf 5.704035510842643 4.208853359636125 10.887321047886127
Hf 5.31995045006688 10.83800342641188 7.652841223749928
Hf 4.730987556877785 5.4470533159336965 7.239583686417848
Hf 4.317183472393673 2.461066049425137 6.327391875249391
Hf 4.350106804116009 6.58283494325381 10.03440658604841
Hf 3.418608334434943 4.091920942231363 3.850501461564162
Hf 5.857133345817942 9.42284773881192 2.650342666589915
Hf 4.303348726733052 6.766290382874409 2.5959545122553838
Hf 3.385754346702897 3.6738545593828675 9.00988672406255
Hf 4.136968546577192 10.28441351117311 4.91801275975139
Hf 4.003945174901492 8.279672727297065 7.566259223520526
Hf 2.1440961223369968 4.15395733666153 6.417408980995638
Hf 2.907527183097034 6.766025967033479 5.269646102131593
Hf 2.065410970967818 6.260931562833736 8.155002164386177
