41
Energy = -354.3923653 eV
Hf 3.647888230470602 3.5848304645372373 7.070764320930944
Hf 5.770445223291751 3.01571312709963 8.88975813283367
Hf 6.227832188069973 2.857533063192562 5.773556798570117
Hf 3.16791437415731 6.54063759703355 6.778710405383586
Hf 4.327726947965371 4.654676697113756 4.6690351303666064
Hf 8.943420739851941 3.4380151146277904 10.49204895198433
Hf 3.909755657069848 5.193268512141105 9.361654477107326
Hf 8.303982747339514 3.2159032365773212 7.713501057615593
Hf 9.118892499327199 3.3864604959955256 5.04946223397389
Hf 6.64741251875326 5.419031609215076 10.297819126957663
Hf 6.977617043216117 4.569654495633242 3.272975731036784
Hf 5.4562517130212465 7.109765385561259 4.150692240255891
Hf 2.7075715364266 7.972705554033859 4.200650298759682
Hf 5.889415016232322 5.496922483747294 7.2923365127624145
Hf 0.7922621182529735 8.308470701472762 6.130386920710409
Hf 9.045447283179255 5.9432628340454485 11.834610657380784
Hf 9.372748546011472 5.867416117237215 8.860035034299639
Hf 2.5576379768909203 9.137759847702458 8.087196866014201
Hf 11.08316766984553 3.5107507655682886 8.402280024456905
Hf 8.08450868410622 6.211756095566107 5.411096929186385
Hf 11.427240496008675 4.934754544926016 10.889343389800958
Hf 4.999807562511833 9.13479115300574 6.221376574575962
Hf 5.074664310906208 7.898017185335292 8.98469786205452
Hf 2.578770102709893 10.611959503347673 5.479910610232971
Hf 9.83293202887068 5.4284038851041565 3.3363530901977336
Hf 12.339833031766153 6.089770838093473 8.554235740126744
Hf 10.875393782448205 5.526890762244261 6.108687677874277
Hf 7.900945727528607 7.351655023316759 2.6803512791239594
Hf 7.741687022266318 8.494716445330237 7.460467207851272
Hf 7.881882690872052 8.186804884124223 10.462226508958919
Hf 4.536699902801506 9.823619656972125 3.354870774848083
Hf 4.3211049475048915 11.413572861483676 7.798852123329594
Hf 10.84192404259439 7.818681309054407 10.431981484223884
Hf 10.815269828171354 8.261311739413337 7.421138089123707
Hf 10.105860422071949 8.163496105015058 4.410209309660978
Hf 7.383356847189087 9.613874854328406 4.486598189561927
Hf 6.488840616241969 10.441755403930241 9.52820738751345
Hf 5.246124860162665 11.883914352030091 5.08683287011126
Hf 9.348272726035553 10.332009583197292 8.978107869093392
Hf 9.644580598271878 10.473915237262947 6.107826847893692
Hf 7.197181550366411 11.526747650973356 7.083857444969967
