48
Energy = -418.40856357 eV
Hf 10.692172436948276 5.875241060984723 4.0294709007662695
Hf 11.638123716599141 5.11171288716615 6.752278616503384
Hf 8.584432837274857 4.194996551875679 2.9897121627391967
Hf 9.884446183593687 3.1124294244347768 5.261099141704682
Hf 11.747979352293568 8.107116153769034 5.8530298783654064
Hf 10.485764635051012 10.874679874731381 5.874946164764534
Hf 10.687232022332992 5.15832523176863 9.687563477680568
Hf 10.062546975024091 8.920845522185063 3.447667613712314
Hf 11.53819515353902 9.759815926813673 8.279814956918056
Hf 6.83606656757377 3.1497252914157317 5.014804268480303
Hf 8.521690659432416 2.9687712419823304 9.980535674608523
Hf 8.747816389300686 4.673395377274487 7.460785998958208
Hf 10.648029560635024 2.7098708342617694 8.054827324611944
Hf 5.413059641099536 7.829946044892657 4.687425032292791
Hf 5.975084045246131 5.3162227618224 2.995502985973224
Hf 10.19571327610797 8.330845819706084 10.41810478846887
Hf 7.900214013270177 6.18531457189953 5.055592431510562
Hf 7.861529990036095 12.115857489889171 6.393134897587071
Hf 8.0595807760357 9.279709718592924 5.620884485163697
Hf 7.797020380616734 1.8310297149464865 7.398323270024394
Hf 8.459641660185765 6.837483572237153 2.2738090218553273
Hf 12.295466766119043 7.197871183438114 8.577417418964018
Hf 9.46503292712705 7.636185653847621 7.821431819777596
Hf 8.55626016289444 11.448796968907061 3.775905553669989
Hf 8.923691078560806 10.638952670112134 8.621002997584712
Hf 5.879836516804503 1.7474119417296372 9.657333940935551
Hf 7.9530498040931406 6.165380770535053 10.093043754831582
Hf 5.015318458322423 5.2449026554968805 5.71470591441588
Hf 4.446653408911437 2.3828291132565167 7.136896084596712
Hf 6.063782495024979 4.245024039217921 8.291723538040515
Hf 5.750745461831051 10.856479985817819 4.803450480353526
Hf 6.091221116842446 4.122753639333695 11.251714965046098
Hf 7.09974787226403 9.283989563064118 2.7681270576137806
Hf 2.91244503408926 5.049846890102447 7.61675617357988
Hf 7.178773601682503 8.824377370626394 10.068136178027126
Hf 6.444155252227306 7.2780696807087155 7.596228980519656
Hf 3.7152513363913267 3.5946293714534687 9.857573547633415
Hf 3.231272171322456 9.47103623212226 4.055719234696997
Hf 2.445193998590343 6.617745876054533 4.722380872790594
Hf 3.413503121925082 8.005148389583796 7.058351671641955
Hf 4.8606600821622346 6.515792911357533 9.908477449685906
Hf 6.036809911606092 10.296426329368677 7.754740872585973
Hf 3.184060493210984 10.904631589446806 6.747563028911564
Hf 2.1334265919110944 7.097465220684964 9.65934173274756
Hf 0.703589125105388 6.880096127688918 7.229238507498634
Hf 3.9303899872326724 9.458032883995255 9.569757454895033
Hf 1.0821684888244218 9.120581468502639 5.624171752268706
Hf 1.2684270527234318 9.487773904576784 8.40790211419488
