47
Energy = -409.17559547 eV
Hf 7.543133857571608 9.505602122841143 11.971618218734623
Hf 4.9225243536837375 8.56362163904282 11.570323797355933
Hf 7.181656323906947 6.613658519873471 12.123884122443291
Hf 4.369829569841932 8.562307085100736 8.476463618574007
Hf 5.814460710110097 10.985396497849 10.180448952837386
Hf 2.1739988731012705 6.699942362266312 9.103669549236827
Hf 4.652470988935448 11.626898509918874 7.406055053451371
Hf 8.831117214309417 10.967887338350993 9.927756043551058
Hf 4.518848098146786 6.0595337511844765 10.578556282709137
Hf 9.883975302400493 8.322098851947105 10.767467029454991
Hf 5.044648581304243 9.833897140135152 5.095757524431732
Hf 7.16272268327292 12.672831213291431 8.284092004847308
Hf 6.929733222730528 7.721199579264544 9.650553120422236
Hf 4.394871120836426 5.531017872495013 7.668102294974616
Hf 2.793462990230916 7.64680459472262 6.176801301038227
Hf 6.872389104606481 9.915275619259775 7.458225523040689
Hf 9.20209098293639 5.740117555000445 9.801840044402066
Hf 1.572281838147938 5.02404456943562 6.980954562516305
Hf 2.942684286866336 3.7792854214859304 9.256610342698364
Hf 6.882769306107121 12.013329095195099 5.558704051533889
Hf 11.352062459409725 10.113263907880917 8.906957952151767
Hf 6.564998832899805 4.434272167502253 9.747364509446758
Hf 9.51528797881165 11.411232794599634 7.00682839819712
Hf 7.871402070564601 5.869610713848817 7.359678209169048
Hf 3.1391595865978537 2.876845993819925 6.501567649104075
Hf 9.49048878949429 8.263809636238822 7.703176143539512
Hf 5.8019437733860775 7.358131353695313 5.695760932226557
Hf 12.063590171833077 7.4249353713613235 8.204684554908956
Hf 5.543587695680514 2.231719747173337 7.650632477682668
Hf 11.561949067176178 9.470222189915049 6.123440902958499
Hf 8.488005939686134 9.210839325337309 5.067202424446809
Hf 8.434557422516523 2.9869533831026187 7.954829079409036
Hf 3.2425267644259104 5.076353722007933 4.6086710479188415
Hf 6.452512210421994 4.225244090238157 5.735967970127249
Hf 10.724048278259204 4.931592705914272 7.546952373620098
Hf 4.002504393159033 7.56747038438628 3.4282406323562675
Hf 8.271895249872662 6.205338014541407 4.346348328665926
Hf 6.770354932346166 8.229699990142834 2.806838069827477
Hf 4.9604362323152875 2.5429543539023682 4.250937826259668
Hf 5.630705366497268 5.301115236041041 2.7443400926503716
Hf 10.996805353365723 6.796268590618464 5.402933710984989
Hf 7.5005356919954895 1.6112449115777756 5.491955864639794
Hf 9.667567807296392 3.541330925938695 5.362924210083666
Hf 9.8507417302721 7.930800354820892 2.8117495738381826
Hf 7.831788911498183 3.4639415255003203 3.139832304515012
Hf 10.434617712935873 5.081126638828556 2.8813079568615443
Hf 8.159214732188016 5.981236172312872 1.4620860336604227
