42
Energy = -364.73745565 eV
Hf 3.09795072633547 3.5491586280460914 8.327221802794432
Hf 3.0760447852887975 6.218402279899759 9.463023519877233
Hf 4.637842530164371 3.9951422829957313 10.618851063058887
Hf 2.6914614761731293 5.866036204700266 6.518390619434863
Hf 4.449841840142276 3.397658866621322 5.791137796779063
Hf 5.630752479950472 2.165944629066264 8.386962694828187
Hf 2.419248334662314 8.544588983227372 7.808181629649843
Hf 4.478044234192038 9.390132561104494 9.779619902582214
Hf 5.740160334242445 4.857761306443494 8.129862355426745
Hf 4.595738941020544 6.08993510482167 4.298354873638737
Hf 5.800515448263371 6.80887941344369 10.555983221603332
Hf 7.175612247673684 2.376817939540581 5.7426896865461385
Hf 7.5756373712719025 4.442408697556057 10.574676584133934
Hf 6.012311533813916 3.9058014561683385 3.329157133762542
Hf 6.3072892109606515 8.372887178375349 5.0803136955349135
Hf 7.431205092099784 5.288929825869296 5.554854967665094
Hf 4.95803592873468 7.48686590127846 7.3789193543404545
Hf 4.511282848284976 10.518016284709189 7.132375273632396
Hf 8.691853734047175 3.2743281148095447 8.298598492737364
Hf 3.2209215629561188 8.709835886131913 5.036472329571569
Hf 7.2473851009685255 8.894621943021294 8.568997616846842
Hf 6.778769262591976 9.461159967709591 11.416584555544736
Hf 8.737994660009383 7.276813044584868 11.244457719116788
Hf 10.40419717204367 5.184361891428376 9.972848914948777
Hf 9.854044546137233 3.4563242821487576 5.821763257936691
Hf 8.62248562271655 3.743988127053924 3.366014891145798
Hf 4.981996583276468 8.47964397470461 2.6347461375603567
Hf 5.078616417859853 10.8513455870517 4.318095201721828
Hf 7.357122550854021 11.162451760026727 6.074672217556638
Hf 8.364900199099605 6.263299869947484 8.368274883244062
Hf 8.997860639366094 8.116080747429592 5.996131832430589
Hf 7.457921375650343 6.642807133022386 2.9700071063426425
Hf 6.983223361241221 11.457294204683821 9.169578888824729
Hf 11.058522382680394 5.609497971411903 7.2217046080096345
Hf 9.297957284166934 9.97779233536441 10.465937133255963
Hf 7.560373824999634 9.906243396108803 3.0671637105947047
Hf 10.764636495661593 7.991313297585388 8.982556432510572
Hf 10.4512375329538 5.835836323144202 4.396958937398058
Hf 9.871027373432705 10.656058800531445 4.775895409672513
Hf 11.574005055328822 8.416711722578883 5.861252759462562
Hf 9.75762363610437 10.550350302877773 7.706427066172114
Hf 9.956916251421701 8.327870112465018 3.2404229403706664
