50
Energy = -435.41994518 eV
Hf 12.157689704489838 4.048719539353197 4.609008523419212
Hf 10.621658296348018 6.414427268529183 3.7835443641726743
Hf 9.54757732112699 3.6746320133553656 3.584025351633963
Hf 12.613846533940096 6.341347461406957 5.977951609841586
Hf 10.566205689018359 2.118585817636947 5.784766295586858
Hf 8.392044320347868 8.83487875928105 3.9831630151692368
Hf 6.148695213063542 3.3159249103532393 3.069181607341772
Hf 7.585904572731917 5.758442774459659 3.8837951814081464
Hf 10.65803374572689 8.423479970780843 5.942471010813496
Hf 9.902610235758907 4.9488999628163475 6.323273464867489
Hf 12.140615482671576 3.9010588691337933 7.637423789072589
Hf 7.656396096027242 2.725144992578581 5.694254412101152
Hf 7.598012939898204 11.442941189039075 3.227288434911906
Hf 4.7998474691872355 5.936424149007616 2.9672435099912606
Hf 9.398250167299869 11.328458648196765 5.5425320253594395
Hf 9.277598187173156 2.6211356235127647 8.276952034169728
Hf 3.3026151836492645 3.5823256910956913 3.5763345880801083
Hf 5.457504465294947 9.539292077011106 3.184024908134267
Hf 11.296281256530442 6.8722917415894536 8.35503625839978
Hf 7.956742807217514 7.305294637258072 6.392537624164651
Hf 4.902328374615371 1.7333174126541946 5.110726112037214
Hf 4.986955201076385 12.287103366580007 4.023486330535869
Hf 7.315002031001232 13.344804512792285 5.286623439493051
Hf 5.240910521577049 4.577031355059657 5.535769332387022
Hf 8.813241078889241 9.70646603233771 8.033850572707099
Hf 10.271487297997098 4.774437288885928 9.803233194267996
Hf 3.5652277753487054 10.15486845961741 5.289323862749169
Hf 6.545104305581422 10.512523278234918 5.821352190576876
Hf 8.419848825938919 7.039363665402558 9.262753008106435
Hf 5.194170991787947 7.651835537730045 5.364823884796214
Hf 7.894628064898017 12.409476742477649 7.815107699639877
Hf 7.335335727243518 4.761497103962725 7.907456333483696
Hf 5.029541742524582 12.761903552924494 6.978105366304341
Hf 5.43174631882039 2.617747883951706 7.9909574438008555
Hf 2.650326805542418 6.050510150486785 4.980879777389319
Hf 2.6612169744107 3.1838926014254723 6.32015052309455
Hf 5.957538711959197 8.683121811087435 8.2240426788091
Hf 7.735329624332506 4.2886011805480395 10.801974811769863
Hf 3.4595827523885436 10.64755887554227 8.17772367152702
Hf 4.659715165301198 5.693092819309287 8.293024151227703
Hf 7.306744621960106 9.237991078934998 10.783149020156918
Hf 5.74442211439242 11.410403376985466 9.484881631379531
Hf 8.861443258720026 6.681810406683075 11.90320618948979
Hf 3.0424019251680794 7.996126634897966 7.469662361929603
Hf 5.951954513772861 6.622826574211695 11.133664257025652
Hf 4.887552603593098 3.985988153796481 10.74486689767034
Hf 1.680054223057232 5.532985088709184 7.715021940903913
Hf 2.801291502811011 3.4764527051870004 9.173267050611402
Hf 4.286650283477192 9.015212824336059 10.431055624262559
Hf 2.9104656962989774 6.137746354531705 10.366026790656873
