50
Energy = -435.85908711 eV
Hf 5.365316122572545 9.898517500933796 3.3177122130839716
Hf 4.704039378369729 11.611665057066094 5.395896518474114
Hf 4.097053412274895 6.47095339148789 2.9921037345101293
Hf 7.442156106198028 11.987242386031783 4.415950494186128
Hf 4.032539363354173 8.564832471176308 5.388306244584639
Hf 6.856875865707322 6.857678597557142 1.6337887726253795
Hf 7.897743841250222 9.718827395622375 2.5790191521340367
Hf 3.666075043613778 3.4910041391604665 3.405662545341227
Hf 5.166731816844707 4.557843185884933 1.0825389187644623
Hf 6.735719878111252 7.435108393951364 4.2796836014008255
Hf 3.7766741516622484 5.458152917413479 5.637855267061208
Hf 6.621062048059972 12.263691936618015 7.3648913870805
Hf 4.525073709805142 10.395702977238786 8.025273859133545
Hf 6.970933463296553 9.670631231946789 6.018005620241112
Hf 3.0382298767731832 7.940845680473817 8.276970526788539
Hf 9.579789363374994 7.619087075217877 2.8699198535608472
Hf 6.244111155836321 4.522522998671268 3.815272497406303
Hf 6.01670150691019 2.1239477950348715 2.226520694113518
Hf 9.224434636967548 11.628774573156852 6.702597990776768
Hf 9.314049374778318 5.175349374045062 3.9210776882698353
Hf 9.9098556735479 9.871129469494534 4.629112375108843
Hf 5.7701433284913355 6.888270503386998 7.097563113908587
Hf 3.2880552420462275 9.767136246837358 10.588102323455693
Hf 5.856989149747362 1.9239444510494357 5.068019984853043
Hf 8.009185319618023 4.076191255086827 1.4677138194045194
Hf 4.864504939416956 3.3098894116207207 7.347336404142911
Hf 8.029710043296564 10.074840392351074 8.8974366202995
Hf 7.667155075472637 4.189413622159407 6.343350614834583
Hf 5.760829807707479 11.00851352003534 10.612634464205966
Hf 8.915751712597476 7.051463995433727 6.15158988600894
Hf 3.5861554008130883 5.2822571216081995 9.0726534217085
Hf 3.0647966019875197 7.12949074674866 11.17691124148183
Hf 8.579462914655188 7.002536836894269 9.030494734021174
Hf 11.516202016752175 7.303191228946806 5.280376693126541
Hf 5.640520780257921 8.092795798103916 9.89492880331199
Hf 8.372518695020512 2.46913136947784 3.9199539928081353
Hf 6.575075736809245 4.987653222052761 9.034480878342203
Hf 10.56981731835327 9.13483111524336 7.491676017879074
Hf 10.690124506044558 4.5944087116350145 6.242966241943512
Hf 5.023158749091133 3.027471417372085 10.264444174140971
Hf 7.293242821362536 2.2779225536246197 8.614700809704726
Hf 7.81515816971602 9.638663439999913 11.744935486139266
Hf 11.402553324780444 6.482194144406311 8.339354762741324
Hf 10.202854247143845 8.483362203365122 10.628763795708275
Hf 5.211826341114876 8.610193700846208 12.591812614920954
Hf 5.31072137347949 5.521657421373465 11.789832550988743
Hf 9.66723227354769 4.022026622006431 8.822238641832747
Hf 10.317081711186429 5.6373246653053135 10.983696581563333
Hf 7.910879985011658 6.875759068853062 12.05433000465905
Hf 7.864171855279061 3.877835155373715 11.243283595484526
