51
Energy = -442.27786323 eV
Hf 3.484208233552947 9.960486832859985 9.17810480803232
Hf 6.4816350914562975 9.164048321059434 10.391390063341852
Hf 5.783137605328122 11.397457622217875 8.79965211919727
Hf 4.076636121920869 7.3482064506796885 10.808031209542925
Hf 2.2857728354362585 7.546941890768499 8.58803265163487
Hf 9.50936001525061 8.4477547775198 10.691822516873124
Hf 8.521333802971942 10.833869789058141 9.080675882716815
Hf 6.972338251600246 6.45559637191674 11.358804531989218
Hf 7.263011430444698 12.626593936666302 6.7641945849976715
Hf 4.761916832101071 10.985323015717015 6.188445472566061
Hf 5.15994481269361 8.27303207505651 7.807680753758759
Hf 4.7472763584100495 4.61076116227448 11.461213225624443
Hf 2.7455580310255634 4.928137245753686 9.526802377114663
Hf 2.8631126283256467 8.787152074169597 5.977376268546636
Hf 9.625650169182334 11.536698509611467 5.711644418878654
Hf 8.244116696582275 7.248537040658754 8.635147473180519
Hf 10.447080350237668 9.160035311672118 7.724921545140355
Hf 7.469650055552683 9.695434880677318 6.59201260038066
Hf 9.704276719910796 5.206034290330523 10.520420758413396
Hf 4.772894256705551 2.6312997512471665 9.237104634491327
Hf 5.535182508194605 5.494987803872311 8.828977356948112
Hf 8.800859646859115 13.695690142120437 4.212532468204053
Hf 3.054629046759607 5.84695175628913 6.444100695637001
Hf 7.259176929086037 3.5385788219323473 10.559949489172574
Hf 6.91061191506806 11.725173862985656 4.13144131802625
Hf 9.444872140035885 11.284166179713372 2.884462104730648
Hf 2.8291819281708968 3.09448081840235 7.335060138445805
Hf 3.179337724761521 3.2905260123580855 4.6948445450027965
Hf 9.743746990634076 2.46315583218852 9.686521148483278
Hf 11.26934550261462 6.9134270782119325 9.049224231529143
Hf 5.685232085989682 4.072020990386253 6.121965378863101
Hf 2.715298217404648 7.126639249683373 3.725997467525492
Hf 7.389010238168697 1.539243508743283 8.18461849519425
Hf 8.436484354799049 4.240309820162146 7.679359317791916
Hf 5.392786251778647 7.143651148396705 5.040529353351706
Hf 4.5432633306774495 9.40834952360498 3.3650248862104695
Hf 8.309224013534207 6.871518279897942 5.766939856362067
Hf 11.253077379658421 6.61979897267942 6.129779133902172
Hf 7.7175053146539705 8.964854386046698 3.7291831897493437
Hf 4.890132746705456 1.3588744415848506 6.276226262138631
Hf 10.427301229832626 9.002919108306957 4.768140566885406
Hf 5.562037989862595 2.4069803960410874 3.635297334832367
Hf 4.55188986491885 5.017124532519676 2.8382748955726513
Hf 11.318455130488475 4.227342450904519 8.019305311746384
Hf 10.031904496509783 1.8743341804547353 6.998895691332823
Hf 3.7045499864310067 7.509629151227694 1.2564081181984956
Hf 7.761517557189553 2.086011801480838 5.299473992343393
Hf 7.383292772097735 4.787277522539604 3.7661483472867956
Hf 6.296150151661793 7.164479493764621 2.1658089988001343
Hf 10.064929251530732 4.1496221096119665 5.117719051293862
Hf 9.76307984428999 6.624313669213561 3.395296492641353
