53
Energy = -462.93556795 eV
Hf 10.64889581304121 4.192241666947845 4.956343100563046
Hf 9.326359941160069 6.0104066665251255 3.101767592834833
Hf 7.1357156189049 6.95617461747558 0.987460152487853
Hf 11.403824861579597 4.496548231311778 7.6424056636688515
Hf 11.641421005487345 6.870693671688377 6.100084257638717
Hf 5.881116807805756 5.063512902936533 2.8090353907848082
Hf 9.186036310611296 8.717473035301541 1.8582088304465048
Hf 8.961809999495175 2.8840799999581983 6.986788951998969
Hf 7.8796633251069 3.624726583038261 4.364937241256104
Hf 11.950190947948185 9.634698708602079 7.806375984456729
Hf 7.614029983829053 1.9199607963482137 9.53825613753364
Hf 10.088740699646557 3.1372889651072824 9.713481452228269
Hf 9.886736605766558 8.698327300148865 4.716308385492647
Hf 4.829902364542986 2.795506114024984 4.344372210723278
Hf 8.681721481411424 6.069210138846057 6.050809468863301
Hf 5.719581325796684 2.607758720337504 7.329908256039232
Hf 12.282544318719468 6.9301261168248285 8.884395673876474
Hf 11.034462821659687 5.483550959230563 11.285998012093133
Hf 4.495654352825343 7.692271371534383 2.396906067096764
Hf 6.49128219330409 9.623351549616594 1.4848548352356499
Hf 7.1896388162126454 7.684018211617592 3.720247568393551
Hf 9.383029582146133 6.115788493551242 9.283368636209275
Hf 9.523989705068203 8.624762947146404 7.732955867386865
Hf 5.663288189786091 5.00483163479673 5.786985222372039
Hf 9.332487268636006 11.224221163272698 6.372800712698033
Hf 8.181983657921606 10.901710744796125 3.4936782179634167
Hf 10.777094137999562 8.546905291158787 10.581031219926714
Hf 3.247476274899544 5.147863755669534 3.8610504358109248
Hf 7.14420185625906 4.6305706831447795 8.67668919782182
Hf 9.685104940221576 11.105781207145935 9.635668553194996
Hf 2.9853195881857433 3.747950397305131 6.449054052995991
Hf 5.033064865120022 10.31005023555309 3.831659844250552
Hf 7.127225837617657 9.455725820166002 6.00500494916535
Hf 6.568620105137191 12.204700269615204 5.491355402663426
Hf 4.657867860221414 7.617292354918189 5.462829919411995
Hf 8.144415318485057 4.09085662945353 11.505218059162427
Hf 5.318877229273583 3.3709626710367115 10.359378611947736
Hf 7.774187068919561 8.9530412496981 10.0081997190143
Hf 2.5038762725699217 8.973910633651702 4.826015696520216
Hf 5.87858458183891 7.770191849089149 8.219258905881926
Hf 8.598610021525493 7.061985385379734 12.129813063539455
Hf 8.884358929910226 9.98538618673299 12.392132016557273
Hf 1.849395846437706 6.350804893267566 6.038792900080599
Hf 4.377695683168268 10.630846752083425 6.629747175592033
Hf 7.057037890054513 11.442519133392976 8.236171213804257
Hf 4.771045139747734 10.23123036332924 9.693497444140867
Hf 4.3143517917264935 5.504223157124934 8.41540501697087
Hf 7.013544562589872 11.538027609944077 11.074021380562616
Hf 6.113931888800877 6.153087991875217 10.975991978536062
Hf 2.8572366054998706 8.320590194694356 7.876297752217533
Hf 6.017566087076203 9.009127285336685 12.196881102368671
Hf 3.764551675724387 7.650458983238934 10.456630585857804
Hf 1.6670448218336642 5.7738073226193 8.79329586267947
