53
Energy = -463.20343379 eV
Hf 4.074009417444883 8.72702805138848 10.79403339769547
Hf 6.752247473070969 9.899647627907516 11.3842701658181
Hf 5.474436829238858 10.283865473829295 8.776716057770168
Hf 2.8806691549969887 5.616811876312858 9.593066923237622
Hf 2.002473908518773 6.663636326955757 7.101284678259803
Hf 5.813044967139462 7.4015438352174945 12.744516147679875
Hf 5.044805610691403 7.332543680186135 8.609687233236635
Hf 5.310643163583536 4.91913275888985 11.066044996878203
Hf 8.378971762755414 11.675274695298073 8.940779812087268
Hf 9.609108493604811 9.368651671427218 10.469620803649361
Hf 6.593860097285686 11.617781916661126 6.472542520633974
Hf 8.530324919823135 8.117537355172885 12.819715227525826
Hf 3.0676621382606446 9.35000197407823 7.556939854758093
Hf 7.4652053413364525 7.225565497834226 10.305370176145697
Hf 2.5442550404213637 3.7826831873702282 7.182766285393824
Hf 4.458847976371747 10.750006374769706 4.609696845782826
Hf 2.6448956117778333 8.269341889304041 4.86445806863249
Hf 7.850205152281283 5.325731167463846 12.470511811707674
Hf 4.493269223124608 5.936470174306797 5.575424521964278
Hf 5.367205459184834 4.3939309384147505 8.275683179241986
Hf 7.987466483660933 9.174692582476577 7.854899243837491
Hf 5.530605695458671 8.646384885927686 6.073997398845539
Hf 2.0186088771445734 5.257119170678511 4.6048918848328455
Hf 3.526538048999319 2.858273615281117 9.807481642571702
Hf 7.302415808272083 12.386243197247236 3.7950283794174773
Hf 9.369151851121842 11.809604763797397 5.848762672125025
Hf 7.7327624003544955 6.206179059460497 7.123122160954291
Hf 10.874638965467364 10.176747741178183 7.859494492548496
Hf 7.206149225037852 9.75198771403497 4.030288108131691
Hf 9.900869917984313 10.639003559361305 3.1410636990534733
Hf 6.248314087765294 2.2547811596208356 10.011479788827168
Hf 10.110184746938003 6.399152036761058 11.129761832390278
Hf 11.876658215636155 10.486757164507127 5.1837692989587465
Hf 4.897399653117612 8.079963570661722 3.1211258142341944
Hf 9.60295873355749 8.704222572478784 5.409478633093677
Hf 4.864144343970275 1.6478663217643856 7.39944063554774
Hf 10.125106517638699 7.131817534718852 8.231092028535203
Hf 4.038659037719117 2.9649119063420204 4.6705792240209805
Hf 8.18068810126854 4.422853335272398 9.632875221530552
Hf 4.281071905121279 5.146433440391883 2.7012909452361913
Hf 6.664272571966363 4.030704834212056 5.630763720789621
Hf 7.151570934943665 6.491544300085038 4.120306531858816
Hf 11.659093729254728 8.121366344692095 3.539743905133653
Hf 12.216354147198176 7.851079434928763 6.279774778568574
Hf 7.864308065757299 2.135644641828368 7.563123800135058
Hf 8.997079412535358 7.853042007133737 2.449118888655636
Hf 10.038889204523953 5.91787400453904 5.069182220344918
Hf 6.6312035979227915 1.358316085411184 5.0227562564678045
Hf 6.655593556167608 6.023444378540854 1.374819128923796
Hf 9.989791035013505 4.163314202843285 7.352260885783608
Hf 6.561456403149053 3.379799116888871 2.803067731885962
Hf 9.098908430001819 2.9842089582188063 4.749826848233587
Hf 9.040559126172626 4.932046510790177 2.4810332576462795
