51
Energy = -441.4873524 eV
Hf 9.397998225249955 11.317665672518226 4.082037124294299
Hf 8.794101640916388 9.187006911957434 2.2451023416429527
Hf 5.905296902687013 11.932151711504003 5.557506511688291
Hf 11.979856068004207 10.182634432860565 5.74659630172394
Hf 3.1651869382748483 11.972100534018375 6.503175825872995
Hf 11.406866212772135 9.462846271923501 2.9921061322702722
Hf 6.771871319870484 9.660042655880595 4.0640698227176095
Hf 4.0076557580350105 10.265152604887636 4.4226497537519895
Hf 8.593424917278245 12.249784716402788 6.838134557918716
Hf 7.07263164894908 6.821940511076694 2.673023530927917
Hf 9.654768823714543 8.696851482220353 5.138007379680537
Hf 4.126073134985623 7.4679374423564076 3.7044446636840234
Hf 10.887028937556815 10.82947991558291 11.221267771803385
Hf 6.024886231875555 12.37164978068516 8.263292929174053
Hf 10.10078356556255 6.678640165466404 2.8945196762287178
Hf 10.40203140675403 10.250830000786486 8.284414102885329
Hf 12.365341893920183 7.498340573227902 4.725541778255242
Hf 5.598097300283766 5.0183244424642535 4.506507740377424
Hf 4.174790506193983 10.043827828011795 8.129971155887404
Hf 5.230706974954439 8.095014723135012 6.170308977521649
Hf 7.753406882818007 6.694497598607131 5.523014469690211
Hf 2.395947645922614 8.66486820367898 5.9945698335438955
Hf 8.348085107165723 4.47201996435572 3.818944663610638
Hf 7.46650543001764 9.704845105448113 7.259769241831043
Hf 8.330156594584494 11.474949890128899 9.634162353703381
Hf 10.433887386963159 5.381137281190612 5.759814034250808
Hf 5.676446451907524 10.908347003034221 10.785583361922122
Hf 11.361906182725969 7.699608391423276 7.3580372766982665
Hf 3.3589544958293485 5.767049281665028 6.118816997604799
Hf 7.83704137799906 4.017565721472782 6.740947966983098
Hf 6.107688763436806 8.31889268403651 9.460293331470139
Hf 9.00846411034025 8.675548547203473 10.707387642399608
Hf 8.868007128679366 6.579084400301228 8.360125679778125
Hf 12.06907048113853 8.58709057648745 10.01544797216528
Hf 3.7087203671102915 8.94880782146401 10.870921118903881
Hf 11.279273067238025 8.311979654051804 12.62305326230241
Hf 5.118944830029926 2.9568632845156433 6.988788072816185
Hf 3.055642520475754 7.215130995198936 8.5907855493877
Hf 5.769080938438232 5.686841878832291 8.015606654246465
Hf 10.227529628322879 2.612412965922994 7.1304974071722365
Hf 6.235749988152808 8.349807444816399 12.284154839725312
Hf 10.532004934745164 6.113980269719029 10.930432810978655
Hf 11.4319901526384 4.852897327497582 8.427722560633224
Hf 7.470596068660762 6.073084358139908 11.026575803072737
Hf 3.464281117297814 4.177888486760793 8.868995853419424
Hf 4.55391354477869 6.162919657726566 10.936327730520853
Hf 7.41579695882167 1.5192335338574483 8.218351000556588
Hf 8.959572176947566 7.0302513147003465 13.246002598240254
Hf 9.03331184589189 3.6416871941087368 9.56295577516871
Hf 4.550926877213643 1.3537509960890561 9.123684064297994
Hf 6.117969650771264 3.446410999054676 9.91684597070026
