51
Energy = -444.56910312 eV
Hf 11.612440675320862 2.7681021767708 5.763943340162595
Hf 4.766803067042719 6.838577535693568 2.162394975210704
Hf 9.397710960837411 10.471322901393684 4.750805669896465
Hf 9.003999749780181 9.392917938593813 7.58044428170527
Hf 11.574914340448462 7.340839507182701 7.259373479868691
Hf 9.318961764585755 6.034726451468821 8.583220573193433
Hf 2.7090963962804646 5.515150279538352 3.8836246343677243
Hf 5.315575809078854 7.218864354407734 4.634908841021566
Hf 6.767075685267147 4.53847723259511 8.574718787260007
Hf 5.296821634378164 12.390662905207224 5.698556242717197
Hf 9.095025461099715 2.913396278849487 7.41080753968595
Hf 12.016099332168988 7.350491508690307 4.336626158956078
Hf 4.6358700514597695 10.157475643070864 3.6867905736051525
Hf 2.305357551089738 8.2906107263215 4.741241184624732
Hf 5.992478049352467 3.595687642560769 11.14418480650533
Hf 1.3594217438727716 8.620570231994058 7.496897462412073
Hf 5.587478471518964 2.413387151291517 6.4155947281960115
Hf 9.614644977008107 8.359410583352386 10.2872476124993
Hf 7.455031664913221 5.790279970716271 3.106153339228852
Hf 3.5915616270015214 8.980664997970802 9.717282905384627
Hf 4.065278905286489 7.8368708915274885 7.220299043754108
Hf 4.362761966074441 5.115268390452112 6.675602495436315
Hf 12.127572808568733 4.446592160433708 3.498439671336877
Hf 5.160764827868945 7.802933588811988 12.060318844746327
Hf 10.336761217096704 5.265905645416207 5.607405172058732
Hf 3.3190002157916756 10.49681517820051 6.37250416575248
Hf 5.564427920512135 10.549750413573637 11.250206808255907
Hf 13.202122041502607 5.260806358272384 5.98343654266282
Hf 7.1284622806940146 11.746935445372536 3.7603192567333132
Hf 4.150855237229764 3.164843278795472 8.86952496124725
Hf 6.6028461568780346 9.760591300894417 5.809931739730107
Hf 7.725200379485039 8.965117254066856 12.24988007551279
Hf 7.369922969781098 4.508860499886529 5.6123420382462195
Hf 8.166600895609653 10.860256898652004 10.05612997161333
Hf 7.998796807000147 12.127482926295258 6.619654056109499
Hf 11.62634291343114 4.4449479310838385 8.174938430282014
Hf 4.681789982789919 6.024473021682359 9.871386612925336
Hf 9.386217544710627 3.4388136113701084 3.569487700626287
Hf 1.4001495625675904 6.003557903166362 6.274167003605609
Hf 2.7927457960513618 3.1938131268133785 5.607975281832407
Hf 6.769936310727639 1.751550201285484 9.062186965868749
Hf 5.6873942755207345 11.107697225226632 8.355776885444827
Hf 10.16591297865454 6.193111390675641 2.5869027693807145
Hf 2.209194694331501 6.163861355634322 8.874949633743759
Hf 6.6149729123059835 8.418900827993264 9.595369382725119
Hf 7.241164197235539 8.869331053271958 2.9659040674218726
Hf 8.816032434870118 3.476348333104335 10.256703897772468
Hf 7.1229079734617065 7.056973165047727 6.960756271267409
Hf 9.079406460286853 7.723412721494035 4.9355557819442355
Hf 5.046719894129219 4.079962404617199 3.7397357259924666
Hf 7.575745243356055 6.135804217758563 11.162472434072845
