52
Energy = -454.4335864 eV
Hf 7.153969494542267 5.705835938934712 0.44817943631702434
Hf 9.636061565427283 5.485046676214369 1.867703882585294
Hf 8.464996674249921 8.048939109418109 1.3340534529351948
Hf 7.443711676537589 3.489644455562244 2.4033256027846157
Hf 12.230042051530488 6.180011426886471 4.734290649488454
Hf 11.724627051431808 8.626102060133137 5.88546571491854
Hf 5.523173723950989 7.934233640266565 1.5800338111842238
Hf 9.792869076119292 7.689116790171181 3.9603762510549902
Hf 4.698048125175661 4.936396046620213 1.7787957383396493
Hf 12.068017780568404 3.9792879344891126 6.360354171009529
Hf 7.258563856746467 6.2767429822727845 3.2937829276235986
Hf 9.736283643014087 4.271413212769257 4.461505888262689
Hf 12.793085395598178 6.626385100127574 7.736654900596355
Hf 7.303784457165059 2.260149689584439 5.161392422614527
Hf 4.956447389803724 3.053670594521625 3.789200992051741
Hf 7.268401388086496 9.342291483269246 3.5640209455409058
Hf 9.176300045174147 9.773577337189417 6.1656301257994155
Hf 10.147679522788067 6.173579487768221 6.786408741111437
Hf 9.430828756153476 3.1296015543150553 7.2502338775405955
Hf 4.448165884870525 8.976924835501032 4.409620403796267
Hf 11.094347843971372 9.2849326099381 8.548276284663153
Hf 4.593860540843933 3.4633794529176325 6.513401703459688
Hf 2.9970628249914277 7.066703216915378 2.574636576177714
Hf 4.717042948113705 6.038333984085492 4.807175519692631
Hf 11.272455029584385 4.42059062205665 9.002815012241687
Hf 2.5022338375916493 4.613438645263644 4.064269070768417
Hf 7.044144668159953 7.708775564494133 6.012667562888131
Hf 7.315691672946084 4.818180461790536 6.237277746912073
Hf 8.589428340843318 7.858329716132071 8.500896473023504
Hf 2.053888289159815 7.449399844365125 5.2218990886140535
Hf 8.102187180354708 10.849875118250049 8.722140408630468
Hf 6.432333249120911 2.99280732988067 8.579750421080771
Hf 8.39432045517737 4.933020459563665 9.328771294973546
Hf 5.887095396844389 10.183497546867951 6.910149015554704
Hf 10.828309557170796 6.911148619557472 10.15765330389796
Hf 3.679624700842514 3.7067044292844638 9.188788868299
Hf 9.09301624669157 9.20392601973118 10.953518589829063
Hf 4.119504926834479 7.820739727036837 7.259999713294523
Hf 2.2379619081510835 5.336779055895051 7.232139758624564
Hf 2.7916068018687947 10.224363884207865 6.7914724217724975
Hf 5.662644151843211 5.812892635389481 8.557971012663034
Hf 6.15618969698657 8.83415848065638 9.952365017581018
Hf 7.689994428246866 6.626054451022329 11.627278707483107
Hf 5.564838750523949 4.617983785193246 11.109674478037226
Hf 5.179251527622639 11.53937953687594 9.346150763056109
Hf 1.3600485627887315 7.956352131305812 8.045167550167061
Hf 7.1292144534755755 11.37835260321999 11.405881219115058
Hf 3.192531957844317 9.38566604024972 9.650798076785179
Hf 2.9585491560200916 6.353024394446033 9.979534055647758
Hf 6.900609762871306 8.999687290950332 12.862105681482634
Hf 4.811618130985473 7.317570508974388 12.117500731317277
Hf 4.57922994585217 10.335120862886088 11.95290112903973
