52
Energy = -454.63968084 eV
Hf 11.2483623125647 3.520761469383231 7.735576357773456
Hf 10.681724777560685 9.279601340212517 8.53621083928206
Hf 11.164503289088831 8.210014722538105 11.23816950309675
Hf 11.206170778893753 5.97767891630146 6.206209992110326
Hf 10.147913962191822 8.914479197518713 4.4631933577755625
Hf 9.408068343748926 10.480232863245059 10.99024134643346
Hf 9.06262243115718 10.766592444235666 6.060752338010906
Hf 10.884377597536131 6.17522623079761 9.094419726057112
Hf 10.084909049760402 3.308741730946355 5.0892195733407615
Hf 9.425808368868596 6.147702076004887 3.9394198515931085
Hf 9.363927956616019 3.5805863705738368 10.02855220188031
Hf 9.591549807650091 5.844763176744993 12.09143952237335
Hf 8.835736734648501 1.95380010099977 7.495356077008025
Hf 7.955638795228377 10.621142104980683 8.651421404880852
Hf 8.825091921500157 7.840221761634952 6.942088822586263
Hf 8.810254152014362 8.356530948264325 2.0515578708712336
Hf 8.835843757607483 8.530849474220807 12.85100697110628
Hf 8.784783128544161 4.83256331284014 7.374106531529591
Hf 7.792669082121078 10.737762395296391 3.3629069302258827
Hf 8.587946749413089 7.882269166131937 10.026695817170475
Hf 7.232590640159528 8.308890665037246 4.568912798504336
Hf 7.497509057436799 1.9209220964201508 4.869716718289964
Hf 6.498926343609625 9.48719206826202 11.20530414468615
Hf 8.426364175028562 3.469148155913601 2.6997165571489443
Hf 7.511919373655644 3.9102775612614677 12.28330889916474
Hf 6.881180073996147 5.436370953454868 9.828857312846724
Hf 6.118772297510728 8.542608884504107 8.241480154810631
Hf 6.153606603150031 10.897132849964326 6.084093401308659
Hf 6.46647945735628 2.6015805619286128 10.038811404572419
Hf 7.080040397027663 4.710193752394291 4.886410454457075
Hf 7.251924077415744 5.935838365393318 1.7709902335441008
Hf 4.869852283079071 4.563771502220819 11.6737664329904
Hf 6.076145967194612 3.2347183054584723 7.234793758412489
Hf 6.654645961545948 6.715369381499634 12.591986568940687
Hf 5.7925361269045155 6.2019844331855225 6.976166943920174
Hf 5.967184544248008 8.639715681381476 1.6210145368621913
Hf 4.666955335089545 10.559683826051824 3.37047527290756
Hf 4.975813139636383 6.565263959654526 3.713546991645463
Hf 3.319512419278151 11.5339486448426 5.802826676105252
Hf 3.932060865733434 10.17842053715315 8.277532405759885
Hf 4.168379666546727 4.483202310994194 8.892693304973767
Hf 4.543805029395988 7.1968387910160105 10.523398555589022
Hf 5.289926903623423 3.7973487245228426 2.8828405763135447
Hf 4.106949248726414 8.762428878799664 5.679214022411059
Hf 3.8294712299293017 4.69710176068571 5.604939350334741
Hf 4.5547868914292 6.008207873784907 0.9708278806145065
Hf 2.965585185418363 8.120407202016507 2.2964639160759717
Hf 1.8221176495166207 9.891562845770565 4.119794280787318
Hf 3.140255817492104 7.217102873325557 7.895210702343885
Hf 1.5640650231525364 9.428885665456063 6.8450125546802605
Hf 2.6402026174169815 5.2223587709989125 2.9034291670405974
Hf 1.7704990359329318 7.053227065451234 4.970862602094178
