52
Energy = -454.59346077 eV
Hf 8.983046412504672 11.727631931765318 10.345766091943497
Hf 6.767746027281511 10.354666519256764 11.694393175949601
Hf 6.284064074683399 12.262133081937877 9.246140684396087
Hf 8.947075134180942 12.797019251474632 7.7771663219762885
Hf 4.12731785453393 10.565954660980251 10.341619037000598
Hf 10.723562621394134 10.583359009129653 8.400611706509265
Hf 9.295534920116713 8.904094163871054 10.583036214357499
Hf 4.538747492256695 8.279303125665816 11.943397452000154
Hf 7.26021373648172 7.477874442179693 12.101443500978803
Hf 6.664509266340399 12.193768242897049 6.267440818835258
Hf 7.931363234727186 10.170202390696282 8.047029633358408
Hf 6.0778471839337165 8.518321732279622 9.6103787059862
Hf 4.511461660091473 10.514233487582738 7.540610019438866
Hf 9.368545521591667 10.63538283451599 5.550952860437358
Hf 10.881519712216866 5.012175097942234 8.703142846567475
Hf 12.058767644978971 6.039794415558274 6.4518625378970755
Hf 9.996927942971206 7.826525259436363 7.8019143269957265
Hf 3.2421402437791147 8.020045412071003 9.096158760574454
Hf 5.477724160873308 5.662417906156526 10.699049729283281
Hf 7.476663869671317 3.3693822578796384 10.810132296152176
Hf 8.313597696095295 6.158337045969615 9.722345911062998
Hf 11.623355433395249 8.662075740417126 5.393283827299428
Hf 6.363477223058533 9.520055040012087 5.503689503673337
Hf 6.806293650862755 7.166392411633485 7.196916690864686
Hf 9.442028767263734 2.528584372764559 8.639792595563419
Hf 10.908901251249794 3.3224723945572427 6.252946207473441
Hf 4.612658722905404 2.923947321484193 9.717111226543063
Hf 9.106573823454834 5.315600358393563 6.3956642609852254
Hf 2.5958311620249903 5.2226064709048705 9.964123849913868
Hf 8.771579631103252 7.79318206472184 4.892430480262292
Hf 11.096242617490056 6.317590173804065 3.7266461797031463
Hf 10.380831599521855 9.0462016369831 2.937518857876682
Hf 3.9136376129025985 7.8565413504910335 5.977759472460853
Hf 6.914614488857808 4.074186607060907 8.161192494051994
Hf 5.924148909829386 6.980950993912872 3.7592017725629474
Hf 7.392830236817779 9.36931772227052 2.8150987076953466
Hf 4.449081860841374 5.528888980983736 7.8873101949082
Hf 4.377713214623114 9.354978403006415 3.363343217129198
Hf 6.906379232102725 1.350730895378073 8.691603793919912
Hf 7.973721865842119 2.2141358680702026 5.984290788948753
Hf 2.495245830319948 3.41450223403213 7.69617169426822
Hf 8.601763168945732 6.813308415341894 2.1152846422105682
Hf 1.7776794583195998 6.124971488527457 7.253821971039775
Hf 8.793612360342681 4.187623406975079 3.6081975821687258
Hf 6.485253117266923 4.790701492853433 5.297941549418754
Hf 2.951516594505093 6.976554133674 3.306869481907846
Hf 5.008219132660809 2.2657934650673033 6.656045732546988
Hf 5.114042174363788 7.250518088003257 1.2196963365072213
Hf 3.489237640357563 4.649957114561321 5.19664538315848
Hf 6.743714358556211 4.710345340707757 1.6557546051537904
Hf 5.955545057569105 2.703187183064148 3.6346874614458278
Hf 4.185068922526046 4.721596541816354 2.3792389303430936
