50
Energy = -436.44709139 eV
Hf 6.911751073510949 7.880225176068141 13.00363739611197
Hf 6.070841600074722 5.436421876130106 11.699692312416072
Hf 8.651106672400044 4.399810697292935 10.039741187564431
Hf 5.738421736409085 3.5131483424424412 9.332984854888913
Hf 5.463077449522961 10.199578781639389 12.897256310241955
Hf 8.364840078199645 10.220703010464089 12.003711259455203
Hf 5.770957091507937 1.0626940699738694 7.606071613430163
Hf 8.746984709821898 7.2849209746946455 10.960393926337504
Hf 6.323086018361101 9.149276433739955 10.27072255567353
Hf 3.698415059633582 2.967297811018299 7.062496146342361
Hf 8.552849689035774 2.029809105810381 8.09607397885225
Hf 6.250654488506538 12.03520189622896 10.993648606755036
Hf 4.170039340821019 7.827275486407038 11.793735053043287
Hf 10.700217079241261 9.580551241518805 9.849871958393662
Hf 3.7259070230336224 5.56342490758597 9.932719567810496
Hf 10.804843419729007 3.7155849706363995 8.157269296837443
Hf 6.405488960260204 6.393635294795607 9.070634781309055
Hf 6.526524820694755 3.565583668378467 6.50044206357531
Hf 10.906190161272876 6.3243540038722355 9.221636958625695
Hf 3.819232635261572 10.556317227637601 10.597149162724248
Hf 5.105268384898029 1.682829723586892 4.818368063103817
Hf 9.703375329172424 3.2097010478910155 5.542732341121723
Hf 8.438936959335908 11.461345096059773 9.211673775473843
Hf 7.726212213025718 1.1221866444670503 5.49635280019312
Hf 8.732958799134604 8.571648259035554 8.299658854412812
Hf 11.500582459903177 5.792223241683227 6.265168206706959
Hf 10.419074790688983 10.673673842578225 6.980806434389429
Hf 3.806419672865065 8.380932736974463 8.625924645045414
Hf 8.734727247507756 5.572833551276199 7.24540805396805
Hf 4.419966965628112 4.465733636482438 4.537478795202739
Hf 9.545985141324872 5.818474662173465 3.9650944551568763
Hf 11.804646695830924 8.352713731240948 7.402350005897038
Hf 5.565912596503967 11.356464471263335 8.30215730404962
Hf 7.271023847362598 3.5550173075845826 3.665129623184011
Hf 4.389021443937682 5.748355773820829 7.13206207949261
Hf 4.274692710837555 10.477474430212455 5.800306973757939
Hf 6.067634347934768 8.522309127889534 6.972585390821055
Hf 6.655024843912123 6.1698629746119 4.929449983165577
Hf 7.634519625180103 11.035764505082717 6.291440056174777
Hf 11.622040257753754 8.327706680645582 4.491239007950818
Hf 9.16573363433174 8.283857642707051 5.56950943038238
Hf 3.7785815582787916 7.718491853866996 5.067316189011461
Hf 6.172290649008066 11.6582822204209 3.7545274435013276
Hf 4.889539871741403 7.156418481720965 2.447930293153665
Hf 7.487083286589097 6.5450172533314435 2.0312044196842662
Hf 6.691750958898716 8.83054638435327 4.091618299366838
Hf 9.4921524011405 8.384251221685195 2.5106128444281746
Hf 8.955800156953059 10.762939788528692 3.7709817496396254
Hf 4.170220282585692 9.813495641421673 3.011127405644382
Hf 6.789274739822012 9.543500202795542 1.5339781094269558
