51
Energy = -445.01073424 eV
Hf 9.86996539533818 10.42936985266815 2.8201976716416715
Hf 9.097830399720431 8.095900510928363 1.1624576152874162
Hf 7.090577575066178 9.878888275995648 1.4129047185466161
Hf 7.193668674189389 11.545889917620082 3.610505920813008
Hf 10.804376396334733 7.631577462312587 3.322609455274766
Hf 9.063439018849882 11.206034909462291 5.7176060714371655
Hf 11.048604618459839 9.272076872799296 5.501121163497538
Hf 7.975600955484793 8.662003483055823 3.9042401433743747
Hf 10.218551640418967 9.938795825230523 8.442326763040326
Hf 8.920535619708042 5.6245220212178495 2.5625313865816794
Hf 5.05212795314676 9.5504492199021 3.3103914047708956
Hf 6.33382742502057 7.063352154695285 2.066358486525176
Hf 6.101474800451169 10.526368827254295 6.143579050836518
Hf 7.567461462740691 11.137891054996013 8.701741339141352
Hf 8.527475845639225 8.450775958271876 6.697682867719886
Hf 10.256406916685988 5.821234377390715 5.689331462455619
Hf 11.2973067652774 7.205990929804959 8.297162789603453
Hf 11.00676000746712 8.576456596378648 10.9139293119104
Hf 9.079953618533736 10.582723650330705 11.108476036441145
Hf 6.3713019279491006 3.991259248916918 2.906977364172109
Hf 4.729708613309941 11.059059782083414 8.827463341472441
Hf 3.927091583566432 5.587444878658644 3.612870033924717
Hf 8.889802992440037 3.3552669553993764 4.19539611596918
Hf 8.262521165722424 8.0529219590469 9.953897485857635
Hf 7.501371124866863 5.731287827388597 5.123712095551886
Hf 3.2949489768814364 9.27920812360047 7.008736655628161
Hf 5.357075512498362 7.688875157327796 5.320109506496079
Hf 8.718581172343422 5.891048483942926 8.177590900824734
Hf 10.934866214839408 4.29770102940725 8.350212535634236
Hf 10.280719495235626 5.811430338642884 10.86586725193558
Hf 8.619127410888122 8.082810896434525 12.622827351959637
Hf 2.311884397549222 7.359266786486493 5.1613215708141045
Hf 6.229187423967151 10.015446598339194 11.113280454108146
Hf 5.948071679778221 8.500363248124106 8.318828824504019
Hf 3.8442782692502284 6.427947319615995 7.4256096164726095
Hf 8.488933212799749 3.287564895064821 6.947897517639113
Hf 5.181382932274486 4.190680938573696 6.054086572329536
Hf 3.9226146187375686 2.7712450065898846 3.874412421532284
Hf 7.606578738334349 5.431291926632299 11.763344470741872
Hf 3.4334272482743766 8.621817293817577 9.867994559272637
Hf 6.07012459879828 5.350604017811287 9.031923310200304
Hf 6.479534026004967 1.8257293061530433 5.092970305263708
Hf 8.43736083023638 3.4350295511397158 9.96356186594724
Hf 2.2780635689285713 4.310871276369166 5.7948248127409965
Hf 5.625102992980724 7.272224057151318 11.521616801521708
Hf 1.4407827185064102 7.052267988357902 8.116457757834565
Hf 3.344625382218442 5.792035717728412 10.426336771646222
Hf 6.099209615083473 2.319219883700716 8.251005832104784
Hf 3.808123821030295 1.7317807322861414 6.447997577028231
Hf 3.5671694389439663 3.6888059462452087 8.584734079704612
Hf 5.454214085143116 3.521132798491277 10.968208719837923
