5
Energy = -30.91731934 eV
Hf 8.40273216036661 8.780980090552239 9.093575605969145
Hf 7.154366325892832 8.90444978629762 6.721551275858657
Hf 9.588913550780186 8.012158697482315 6.894463806285744
Hf 10.917702814520315 7.852942344825822 9.122281103623791
Hf 7.126402982897699 9.530563675977824 11.203256800560345
