55
Energy = -483.35679371 eV
Hf 6.577187596304341 6.577187596304341 6.577187596304341
Hf 6.577187596304341 8.153205620301268 9.134725801146944
Hf 6.577187596304341 8.153205620301268 4.019649391461741
Hf 6.577187596304341 5.00116957230759 9.134725801146944
Hf 6.577187596304341 5.00116957230759 4.019649391461741
Hf 8.153205620301268 9.134725801146944 6.577187596304341
Hf 5.00116957230759 9.134725801146944 6.577187596304341
Hf 8.153205620301268 4.019649391461741 6.577187596304341
Hf 5.00116957230759 4.019649391461741 6.577187596304341
Hf 9.134725801146944 6.577187596304341 8.153205620301268
Hf 9.134725801146944 6.577187596304341 5.00116957230759
Hf 4.019649391461741 6.577187596304341 8.153205620301268
Hf 4.019649391461741 6.577187596304341 5.00116957230759
Hf 1.7259521274570264 6.577187596304341 3.582314514690299
Hf 6.577187596304341 9.572060677918387 11.428423065151662
Hf 6.577187596304341 9.572060677918387 1.7259521274570264
Hf 6.577187596304341 3.582314514690299 11.428423065151662
Hf 6.577187596304341 3.582314514690299 1.7259521274570264
Hf 9.572060677918387 11.428423065151662 6.577187596304341
Hf 3.582314514690299 11.428423065151662 6.577187596304341
Hf 9.572060677918387 1.7259521274570264 6.577187596304341
Hf 3.582314514690299 1.7259521274570264 6.577187596304341
Hf 11.428423065151662 6.577187596304341 9.572060677918387
Hf 11.428423065151662 6.577187596304341 3.582314514690299
Hf 1.7259521274570264 6.577187596304341 9.572060677918387
Hf 6.577187596304341 11.677994222298391 6.577187596304341
Hf 6.577187596304341 1.4763809703102888 6.577187596304341
Hf 1.4763809703102888 6.577187596304341 6.577187596304341
Hf 11.677994222298391 6.577187596304341 6.577187596304341
Hf 6.577187596304341 6.577187596304341 1.4763809703102888
Hf 6.577187596304341 6.577187596304341 11.677994222298391
Hf 8.157212388328466 2.4606205207650946 9.129247717106594
Hf 4.997162804280219 2.4606205207650946 9.129247717106594
Hf 8.157212388328466 2.4606205207650946 4.025127475502091
Hf 4.997162804280219 2.4606205207650946 4.025127475502091
Hf 10.693754671843593 4.025127475502091 4.997162804280219
Hf 10.693754671843593 4.025127475502091 8.157212388328466
Hf 2.4606205207650946 4.025127475502091 4.997162804280219
Hf 2.4606205207650946 4.025127475502091 8.157212388328466
Hf 8.157212388328466 10.693754671843593 4.025127475502091
Hf 8.157212388328466 10.693754671843593 9.129247717106594
Hf 4.997162804280219 10.693754671843593 4.025127475502091
Hf 4.997162804280219 10.693754671843593 9.129247717106594
Hf 4.025127475502091 8.157212388328466 2.4606205207650946
Hf 9.129247717106594 8.157212388328466 2.4606205207650946
Hf 4.025127475502091 4.997162804280219 2.4606205207650946
Hf 9.129247717106594 4.997162804280219 2.4606205207650946
Hf 2.4606205207650946 9.129247717106594 8.157212388328466
Hf 2.4606205207650946 9.129247717106594 4.997162804280219
Hf 4.025127475502091 4.997162804280219 10.693754671843593
Hf 9.129247717106594 4.997162804280219 10.693754671843593
Hf 9.129247717106594 8.157212388328466 10.693754671843593
Hf 4.025127475502091 8.157212388328466 10.693754671843593
Hf 10.693754671843593 9.129247717106594 4.997162804280219
Hf 10.693754671843593 9.129247717106594 8.157212388328466
