52
Energy = -452.76428957 eV
Hf 6.619234981250537 8.584578353150729 2.1488416397436856
Hf 4.629763525522044 10.712824596861543 3.2792724796297885
Hf 7.433675262772171 11.20569818279495 2.8615643868365743
Hf 4.196006138664732 7.739748448591604 3.296400093291348
Hf 8.532024955908689 5.715331141628423 2.0269963462252267
Hf 6.782885195654804 3.686702663522945 3.3822672654875663
Hf 9.052726992132243 8.956977813473344 4.107632156619827
Hf 9.682838669017862 3.5270026136645014 3.633541069529654
Hf 9.948385165491452 6.164871069345768 4.675361936333299
Hf 10.901632706841626 10.192191238346103 6.293967666314886
Hf 9.017961455740162 12.112195496365745 5.135899733416789
Hf 5.659264373118105 5.733958451487973 1.8068008469305838
Hf 6.153476736301661 12.569157799385112 4.8770722629336145
Hf 6.925619393415606 6.546381744155984 4.225522455892891
Hf 6.32356550266425 9.371708153008377 4.946405475850822
Hf 11.443250345280243 7.5578386951832295 7.249862149277678
Hf 8.183641077048309 3.936629324140115 6.111451734481233
Hf 7.595437501486579 10.640397956020214 7.1777972826791325
Hf 5.009973469135014 3.020409773673714 6.134137995048362
Hf 4.191403846106445 4.973844236502918 4.209330728739442
Hf 11.177198809374604 4.164606706182048 6.2681650231198205
Hf 8.32993781609539 7.6141790983432145 6.709268992659937
Hf 9.661843084992803 5.657835850792878 8.16255780193525
Hf 11.914075233548411 10.043476356054363 9.002447397217002
Hf 4.591231984636925 11.036120202595397 6.803239970535824
Hf 10.01218158965722 12.307262825619933 7.877793633269563
Hf 9.339552753576143 9.309243811609155 8.867061325204087
Hf 5.7536735564063575 5.681125854289874 6.939901187151185
Hf 6.805952457134142 2.0654319155727925 8.111884686484245
Hf 8.246107071418576 11.933794046160468 9.952754056186162
Hf 3.0071070100545874 4.989344545819407 6.866970960736494
Hf 4.008533737391123 7.935530400190737 6.3674168386472605
Hf 12.079724102954634 4.795779022345286 9.028731527028288
Hf 7.072201823617012 13.23995095064184 7.528972890763504
Hf 3.154672055902979 9.436413141966176 8.798496116948611
Hf 7.2231822373555366 4.777949284749334 9.264519154280553
Hf 10.992163560383863 7.272953780661507 10.276420359276514
Hf 5.913361805238926 8.709082910677477 8.569793100345443
Hf 7.869857185898634 7.289466324652322 10.614549471544182
Hf 4.505256457363354 3.577296382378603 9.010704528602302
Hf 9.55554723539329 2.873580899844166 8.583611164901797
Hf 9.86701467633488 4.450094734203559 11.041626573580617
Hf 9.553894222915465 9.39353619433851 11.848920079533741
Hf 3.8954222304137516 6.597958957024607 9.127568726706834
Hf 6.851853124553078 10.202660380013818 11.572832942840746
Hf 5.285057614158153 5.728147170241508 11.447607138624369
Hf 7.220586328620159 2.6849559484718397 10.862176681812686
Hf 5.3391397201411515 11.512755890157313 9.533594145091469
Hf 7.596862996946496 5.01285605362755 12.665865844450423
Hf 9.751246527028549 6.719082461003822 12.882545024898125
Hf 4.595493444328369 8.642077513609344 11.241682069118083
Hf 7.032521977315743 7.834017512199006 13.184912646624854
