53
Energy = -463.81505473 eV
Hf 6.226171711493449 7.180655864922429 12.674605479663274
Hf 7.326539727280361 2.2450684921168165 9.350318549813247
Hf 4.365867933978385 3.0030410611340512 10.089068721880349
Hf 6.326560555187603 4.954537790189875 10.68601821936673
Hf 3.7911356818789828 6.6438958862536905 11.502576426620848
Hf 8.785573763651145 6.737108069028006 11.293058657013425
Hf 8.6691303305475 5.12716282677584 8.842473794656314
Hf 7.613919078859693 9.497033141778864 11.753108393925906
Hf 10.960908487461126 7.119664629349618 8.768262899175108
Hf 4.863978498677189 1.1063731751946022 8.10478427088164
Hf 4.658743603615264 9.450711653677702 11.686233942306865
Hf 10.450403501383326 9.064462063019947 11.112497569141343
Hf 7.0357344098747285 1.2764136433043456 6.517476228220184
Hf 5.80376256085041 3.8703784997458417 7.684112173303741
Hf 8.900992269871377 3.3182747730799758 6.736009065585783
Hf 5.81898126506162 7.7253323048549305 9.790599039890227
Hf 3.661852901188633 5.640745447345294 8.874420781103003
Hf 2.8793874185199275 3.151705811253418 7.618122819676395
Hf 2.944482165858483 8.602468855934717 9.352345182021311
Hf 11.161705987017292 10.17706705154212 8.683031927426864
Hf 11.67203456038879 4.617079108362106 6.717492863388115
Hf 12.386606976163252 7.4207849033004205 6.221520066019925
Hf 8.995556250678206 11.409740898744088 10.192001157035762
Hf 8.606148508175014 8.82663409511779 8.883760568718477
Hf 6.899998494348004 6.774238358060012 7.205024556531402
Hf 4.497450459310402 2.2052377890879473 5.360612099276264
Hf 9.649365060098726 6.3003971449799545 6.072137449544828
Hf 6.272568512488727 10.609691215881762 8.970065813879858
Hf 3.699808217825506 5.168407558416448 5.663326487889114
Hf 10.108650209770449 9.201222346250432 6.2918920737130195
Hf 8.672013256489542 11.48795554106196 7.3476510717061085
Hf 1.5674408374339304 6.6263504626128835 7.221996926203632
Hf 6.863118163631999 4.942564508409839 4.9756982109179715
Hf 11.849167464951066 5.743850647532385 4.04034425805682
Hf 9.706227963617234 3.905428752630594 4.030344025508987
Hf 4.153771634738211 7.935852361879997 6.778749046954826
Hf 6.96198800279296 2.37516948991367 3.8496321222091856
Hf 7.547214038833413 4.539639469441386 2.144179306740267
Hf 6.865217540877742 9.418441374901192 6.162797402057878
Hf 3.782291472719935 10.970783086151387 7.550335203409313
Hf 8.181991161437004 7.742311272404247 4.039657780239567
Hf 4.790217696112124 4.2881888675690325 3.0503573666745862
Hf 1.6942914177161021 9.430322026183939 6.666499225969301
Hf 11.09875926234501 8.500811027064536 3.6232181777333454
Hf 2.25681321885312 7.5278650446995385 4.593584854685257
Hf 8.80169405699599 10.68738309065797 4.248483481533155
Hf 5.958951303901381 11.919565551865968 5.846085302031983
Hf 9.771096280353778 6.349442004562598 2.0413980502183433
Hf 5.0859311969392245 7.2466806797281205 3.9162542258664104
Hf 3.746509574346276 10.163594361772454 4.772222718567192
Hf 6.833332735674915 7.256064710120742 1.5153871669165662
Hf 8.935144507005939 9.157622966924071 1.704410593710455
Hf 6.384941473516439 9.82903226459981 3.145642584570057
