51
Energy = -445.43927246 eV
Hf 1.916157893315216 3.7341615863267053 9.943489971273047
Hf 0.5257806458386856 5.465020089339856 8.348189844321714
Hf 1.7502215945474175 6.69209782107986 10.804035623692865
Hf 2.466551140108253 3.5752445156597537 7.173871389234094
Hf 3.8427887884889658 4.6928381639492525 11.529563957818205
Hf 1.7870540957436425 6.119421716969539 5.933532149324198
Hf 4.640525393857831 3.062124760224452 9.179336471946693
Hf 1.4966821815620281 8.163744805403523 7.915662220484668
Hf 4.389097527669679 5.013274111539849 5.522590759592667
Hf 3.3958390474655347 6.036643302789296 8.654287936981026
Hf 6.29819031082676 2.823528773758386 6.194300931783385
Hf 4.320511776440536 10.999281661778777 4.734710352925292
Hf 3.451961206377103 9.122075350957557 9.688214569697113
Hf 4.051401428317138 8.077819318478523 6.241804284085079
Hf 4.765408016170407 7.259478867202724 11.282204255491909
Hf 6.67410114780449 4.998541847959429 10.779661913599695
Hf 6.686716622476805 6.791635159768237 5.61292984441699
Hf 6.117508735058122 5.255277861800409 7.975517465072285
Hf 4.79614250059484 6.956386592745123 3.4776087483231612
Hf 7.9364854025806135 3.0849382563971717 8.991617610832854
Hf 3.457670200499312 10.928310559699266 7.491607426018917
Hf 8.382769663762291 2.2250353912440177 4.169948214947786
Hf 8.976498579540285 1.5900634475393522 6.736714726038389
Hf 6.571335680100461 4.412271290301098 3.581163191812716
Hf 6.062905032043934 8.103794322106339 8.842351042010955
Hf 5.448535563276247 12.804019221346897 6.83289205814854
Hf 9.763195227631195 4.837532294557517 10.672362201841082
Hf 10.682051206858386 3.241934497221983 8.161708126483314
Hf 6.193273016680278 10.099038504066037 6.61574180134273
Hf 7.532891908266978 6.851318802424868 2.136352277276354
Hf 5.806858076290398 11.22715203784459 9.296413356494716
Hf 9.58679489078524 4.517096632007365 2.896941060317589
Hf 6.6069890459251726 9.195029671534556 3.7868402238161143
Hf 11.107026943183818 3.008434344493751 5.137748782221846
Hf 8.257488729134918 7.429718393677657 10.690496138377284
Hf 8.87649147631103 4.464911493232104 5.901526874234803
Hf 8.955266718003596 5.851364281409533 8.329541431557377
Hf 9.380986523378423 7.289040762803554 4.441235030362575
Hf 7.062326016337091 12.010826461151636 4.62419464617889
Hf 8.630219757053553 8.556934117378406 7.450177469086957
Hf 8.211056167267479 12.032856160680666 7.504551413389913
Hf 11.663720213374255 5.46279894114585 6.9676986040661095
Hf 10.51266871632681 6.972724478914984 1.8034263831356674
Hf 9.340323871036079 10.23860335298256 5.129201893619142
Hf 9.053959528777089 9.343971081177221 2.2991770254784574
Hf 8.661164127549501 10.226385567383092 9.82318425895641
Hf 11.968839815146236 5.996296374407068 4.123755979317823
Hf 10.771791410392101 8.042252150793157 9.415573078131384
Hf 11.434983770457189 8.150510444680908 6.403477784803935
Hf 11.583014529935783 8.942990191341396 3.5473870471340856
Hf 10.679813239691336 10.514388903688392 7.862657211312366
