52
Energy = -452.95648751 eV
Hf 8.169584097061312 3.7606167155324584 10.665200366654355
Hf 5.815018356184633 2.5859467047476685 9.544730154651477
Hf 4.571804224159313 1.7072137618897711 7.097571158589424
Hf 7.401993219825141 1.4699168719379667 7.474566710759387
Hf 5.5707031093003 4.788105376489215 11.30576029724442
Hf 6.3985727100112415 0.5904058361162289 4.908284101908342
Hf 3.244538436799525 3.723926816250894 9.459640772272627
Hf 3.2251393880514994 4.446786844645 6.589877969404996
Hf 2.9479550010808464 5.910988133787922 11.240647795548501
Hf 8.118943385977582 6.486541830948507 11.820105765911903
Hf 10.296198101462272 5.375213992577507 10.150459694967685
Hf 9.141780909358282 3.9613523991836863 7.7063533367465205
Hf 1.6463432406353795 6.082814855248082 8.590398070630046
Hf 5.088775237910219 3.075391729946027 4.548623060347921
Hf 6.197047731607908 4.283177595802863 7.112371093246985
Hf 7.683643373467394 6.223034676356956 9.081411441684887
Hf 8.27567575689925 2.8287394958258427 5.056990384947345
Hf 5.18474393539909 7.770236805978457 11.400533699823344
Hf 2.9639187374351708 4.816160543419799 3.691265189800953
Hf 7.0006415644150275 2.590032222633037 2.4004933966935593
Hf 4.477887799162454 6.430646025849953 8.754623444223855
Hf 4.897681009806927 6.54122155181309 5.435758616433021
Hf 2.49060828110679 8.314200967227627 10.136713911555065
Hf 10.005595945395447 8.191291748210471 9.88593147229066
Hf 10.909770364603856 6.384834140120759 7.560996801980025
Hf 10.46710526892132 5.001356192620573 4.938209500969322
Hf 9.529327998332539 3.7782817202130974 2.599235081736867
Hf 7.422871414463063 9.167508322558028 10.135549664666225
Hf 2.9444831540194403 8.632631408003009 7.321143581943084
Hf 4.659990673401518 10.095156314341827 9.644780273178645
Hf 7.0940330215823355 5.248245387483835 3.671832189419828
Hf 5.048187378322549 4.793155051319058 1.6341073425035015
Hf 2.1074500240544785 7.053548552307682 5.053715872792165
Hf 11.972124884798008 8.970520512655552 7.910178116905167
Hf 8.258589079633605 6.511138190272974 6.158900294382212
Hf 5.9289052429129985 8.76127094856995 7.3345212743734525
Hf 3.9121005777832467 7.255587460718079 2.69753885363567
Hf 7.873772058913974 5.047769060042381 0.8309676076339508
Hf 8.978752263012652 9.33806083636977 7.129814377604298
Hf 10.898634586991353 7.977026751374547 5.17999803281134
Hf 10.285722902279263 11.133177257684336 8.82583409714223
Hf 7.028144209356405 11.359735744426176 8.25768940051991
Hf 4.147143011611184 9.374788827868587 4.767538277327826
Hf 6.927268757958987 8.39196083872944 4.1901214989551026
Hf 4.336043619891914 11.299318224134977 7.00448004527985
Hf 9.351555863153472 6.829208112924644 2.778872671949191
Hf 6.611543328628889 7.328334276048506 1.589461506952537
Hf 11.318617385816863 10.762721159134276 6.001324859458798
Hf 9.186239604057395 10.19655779404937 4.252400865665683
Hf 6.625966728830674 11.318661182418676 5.247270062371453
Hf 9.045415070322305 12.34602900203171 6.327536249016377
Hf 6.308269918995721 13.575202849551527 6.865718253864336
