52
Energy = -452.11753986 eV
Hf 14.178087841332486 5.491655348456911 10.898113801085179
Hf 13.341219734387538 7.490962515719466 8.873084986077385
Hf 13.21365608087964 4.6399226342052335 8.540764134973141
Hf 11.959356596158798 6.970049132799993 11.48011977615175
Hf 11.67306054586004 9.125273652658644 6.985637556691849
Hf 11.590297635494291 6.14387745901482 6.381181515270155
Hf 11.543395526017452 4.010393183491303 10.897374867423471
Hf 10.883284589049284 8.367349183462764 4.258083911191905
Hf 10.922126550930587 3.2639273316195987 8.089275501348979
Hf 10.927178498944297 9.048937150058038 9.884621118736236
Hf 10.085835269151254 11.162720986436526 5.06747232018316
Hf 9.640215908200837 10.254131165280405 2.4279069802469007
Hf 8.612554957255155 4.701786257984891 7.047431324848713
Hf 10.66056666834359 6.060059015470729 8.980688764529352
Hf 9.423624474927944 9.05180059231246 12.416518764289664
Hf 8.50191420569037 3.511179839134868 9.738480222675618
Hf 8.965308514646134 5.825537199227167 4.42325163114547
Hf 9.135854977786805 7.713727859047413 6.779566807256883
Hf 9.181958086183142 10.545491679196704 7.810514242439791
Hf 7.111226311436676 7.619614298692976 12.73389662061305
Hf 8.987148631520865 7.624744126378356 2.1779789199786617
Hf 7.80510571550497 12.010517715405918 3.3810891082336543
Hf 9.091798751089444 6.166197621163858 11.337855511888453
Hf 7.775902379958999 9.208356105203292 4.528195891600881
Hf 9.192222329670566 11.264086448412131 10.739186731974193
Hf 8.246337279013753 1.9754866882063464 7.160991143956232
Hf 6.254903474847155 9.73258676944631 7.136449153901837
Hf 6.742999178944836 9.606776955702426 1.9791673755638914
Hf 7.762107079362696 8.901585534582496 9.839704790536905
Hf 6.760347304503617 10.369463107206457 12.066302183840259
Hf 6.906000393392603 6.165585138118755 9.040248752190893
Hf 6.3550010757134645 5.036924145600439 11.569648079718911
Hf 6.72896183258668 11.67590768512075 9.287499998552935
Hf 6.555783510393049 6.681110982726167 3.1391496511172723
Hf 6.393977327780565 3.814676700226233 5.248877393573879
Hf 7.492894933064907 12.394916584628257 6.199587162807467
Hf 6.234609685358994 6.5502029129858155 6.017927266180818
Hf 4.0656426090751 7.5109056427387015 7.887904104631653
Hf 5.099335299558095 7.9021258784827575 10.841944460775043
Hf 6.090802553939531 3.4326150955954855 8.21344379694833
Hf 4.765968951207991 12.231494606758526 7.1437974868717005
Hf 4.195197551752579 5.4544849523978 4.14184592869657
Hf 5.316447528510285 11.346052299170461 4.402635508412378
Hf 3.9819338973142195 10.182668503432186 9.154789645589682
Hf 4.011627804397865 5.197043292013887 9.785839317462058
Hf 3.3935823105947844 9.91375263686949 6.175029828832197
Hf 3.7521938238285504 4.578728380018827 6.793699883538283
Hf 4.631989682342899 8.42010351189472 4.085571855012239
Hf 1.6380925957488508 5.951228564097938 8.183795329291753
Hf 2.3987489056029987 7.698240950858309 10.27617908371815
Hf 2.29673518111185 7.017237392858858 5.587509388769432
Hf 1.4512037674626665 8.78441581609965 7.871910080092934
