54
Energy = -469.2670617 eV
Hf 11.777071646669224 7.441600952445101 3.3825497485294544
Hf 10.378084525819997 9.877765544943486 3.6971592183443693
Hf 10.483772349321697 11.274091692180011 6.367365927060919
Hf 11.99585084540847 8.821248574386676 5.897200063971649
Hf 11.740594147921513 7.117525791938469 8.375900542940792
Hf 11.527723071613659 4.257726384360094 8.476210040700497
Hf 11.174556818571915 10.089397852452226 8.890305854348341
Hf 10.362693975933547 5.0638019850336775 3.0597867757429404
Hf 11.095167820774742 5.887518881876771 5.8704912628222825
Hf 11.002236963247286 5.9400501879005345 10.760800327093433
Hf 9.43255463772371 7.7329048320094484 1.607483158269877
Hf 9.605099469041106 11.211991350856488 11.074908660480657
Hf 7.69567788678203 10.289353941923416 5.4640967747013
Hf 10.7700711380157 12.798225281693739 8.98289143836327
Hf 6.736421559609613 10.617020140270123 10.63049455013776
Hf 9.12559459592572 8.402567679717096 10.141840460198239
Hf 9.315481924412307 8.545482211656173 7.074900126998167
Hf 8.442588942190227 4.448442989890987 5.190833575249091
Hf 8.892486290054817 7.314703637033871 4.258138004158696
Hf 9.022083999523062 5.679991133010042 8.40021791971766
Hf 9.635747206848245 3.5257106965596616 10.442769002347042
Hf 8.765336784708227 2.9164931041855975 7.76017576719556
Hf 7.790121267617686 5.32552547168316 2.076087409674715
Hf 8.449244141763502 11.29777768501277 8.464577582788861
Hf 7.831339103801132 10.016110315358418 2.626371401707479
Hf 8.265377019059697 5.803885591635707 11.683813471356048
Hf 5.345412702376045 11.708067034957372 6.527810809265879
Hf 6.46838927807252 6.819915799037418 9.640263038920695
Hf 5.150715709555675 9.948124981363016 4.00109414116405
Hf 6.15224627779221 4.446066750378338 7.090827595188817
Hf 6.339935580267039 9.268091537590442 8.153920304011535
Hf 6.8574421155906204 8.284120442438704 12.14698433767871
Hf 6.31689738579258 7.708398580413692 2.41383673319479
Hf 7.754022324641853 1.557768921750128 5.54777997044826
Hf 6.824001679649781 3.9167616758056 9.890780950545908
Hf 6.299003834496508 7.365138282558006 5.694169112340989
Hf 3.9711716611546723 11.108187649798184 8.831886929845847
Hf 7.29167828094141 2.7279817157213717 3.121012764903343
Hf 5.6622231340084435 5.103862923713509 3.913975646282971
Hf 5.076558720876776 5.9741287421202225 11.947159864354566
Hf 2.3332542315724605 11.044335535067322 6.457817798887491
Hf 4.0478835724702025 9.085556785641408 6.547617768870516
Hf 6.015872715026118 1.6429283170131388 7.860689982917101
Hf 3.85295620566834 4.1492418902134744 9.952152695531803
Hf 3.7420896737735614 7.443674114238928 4.014843185930667
Hf 4.052677225600144 6.600466248407506 7.993140777767782
Hf 5.091667278616429 2.3739062014085106 5.1750634540055005
Hf 4.355049435753223 8.770275814348789 10.603308801760816
Hf 3.081773788230562 5.085982382094574 5.531694247366525
Hf 2.5240411994955347 6.534127254692249 10.567443621035917
Hf 2.054064255029727 8.905689461734626 8.733443014584255
Hf 3.491834627401584 2.9910063742955 7.420467439153192
Hf 1.6111062397972356 7.481804707090517 6.3404756081658995
Hf 1.676882426049937 5.100368850999102 8.19703090289378
