54
Energy = -472.60898247 eV
Hf 12.366919896498839 7.679096196461703 10.350789257144726
Hf 13.095617479554909 8.195793797930028 7.700655915416637
Hf 12.212472109054357 5.455347568802237 8.426378602420673
Hf 11.484250849709609 10.17003009895504 9.156937367926062
Hf 10.52707984310212 5.47271941524815 11.034357954104875
Hf 9.683704187180933 8.363966719987197 11.265673494766078
Hf 11.029856274026482 3.4335798962072546 6.383466789704097
Hf 10.742403509594565 3.1365306994251068 9.250698624989862
Hf 11.742747052100244 6.574078667614255 5.666592738553772
Hf 10.326327911308146 7.816986253407843 8.221877487209099
Hf 11.234791921787847 9.554298492044031 6.04989183875888
Hf 8.946582923437333 10.914035454213932 10.440776902055584
Hf 8.372632207815816 3.4069127254405287 10.689539878662554
Hf 8.98311041380228 5.439525759804188 5.866787478448601
Hf 8.794478229365302 5.368652061958778 8.735362436160901
Hf 7.621896912444709 6.258853507534471 11.305011687589207
Hf 9.107684382451305 11.095880469761124 7.550005333924699
Hf 10.546148769083272 4.640972011511761 3.6589161897031777
Hf 7.500549356380491 8.762813584610292 8.847229967299256
Hf 9.788692573069477 7.508352332276817 3.6158879733246114
Hf 8.411776978155602 2.56234547563862 7.7361561003928685
Hf 6.651788383804999 9.339304603109392 11.378161414817122
Hf 8.517563201760787 8.489870882983002 5.898159441518494
Hf 8.692474730451217 2.7439494650234106 4.741140315820138
Hf 6.635569174771441 11.518133750012877 9.092875707845245
Hf 6.400739536437285 6.546701696853102 7.095355953520746
Hf 6.02197359954089 4.141664679711926 9.022607589677516
Hf 6.266155460292488 3.7360218915755508 5.987044194920961
Hf 6.450148766147262 10.400432602649927 6.372472578199582
Hf 7.591992997455045 5.110918014754126 3.381885267310985
Hf 4.534624564034307 9.623786838670238 9.098331722058726
Hf 2.9015043050775717 2.726320063449889 7.968466032555639
Hf 5.202952486332169 6.881641413616598 9.885360767105777
Hf 3.727109669271219 5.268873213302952 7.3768138246938815
Hf 7.716859038975326 7.465390656849506 1.5963679413908047
Hf 3.187446311091058 4.683588946362787 10.153874084289306
Hf 7.705651933212498 9.948058381400841 3.342833232622407
Hf 5.422842159159085 3.3120212661532134 3.014184184363378
Hf 6.219596225975822 7.687719711458714 4.144870380733215
Hf 4.197278616293881 5.454079010674372 4.64412756604539
Hf 3.6570836349251024 2.509937429957546 4.981812131778534
Hf 4.048911351255032 8.410917765238295 6.429763492371468
Hf 3.803564319022788 11.304668548409074 6.7027689489347795
Hf 5.109618266596884 6.023422195653447 1.8044858767965928
Hf 1.7642668522267848 9.62805118565944 7.721384632472754
Hf 1.0417455129191233 4.948699202672358 8.312029766908159
Hf 1.4933327895035038 4.025723931095088 5.69216029100942
Hf 2.4000875800289183 7.350980178392385 9.288849223176268
Hf 5.398853232362862 8.964721317966186 1.721446068014433
Hf 4.597887162499447 10.473735062159767 3.9470355904235324
Hf 1.6057434333575349 6.999955420481339 6.104377480461619
Hf 2.6724328337864973 4.239506027215279 2.8277839958422404
Hf 1.9599491887521567 9.834405917027714 4.963679024501443
Hf 3.1694535204090037 7.840624546485956 3.267215311109624
