50
Energy = -436.35302814 eV
Hf 12.000491409007585 6.969450162946094 5.630631802608136
Hf 9.680624406893406 1.9242575443939465 8.56020351522663
Hf 10.631983948903907 7.108841361301582 8.135900703581601
Hf 10.702791324041488 4.308660466806985 6.555085964130984
Hf 9.751920626325985 4.596952741317145 9.796689670800788
Hf 11.092553975778223 5.414203362159511 3.5602326303615217
Hf 9.402577871968461 7.3652058794178155 10.596895809339912
Hf 9.324874944772402 1.354490029839475 5.948265260330773
Hf 10.633986259234865 9.45219887901674 6.289549472279692
Hf 10.490034547426566 8.263483611558982 3.477256347924486
Hf 7.5770090339852985 2.8015973568564765 10.090893728811057
Hf 7.097286849379989 5.6002891494380105 11.239651699176308
Hf 10.099669688039132 9.986513375015086 9.315560776859453
Hf 6.97323671351732 1.1297583194961842 7.77316850255696
Hf 9.12992923723988 6.50734670905152 5.427019955263709
Hf 9.110492716685048 3.548457351261054 4.1111955261213575
Hf 7.815971829536965 3.585812693793001 6.949983708392282
Hf 7.819737980209063 6.106425672977378 8.290203188989773
Hf 8.737212596343094 10.874703524571025 4.371806867793424
Hf 8.339764406085676 6.142270371640298 2.4554201772026305
Hf 7.28522174968041 9.091474160944964 11.04133689524235
Hf 6.6846328486258715 1.8454263748846689 4.753721642603747
Hf 8.01166357631907 8.907170681365765 7.973576089557097
Hf 8.985022787524631 11.59830225848105 7.183625340852282
Hf 5.462589771887839 4.324715955281506 8.915161385036978
Hf 7.11395340528334 8.605253454305895 5.187217659666323
Hf 7.1197037099905724 3.201885220251924 2.101327638847336
Hf 3.980463013733211 5.426743782710408 11.272553045787982
Hf 7.960122740468348 9.007060800414159 2.3086498326279368
Hf 6.433825244083839 4.973082027549615 4.393416722662807
Hf 4.616563041376773 3.4969935519422273 6.188527062042649
Hf 5.395830173339793 7.208192026553242 9.618158168032815
Hf 7.117899840368998 11.34629234337946 9.337042579617187
Hf 5.061668834047091 7.79791229690132 12.380100356867029
Hf 5.934345930608943 10.571431471921683 3.493222599150473
Hf 5.478158112354454 7.678587702028282 2.917836290088474
Hf 4.483865246973125 3.047468357883431 3.324427775119191
Hf 3.0269267508295354 5.722207213926618 8.553122148306027
Hf 5.179067711431474 6.546130789956014 6.635019788564141
Hf 6.183133929459769 11.3687891834828 6.299183786754533
Hf 4.8796425727704555 9.577966172780688 8.119703712209834
Hf 4.146694744534211 8.904681340728608 5.159185547349701
Hf 4.613450464553632 10.416969634331737 11.030695886069317
Hf 5.280348261227224 5.217405834408958 1.712348569493332
Hf 2.6833945205183274 7.989262059772839 10.508643845727997
Hf 4.474769952954885 12.331163098703131 8.70025444984413
Hf 3.62365381081807 5.664908546127368 4.245653554011298
Hf 2.313474417395686 8.322971501139282 7.422540996354859
Hf 3.0253416111788853 11.119045632980715 6.561244816004388
Hf 2.3318596802390363 10.562902337480113 9.236760188921506
