52
Energy = -453.784975 eV
Hf 10.819010189335996 9.899823150074079 5.243906423013932
Hf 11.146426502500727 10.34180862339581 8.372224331139645
Hf 10.072995535960281 8.825399748308886 2.5768897573187197
Hf 11.770615500234763 7.393113342925637 8.026959882456776
Hf 9.017897183185898 11.792292402883783 6.88622559919911
Hf 8.503885531921311 11.046899857819072 3.886699343186116
Hf 11.088502014904714 6.909322733953745 5.292513416860286
Hf 6.541637166898348 12.676509615932261 5.583453603248884
Hf 7.088116846051871 9.32874159005956 2.0344810261702104
Hf 8.630775117190643 10.680361598739575 9.636849316657557
Hf 8.475635092135681 7.761287878639818 4.279270304317326
Hf 9.202593592806362 8.759892507175163 7.255721763007661
Hf 9.241346284147872 4.6639719146746135 4.590488586046508
Hf 10.740355925438426 5.342120167300791 10.15203238840098
Hf 9.904948249759796 8.217102749522036 10.17770495028451
Hf 6.347607104731231 11.73020743265178 8.249073205501857
Hf 11.50145945441641 4.409125377047254 7.004948327226879
Hf 5.357040404650707 11.092074884104145 3.486111682101684
Hf 6.692955382531689 9.84998555061542 5.908622005696088
Hf 6.715226239159394 6.612659201847095 2.0032040838988383
Hf 9.3489549001436 5.874110494075161 7.496349633863933
Hf 4.084233025860806 11.219935411699952 6.5123538487090125
Hf 5.211891019238532 7.964784836647692 4.176234689704611
Hf 6.702014785198306 8.519627624361336 8.60955266236192
Hf 9.026237873884815 6.509617870695872 12.406939893953773
Hf 4.078878350484688 8.558031437205347 1.8985976776853708
Hf 1.8932296979365235 9.258622820203497 6.903892742941707
Hf 4.107637508740689 9.811571003618047 9.10309003430782
Hf 4.05202100515744 5.709335726200495 2.5662317468962565
Hf 9.76774539879191 2.180198279949215 6.289536075056506
Hf 6.946360264169871 8.265115159299171 11.402932270457999
Hf 7.767562403084933 5.87186129890234 9.841524848592101
Hf 9.334793344115171 3.0792199571410017 9.025453358472012
Hf 2.8371437023259976 9.966760564682524 4.274731090564921
Hf 7.37531635457613 3.702788628310993 6.803643256741573
Hf 8.677909750504842 3.8545848772512037 11.769850925452157
Hf 6.781215205852905 6.585696512561318 6.25799590966897
Hf 6.27723242519933 4.516461402026039 4.059103796180738
Hf 7.641336422169302 1.9948054724886373 4.560121061239263
Hf 4.19461470331359 7.850889230086876 6.891442785971018
Hf 6.300659848474363 5.440054031042356 12.220196848763953
Hf 2.2897298499447802 7.313974792911282 4.2750552933610795
Hf 4.68387161922231 6.84798911238723 9.97657947932966
Hf 6.37885608086063 3.149242702784345 10.245608888985572
Hf 7.255881351466842 1.0245638598278073 7.3323030642935025
Hf 5.02950976065198 4.767551499984306 7.986811106784574
Hf 4.928135418539361 2.2032988654896113 5.688446885859797
Hf 2.410952968709955 5.951958642023708 8.074577098764886
Hf 3.7568898215331923 5.108294123736423 5.404710284999933
Hf 3.4260365699486113 3.943491064940904 10.071795446500138
Hf 4.658887223521637 1.7749034340878524 8.542573635023441
Hf 2.6016669533356165 3.171673493874339 7.356977467357277
