54
Energy = -470.53805376 eV
Hf 2.854579573536627 5.635951448001241 8.55973982157066
Hf 5.135967400796954 3.663154192491669 7.986142308839653
Hf 0.6678461457134744 7.436026393312236 9.042664954707877
Hf 6.164707643076061 3.189416855280422 5.312842151904309
Hf 7.12339597100372 1.5212480655142904 7.471296154544237
Hf 2.814483253347616 6.396430330449352 11.345286536755724
Hf 4.344956018115057 3.877089568928799 10.877582137756285
Hf 4.000467329990668 5.379354429759475 5.556889087232972
Hf 2.9877692325281746 6.758114502511069 3.118966679788036
Hf 5.264794613268958 5.81478174296034 12.753335837071315
Hf 6.635260770553365 2.0390389822083717 10.036987445074509
Hf 1.584021941659653 6.983709444307432 6.252437674326055
Hf 1.7226175943386377 9.52022991358633 7.382084863672069
Hf 4.488303833608215 7.880833577945447 7.060309856984012
Hf 6.756513704872381 5.918330952106543 6.412717342032529
Hf 9.077200594379494 2.8275430341297283 5.832473377227204
Hf 3.8293843669485503 9.39718216843467 2.1981566278505213
Hf 3.2150750809582203 8.61465802102979 9.63830122394478
Hf 7.242299231985222 4.357046019831818 11.56323082649726
Hf 5.399263784152838 4.99474843961011 2.9290750385359563
Hf 4.724632488345809 8.407291510644013 12.015468411847266
Hf 9.73743455133023 1.9354907485172677 8.530656231248921
Hf 8.216080511404536 4.790303861131444 3.860945210005061
Hf 5.45584842622634 6.40546875860098 9.781317573481425
Hf 2.911658795569893 9.175210098723964 4.869855080185377
Hf 4.960225989175624 7.220159498826988 1.102950451578873
Hf 7.993855030538852 4.189816261904991 8.59198248873895
Hf 4.531717558803463 10.823865881420659 7.242891399049179
Hf 7.528242100943873 7.372300716643642 11.771924440826007
Hf 6.295707204536949 9.267006904866387 9.605312465863722
Hf 9.849386037265395 5.701231919258921 10.866272957738063
Hf 5.558298741430268 7.743432171437603 4.0154652013552035
Hf 11.41289731180743 4.402322801848707 8.80834196630879
Hf 7.704066714674451 6.794834429498792 1.6044444386731789
Hf 11.838132305104157 2.8741741371826808 6.579686699974104
Hf 8.43568795081859 7.292162104049896 8.76538389120206
Hf 9.903233235217645 5.798248789716842 6.485104205236042
Hf 11.359001209886316 4.4901892577695275 4.273539432893465
Hf 8.551739099221912 7.641007782332903 4.394668218816685
Hf 10.328751783172422 6.245771697593999 2.2835027416608966
Hf 7.206463778068549 9.600949790399014 6.729734187914119
Hf 6.6997885887868955 12.463487835913085 5.950604088182434
Hf 5.414829232090124 10.759026571305256 4.257798956413661
Hf 6.965000233605675 11.982540553361105 8.642374809302952
Hf 10.105147246133315 8.38674043086317 11.073896902469805
Hf 11.403847350244947 7.256381480553254 8.738713903741218
Hf 12.780650786983061 5.559735247678995 6.577470473685256
Hf 6.748760970891463 9.531071629176312 1.8941697202603494
Hf 8.40400136084037 10.70715631366441 4.263405122250671
Hf 11.582028068728974 7.426703834964775 4.521929112440711
Hf 9.123692346955648 10.186339198899443 9.116699859221923
Hf 9.745960919343654 8.938307546801743 2.220777195586344
Hf 10.09076537348358 8.92218952898088 6.581982429445373
Hf 9.26271498395239 11.832924613421923 6.854529264229729
