53
Energy = -463.64335378 eV
Hf 10.498346563887525 3.947303831090443 5.260223975262274
Hf 12.22309557002453 5.300971928547827 7.2876795288375495
Hf 11.309035136763383 6.910518887370322 4.943594347809537
Hf 11.609057023259084 8.064734337917848 7.727689039190321
Hf 8.739627482736633 2.762457354776697 3.1734023160111686
Hf 8.401833912061308 1.970311843613319 5.903736953336812
Hf 10.94674051756238 5.941604387579138 9.932777753446354
Hf 10.30328705927495 3.384931101726009 8.229253879443153
Hf 10.474432932211611 9.70682218086945 5.04987470835092
Hf 9.539110385425765 6.104882879304202 7.356341597849464
Hf 9.532414587662178 5.521315780579451 2.6302330591388077
Hf 10.205977183721265 8.378251482609604 2.564994719617106
Hf 8.93712020690764 4.000031484771474 10.748720083860617
Hf 7.597990675784124 4.672964017145569 4.858704399589893
Hf 5.969934637379525 2.2328834717600294 4.082312701029816
Hf 10.00181716637445 8.709635663904066 10.205392774110779
Hf 6.664235900226243 4.597875200206023 2.069844246276191
Hf 8.21351942270307 11.543170405890473 5.900198797714039
Hf 5.687698254770162 1.4714787450891058 6.873899270834607
Hf 7.482562389212596 7.557832755830415 1.7355014874500774
Hf 8.691551148660137 6.642504540230086 12.161076510059294
Hf 8.690531435779022 8.889266458403258 7.373200688409755
Hf 7.361358168084675 4.096095702981673 7.891200573370733
Hf 6.714925643592648 2.2274453681918125 9.648357124783317
Hf 8.063783138087482 10.334310044996679 3.2600106323199043
Hf 8.380003281611629 7.652297793482359 4.57033279094799
Hf 7.725198114941376 6.716716935995775 9.700560947836586
Hf 5.686331667939934 11.729236139053127 4.425619420873661
Hf 5.470109817981345 6.862320081770074 4.130081720132927
Hf 6.658474363351107 6.748627918989706 6.896349233609874
Hf 8.027853262054919 11.128162759032191 9.113834106793064
Hf 6.385388416197681 4.634621681783177 11.476308502355247
Hf 4.052196358105829 4.186163631954521 3.1626940853733334
Hf 7.478098461719137 9.354791321369802 11.29183259618962
Hf 4.8463690305152065 4.43565763118219 6.130757408631188
Hf 4.019563228224053 6.908933773083011 1.9567898783423163
Hf 5.906390160378719 9.439384354723092 5.809594337811624
Hf 5.90887775380782 12.028432513512564 7.445429491564289
Hf 5.443353036540805 9.446082403050676 2.521111486212988
Hf 3.1986169925374557 2.431437630732972 5.617964011172408
Hf 5.741330991108675 8.853279751348683 8.80746411140779
Hf 3.965788199706073 2.800034293220504 8.528975304825366
Hf 4.990554785983919 5.551429495843797 9.08380372088695
Hf 3.762521943861444 7.546450601488042 6.875532475720509
Hf 3.321909761838331 8.955681066559512 4.282726878843275
Hf 5.359933977812143 7.410924756516757 11.466019163534272
Hf 5.242454449366923 11.173901308326863 10.132484694429156
Hf 2.5988353678781486 6.032004460143538 4.639139345584178
Hf 2.3458323851328973 5.028375386275735 7.562251952532888
Hf 3.507055942974203 10.422121325362474 7.538952553593284
Hf 2.608984715418661 6.409305633214094 10.164931642419903
Hf 3.0719831355341447 9.14155613147316 10.071269455625647
Hf 1.368774787517829 7.996010377300478 8.032631430765102
