54
Energy = -471.29668866 eV
Hf 12.890595917722935 10.78288875034853 5.956310285380672
Hf 11.699662917192683 9.898807400275011 3.5293099157466963
Hf 7.298985740183772 12.233760724918564 4.937360599099337
Hf 9.507801843206927 11.852492373101466 10.453264168272169
Hf 5.132852652907356 10.248777869942353 4.844868029096911
Hf 10.084110078001105 11.594577026455521 5.31829616298573
Hf 8.489716869858764 12.57335920520522 7.724661020657429
Hf 10.907554994189962 10.870470194566128 8.128890451010356
Hf 13.453983290664787 8.190920476482207 4.979569200847642
Hf 13.07121051482915 8.63407137895054 7.856172935358713
Hf 8.788577775743901 9.338785088100291 3.655897622099135
Hf 6.501824717692517 12.065556748232606 9.998841458188382
Hf 10.733830553085424 8.719529870084791 5.978551282373781
Hf 3.0297010841924386 9.854704423214592 6.940515730898746
Hf 5.223597511900696 7.891296023431196 6.856995160657921
Hf 3.3408577787345117 7.904702436050955 4.59573106498827
Hf 11.114407804583156 7.0755520818534325 3.5675850968547516
Hf 5.634341987226668 11.446951930494256 7.343738469574508
Hf 6.139353019060282 8.053875788017203 3.4754012126753024
Hf 8.253736133248207 9.735225421772848 9.107975599084476
Hf 7.7896179581559855 9.848046062817184 6.291003924018341
Hf 3.633982677163235 11.616624303252364 9.30346639050577
Hf 9.713580596452127 7.150254893501123 8.384319044596737
Hf 12.260698908859224 6.062374135205847 6.442685080769003
Hf 4.154421635989397 10.607364374774477 11.955146489783088
Hf 8.312620124481473 6.2379701862516255 3.0192452072862004
Hf 8.005342779872496 7.046226169152013 5.734717083825039
Hf 12.343749782006304 6.2913930129911195 9.246402871195231
Hf 10.951053468050485 8.86193927516648 10.344579154046247
Hf 5.696836805576398 5.524714380195839 4.383156429760051
Hf 9.928755533385099 4.928597120040603 5.21398586372575
Hf 10.114870875455953 4.302387338562678 8.356345376984882
Hf 8.215388136006748 7.65674506796904 11.364955979393676
Hf 7.3721826804357855 10.47303746412748 11.984831369777046
Hf 5.424918904849559 9.076125054745317 9.96091806711119
Hf 7.243313099822751 4.038190765092192 6.871769119404413
Hf 2.4351086356730316 9.167012472448862 9.782321594062324
Hf 2.754980691912047 5.0637383123245066 4.827333758276473
Hf 7.85718547630312 3.233109142806587 4.068674339108095
Hf 2.2219671263219394 7.0260018175741585 7.057105716824538
Hf 6.834764614258908 6.355055256863239 8.991325315067007
Hf 10.422305475742096 5.923165233218087 10.983338949889298
Hf 5.8463124191998155 8.467694277092784 12.977163607820813
Hf 4.3465357841382435 4.913160909968518 7.0994686573605135
Hf 5.064925378634694 2.8694315538525346 4.978088852974765
Hf 3.8635478557236005 6.517016556387116 9.36808664401362
Hf 9.585669322232496 2.331066183735968 6.282640242287158
Hf 7.866435385662985 2.0164675562203915 8.765882946641232
Hf 3.4178648129787876 7.757796732837035 11.944608576035403
Hf 5.789471297837554 5.913150272147986 11.718828327444868
Hf 7.129979070834829 1.1666764052952947 6.010660323247453
Hf 5.045066795512639 2.026820290532879 7.64251145561711
Hf 8.096989917505029 4.365977495015446 10.729378314802918
Hf 5.509424740469769 3.7396602482713153 9.739291057344804
