50
Energy = -435.65038751 eV
Hf 8.798131181820771 5.205330590486035 12.156219127509386
Hf 8.810004890188111 3.4126142177345873 9.927139565077777
Hf 6.448037921736199 3.913079192560288 11.45500123723184
Hf 10.488073214665402 5.974116535038559 9.805084522981328
Hf 12.310662167898517 7.8817763375458645 7.836371938498787
Hf 6.203269010140833 6.723749673654145 12.362089747766278
Hf 8.893362570537356 8.010237200656938 11.717679523254102
Hf 9.234749657661057 4.590448641781874 7.409061077276484
Hf 10.96563692953373 8.891549639407307 10.078178894877622
Hf 11.42608461596025 5.801113296920039 5.6895290455477445
Hf 7.703175253532418 2.215994252060182 6.5431185101055265
Hf 7.507090518237763 6.014819200856612 9.631894867124101
Hf 9.376921538823401 3.7978939354877252 4.53263666972164
Hf 6.097072811444378 3.5503228807354517 8.536807523514824
Hf 10.653372237489148 10.461371010125301 7.816980563421532
Hf 8.864548948582904 11.093118606770567 10.474725707865018
Hf 4.063824288207946 5.400021059242356 10.816157080580528
Hf 11.275432522403896 8.643083158045295 5.208893726571059
Hf 9.591831468796906 7.5698131077734425 7.323713171494488
Hf 6.5628997450721025 7.458879043784615 6.948571294150577
Hf 10.537210061892438 5.950603603634677 2.6291376438660965
Hf 6.501904181145091 9.567769679353729 11.689927302301824
Hf 8.037828225007635 9.14444512642087 8.942542718189662
Hf 4.808326847186687 2.639754702340875 6.037024815376058
Hf 5.161144264256021 7.959393679050766 9.526619612810501
Hf 7.9689495085125985 11.895624489040022 7.753695145399686
Hf 4.362704045089019 5.806675314016761 7.62868593105414
Hf 2.314087972716434 6.9063434655034355 9.270758393589881
Hf 8.746712251602055 10.094429495505102 5.641024981485922
Hf 2.6423711411168735 3.94299260950247 8.121181122500447
Hf 6.82870378066602 2.4241332444225643 3.8539420435157927
Hf 5.839320201937621 10.250376698313847 6.473071289710246
Hf 8.996601609163953 6.84234606330089 4.530927363370319
Hf 6.775730146243492 4.7907020779814316 5.589474131510702
Hf 3.6995157641997602 8.234871648637485 11.72873843566302
Hf 5.8521648962685875 10.997437386749521 9.411440605661753
Hf 6.795735985421043 8.315206867781995 4.033247163782411
Hf 3.4465309270562887 8.627700152290748 7.0837116574097925
Hf 6.641164127047131 11.202994279962798 3.837867298438219
Hf 4.426333465486939 6.559070342147022 4.931344626489501
Hf 7.520343345958017 4.96144436320672 2.6049397753455925
Hf 8.999642430108 9.728922155921106 2.8054516832679166
Hf 1.7052192628554095 6.392928202905426 6.420744228882192
Hf 2.4971965234357185 4.130987433241206 5.139048130643221
Hf 4.216314964542403 9.305450599651415 3.8133987842078816
Hf 8.157532018546727 7.439861896242378 1.4076261330926707
Hf 4.546441124296376 4.061938166373238 3.184447286917198
Hf 6.287829241448548 9.585296914570813 1.5807031227891313
Hf 2.3999897960740233 6.266050980722448 3.257837636119936
Hf 5.154260534506221 6.907646294737568 2.0367835675365593
