52
Energy = -454.65726166 eV
Hf 8.665203708191754 5.299713611271556 12.296682791118585
Hf 8.913104140803007 3.090155553278626 10.46381417700369
Hf 6.419648203398744 3.7233721917615656 11.899908984674763
Hf 10.521841302047983 5.640980866131895 10.052909216315543
Hf 11.459894874185453 3.8867824768583303 7.731804216023189
Hf 6.0892071061821325 6.728319940724212 11.893770424081733
Hf 8.76419705372371 7.927151438747115 11.157500536360939
Hf 6.174106696990596 2.6184638503367035 9.06514345280492
Hf 12.726637045306896 6.451572186045216 8.223243659556974
Hf 7.3032046941954745 5.306262075617323 9.676151033635447
Hf 8.455993311779066 3.7160597359621725 7.584611275906253
Hf 10.887575200349202 8.60044587279074 8.948897028876107
Hf 4.298495840114577 4.9262249216471155 10.34448115453469
Hf 3.288065129767034 3.019115377443572 8.386613733968323
Hf 6.213525949913556 9.344426218403797 10.408217429237602
Hf 10.128096065938964 3.9655514324348937 5.077007174015878
Hf 4.825993297999676 2.29549464736881 6.104668999821023
Hf 12.510242729018273 5.647197432457697 5.344306219886236
Hf 7.349544477996932 3.296537125507111 4.991458201888055
Hf 7.880452571457461 7.856525061247826 8.333299393251599
Hf 4.7590690393604405 7.4848420759083 8.580625367043883
Hf 10.118655508451676 6.290116629136288 7.253930270159602
Hf 12.162104818089988 8.572440215904239 6.156001241828013
Hf 3.148196097998806 7.707947184299486 10.749653157071453
Hf 5.2741958147459105 4.769106238693795 7.311717907503838
Hf 8.62394042800788 10.530660261240076 9.445021067553817
Hf 2.6499624146201564 4.25415132711072 5.819872584652807
Hf 9.983625658902472 7.196067647451054 4.652671841837462
Hf 10.99451629950286 5.384198772087841 2.7148088782167217
Hf 9.383906737084288 9.812057027462773 6.511610095252282
Hf 7.226157660418436 6.185222392636565 5.773385849505207
Hf 6.200878543509667 11.990934665187497 9.254847426372667
Hf 12.362296901759695 7.830877756320334 3.285580728776441
Hf 6.2849534173683095 9.93100935068915 7.056665220472974
Hf 7.989918678140829 5.579858731281504 3.0698469365035836
Hf 8.001396184000207 12.46422811512338 7.259459776323927
Hf 2.220355123081176 5.767292697421101 8.48596195315267
Hf 5.1359212596384065 4.551043171638089 4.007822958600922
Hf 3.8329881797371703 10.432171861427625 9.025884960828531
Hf 10.458386626182715 9.937596441084636 3.8860699467881115
Hf 4.430076256026147 7.442636302108655 5.600409585025768
Hf 7.594745343152718 8.744167170859829 4.1394106702790054
Hf 1.8811991141222377 8.584183451904483 8.34501317753371
Hf 9.741850958227836 7.8806487269284755 1.9718796943843238
Hf 2.8147945323817876 6.019300650198549 3.5497368743664
Hf 7.510500491269309 11.51840141874456 4.781782219429925
Hf 5.092888753522631 12.33733266482383 6.4971771801361635
Hf 5.264321759724988 7.411950604115727 2.8106087314050683
Hf 1.5222375153106196 7.155684961221139 5.879036808961315
Hf 5.017669033802181 10.237631271802906 4.17302088567138
Hf 2.9570602718683503 10.072323784621473 6.223144803005784
Hf 2.6744344283075563 8.718622740982722 3.6747623770494577
