52
Energy = -454.51402617 eV
Hf 11.606662706435145 6.378709740971304 4.80656282258257
Hf 9.77943179253691 5.115822867837928 2.751958207177379
Hf 10.411172658831783 3.765845511627336 5.398375868952354
Hf 10.300256803969775 8.105316183383628 3.091945365897131
Hf 7.840095643968749 7.237311084317272 1.6587523757292406
Hf 11.307583941384175 8.899631506515954 8.743632809542415
Hf 10.870447075830104 6.044100990217314 7.720968391454136
Hf 8.416274509763854 2.680603605296494 3.6606750010493125
Hf 10.504041003375928 2.9159672794167384 8.187905936632133
Hf 10.222006917736913 8.843650505862204 6.068437315852206
Hf 10.76792672174654 7.136578535287958 10.635987695456668
Hf 8.770423706142076 6.590273921444259 5.029516036260765
Hf 6.751662506129846 4.431177028564723 2.147056130901775
Hf 8.10878664064817 1.9124913965139128 6.418366931934173
Hf 9.153028057213934 9.635056311923247 10.81836562750022
Hf 5.040031176187051 6.491320138176688 1.1815123420943383
Hf 7.842966437008735 9.407625065512121 3.8156021207830437
Hf 5.5632282188533715 9.200920995900601 1.9639676378571658
Hf 9.519504013580926 11.152994775626555 8.315887554754543
Hf 5.781543326840174 7.0730970956209 3.8951776073473376
Hf 8.601483334634358 7.810199884704943 8.72982783143731
Hf 8.418515737151868 4.5137994888383135 7.520166899043143
Hf 9.667717794589676 4.537862916581983 10.520249030115444
Hf 9.264046248840753 11.554227757072816 5.33915354230654
Hf 6.640145213376094 4.481296516526547 5.187455084948242
Hf 7.847474943699816 2.444583233556848 9.5976155688108
Hf 7.329286114423856 3.96598313589631 12.101750764978458
Hf 5.469415724699758 2.3026618112258497 4.343697359721237
Hf 5.677203387072952 2.9312954292937223 7.570779973924136
Hf 6.51587926396231 11.880278742049498 4.676943349229506
Hf 6.916309439141994 5.453509876138695 9.742130435422627
Hf 7.299797082721714 9.858128447954524 6.663315072357584
Hf 6.456530026679397 6.779014421502279 6.805565498921161
Hf 7.410091987693824 12.694977819040552 7.264487003042541
Hf 3.8601397494761653 4.837748442958575 3.229456771706243
Hf 3.196331201359347 7.817482686872253 2.9102093040669326
Hf 5.014799849674018 3.2840349648926024 10.461701741915526
Hf 8.196777341937992 6.877262488211484 11.929065206133295
Hf 6.716925799394717 11.075983571097531 9.449331018614721
Hf 4.663625806940883 9.61766651920605 4.8166406036808125
Hf 6.182186386651585 8.404792588063106 10.557545356327418
Hf 4.243942854263713 5.5927356755223325 8.596144303573158
Hf 5.000051819203165 5.739979967837639 11.896490419083591
Hf 3.7158995474924956 4.111057343530167 5.965785091374957
Hf 4.730857036745727 8.547476831778763 7.869865868302852
Hf 4.734360580466486 11.573734583802548 7.1305398234728425
Hf 3.2946241933130835 6.97419503061794 5.753355797576448
Hf 2.413831186393536 5.088812953776023 10.574139415752846
Hf 2.424279985099217 9.76991802630863 6.677991561526797
Hf 3.341304835864629 7.712052269273972 10.874049212543808
Hf 3.369306763068748 10.19252833377862 9.503034541779062
Hf 1.9692652406203883 7.623237267295933 8.476892379224356
