53
Energy = -461.27631867 eV
Hf 7.388901636922731 6.084228457171914 2.229688031600564
Hf 7.51327379032366 3.317485617909413 3.3555563046805212
Hf 10.087802232930587 5.14845829514964 3.257691028099852
Hf 4.860464664019867 4.798770443818975 3.2797515360132437
Hf 5.11286787413006 2.3241943143570674 4.989868771982562
Hf 12.416538998597687 6.959694939445463 2.9784582399815873
Hf 7.810570171337595 1.8503758040196518 5.8134852930729615
Hf 4.684382243902719 7.088646333364861 1.5824798174942096
Hf 9.811291755449481 7.897538118915478 2.296372825465449
Hf 9.637753965696685 4.124552211999336 6.057442452574306
Hf 8.462186123990074 7.054150379552245 4.852460161253835
Hf 3.485868076932693 5.047106069173694 5.801807528574312
Hf 2.743077216882237 7.171563706960231 3.977411986411842
Hf 11.357905966038835 6.4302239746597385 5.628972115652384
Hf 5.6219990598113005 1.378305713756401 7.777008994988584
Hf 3.863843643752187 9.464684562975162 2.701921701175979
Hf 8.072963962006341 3.199627384254463 8.42519524572163
Hf 6.7233674327658175 4.610444279361796 5.747973259804007
Hf 11.200199544127647 5.790946043533184 8.32525980569731
Hf 6.744778774541192 9.06368441439262 1.9799840712252543
Hf 11.170751284731377 9.051383738097979 4.659982983939233
Hf 2.983469354251402 2.494982228692248 6.905242627361421
Hf 8.181020191416096 6.038886172715371 7.852893709467834
Hf 5.076395239894826 4.1961591166027175 8.323366831588853
Hf 9.54959165478517 8.557658471154646 7.185785068554049
Hf 5.5808048954240865 7.6424188986067545 4.236022158922296
Hf 6.081188586208561 2.572126336649165 10.503071975945339
Hf 12.179075510367321 8.628203547840585 7.7718508385958796
Hf 9.323710266630995 5.117759447150303 10.446743161985115
Hf 8.704841845872783 10.21753011763051 3.9854892120396856
Hf 10.199218465093752 11.249928938057382 6.488673460845092
Hf 3.601952083595875 9.788979515939275 5.53956025888566
Hf 5.792670995112178 11.174271262839218 3.9766311530683804
Hf 5.352977948521075 6.995696683938622 7.18527478320274
Hf 2.264724936179617 4.808225123857473 8.65353082560156
Hf 6.528458431665895 5.615101742213105 10.54950669096651
Hf 6.833919699304717 9.604626902463606 6.3014977300142725
Hf 10.378565874047053 7.853727603288981 10.14456625038404
Hf 2.55167986848014 7.644363445678972 7.274714969895764
Hf 3.3694042659952768 2.1751957473148824 9.554274766042434
Hf 7.366014201439517 8.387972088888322 9.234446093561289
Hf 10.538559506327243 10.535561812599882 9.229142119916121
Hf 7.73872240054907 12.384050335798305 5.695361964000411
Hf 8.056200644447243 7.464502786104873 12.167282524126628
Hf 3.9476849048900604 4.404417541475776 11.107690376308108
Hf 5.2363248630305455 11.949650294560527 6.767421959306287
Hf 4.597902995015693 9.568884612272354 8.324608522820517
Hf 3.9788258998851593 7.070653924887133 9.926948136217833
Hf 8.517076445428147 10.055226847516385 11.341541608733591
Hf 5.291798658045587 6.9612217713383355 12.850353253530256
Hf 7.799311143488303 11.262941673571964 8.467555612248423
Hf 5.682096604705666 9.271385165115985 11.314966286095721
Hf 6.756251965544346 9.302000091407809 13.80902291162765
