50
Energy = -433.6777098 eV
Hf 10.540754498469594 6.28342152272379 3.6328268504693613
Hf 12.436202635779471 7.561049440482061 8.865435955532405
Hf 10.93359479224538 7.505449171689103 6.26843820547717
Hf 13.049788763066216 5.5125366765181605 10.639477725645984
Hf 10.027088595018146 9.003062118097905 3.8413888343476694
Hf 9.755271385679102 4.696145003766046 5.9848280051227585
Hf 10.269839226648811 9.453536988076655 9.15594352233083
Hf 11.822217412894908 4.760428529753064 8.16633743550593
Hf 8.055383267825725 7.140156405948245 2.2610021328252494
Hf 8.980016504516827 9.993249652490817 6.4997390075344805
Hf 8.355936494742652 4.437225242808158 3.475840713623007
Hf 10.808812522956048 7.3973936838863406 11.18441570554129
Hf 8.208560133816526 1.9497998323804808 5.569740588212734
Hf 7.996891023580737 12.074413000933713 4.424156055477069
Hf 8.207120825762056 7.152584195338388 5.243196379394928
Hf 9.521998895169533 6.442021838063713 8.517193987209824
Hf 8.557989859985879 9.296684889643265 11.32194186383753
Hf 10.329167347818624 4.5504572837606565 10.721617496174394
Hf 7.926861501613722 6.59106543746227 11.005851258068079
Hf 7.600369561790719 9.891139306987174 2.7902346143741013
Hf 7.550201512421255 10.880511726414683 9.31253680694239
Hf 7.220308874498382 8.284694540806465 8.237636447419955
Hf 6.7677558341956985 4.135618628900325 6.1100673958678975
Hf 5.631836441166869 13.766341254468182 4.816286008329361
Hf 8.963500858478595 3.345972055531331 8.447624091668457
Hf 7.099929810054841 3.6952808293951787 11.033898529480867
Hf 5.356624527093219 11.358295026875478 3.425263405768624
Hf 6.200619152863038 9.5983298381636 5.610873878026818
Hf 6.223654205582684 2.628382937058824 3.515005411455337
Hf 6.64654140202448 12.178429245353094 6.905417746697488
Hf 5.6245601754561765 5.276225874510322 2.494624635246288
Hf 5.801049079910136 8.907272125639352 10.775220528871866
Hf 5.187022559439986 6.363654969135149 5.192173153975895
Hf 4.816212686839115 6.118032264670308 11.193350107255434
Hf 6.281737700601826 2.2915951528992737 8.449464761517222
Hf 6.587242029760974 5.219888540857425 8.808566240997848
Hf 4.573779943399639 10.053757126524616 8.273180404022497
Hf 5.212662833810215 1.6617017879227804 5.854405592969519
Hf 4.444168328446147 7.1581459011347865 8.089883946233838
Hf 5.261647491711293 8.253340254111496 2.875192920446923
Hf 3.9578346088099936 11.654808148482942 5.9581669955834995
Hf 3.7315932770678963 3.76988384507817 4.359711708216984
Hf 4.341984373669458 3.60218525351198 10.155331211910097
Hf 3.0955113202661537 6.432049191814716 3.3303089128426757
Hf 3.0389969182749135 8.3040876866977 10.387994387974718
Hf 3.9152167901756205 3.8086959390880657 7.365285829891387
Hf 3.443046422605444 8.68482505376409 5.424162368201498
Hf 2.394481029413474 5.705422452557474 9.360972077040765
Hf 2.4057351806437923 6.005193038064282 6.19995909075902
Hf 1.9227880860251014 8.429648596984578 7.894941905172442
