54
Energy = -469.71743529 eV
Hf 3.9775044488947784 5.954374259986593 9.816866465956808
Hf 4.724524676503534 2.627251235160748 4.4327125088588
Hf 4.352343975975507 8.447958512300552 11.644841438415805
Hf 4.18620755951422 4.000667537795407 7.2957091133206795
Hf 6.075998056503095 3.5186150220721033 9.618502070449372
Hf 6.505676247710175 2.040997615262291 7.044708441813016
Hf 3.4163635955213674 7.016248942272376 7.108665157108648
Hf 6.5403655951731405 6.2674308776540935 11.07426809812347
Hf 3.8878187614812996 5.273012066325227 4.671777475658732
Hf 7.362517665089851 8.932449593002048 12.41061029621533
Hf 2.4907550093897477 8.437430524429217 9.509191857728693
Hf 5.610822600638021 1.8762579004079312 1.879703060996322
Hf 8.531903710733303 2.124868474201013 8.92430049330389
Hf 8.802779804351445 4.127498205862207 10.80517069632125
Hf 6.227112163072206 6.022789814507492 8.033315827913153
Hf 3.331044121348078 8.326978040963956 4.502976601694024
Hf 3.803522600519892 4.031633776856705 2.067782211889882
Hf 9.232787252210807 6.694513163337915 12.699581909818948
Hf 6.500859100708043 4.487219716952565 2.685081141434425
Hf 3.3183712380838943 11.180144619818453 4.516701693509028
Hf 5.4274108138659045 8.442144914971735 9.137901773117358
Hf 9.73758121504546 9.224437033454064 13.987974845036629
Hf 5.0224471145356455 6.90243163190471 2.4833172001969053
Hf 6.9881684985921915 4.502892726038754 5.620448532342532
Hf 2.2487061475305605 9.938081541605541 7.01800166646642
Hf 7.4543523474940905 2.057119175305534 4.204023893530922
Hf 6.130599031448777 7.376610020205128 5.155222139514375
Hf 9.52234800671585 2.5910821915709117 6.303525189665751
Hf 5.138789659487901 9.94323906342334 6.444945082446613
Hf 8.982256652347703 5.152113485647409 8.009631321107156
Hf 5.546901976668834 9.774040173990809 3.4321399525841794
Hf 3.8929185721337984 10.983252161401966 9.43606577505387
Hf 8.711660778676105 7.791468044608237 9.951957784771619
Hf 9.365203978522255 4.2494960995872235 3.789177875203392
Hf 3.627164273515011 12.469753389547163 6.929550676675817
Hf 10.984478466483255 3.426095332384973 8.835161079433883
Hf 9.36510706541929 10.881545788958643 11.776896320119532
Hf 8.149318369515075 7.181962962610101 2.859367531687128
Hf 10.91309626034284 5.939326096943524 10.425941227103378
Hf 8.021513789751658 9.057296285346505 7.4575982891044745
Hf 9.367137553428423 6.998682289452674 5.47381368312573
Hf 11.095599686418012 8.622342013434734 11.552405728378885
Hf 6.001189982276218 12.379380090524005 5.1561134198978165
Hf 7.269786204671184 10.622623603308824 9.860772506591074
Hf 8.029179665502634 9.784853626950442 4.750730776271055
Hf 11.363063848197603 4.991567843764712 6.099934385833099
Hf 6.054574778641256 12.414489839271422 8.06839511537173
Hf 11.046717109903462 7.474689992238119 7.967590975708143
Hf 10.264701734557045 10.239412549875686 9.036914157449658
Hf 11.116084298319498 6.264354105073679 3.254410922958928
Hf 10.48855356714963 8.936541668730081 3.475633081567522
Hf 10.681487590907304 9.966303920098472 6.149246379502098
Hf 8.58697445962609 11.852353273663336 7.0966088247528365
Hf 12.299662594543873 7.716340746122393 5.361714755520487
