55
Energy = -476.7598704 eV
Hf 8.623743754980941 8.981952748930553 8.55185382633635
Hf 3.7154089114500315 4.309411050343235 7.298102162457091
Hf 8.50957164863784 4.223418250269035 11.249356569932663
Hf 3.578415001500853 8.8354332055434 10.130398158644022
Hf 8.673772449483875 7.411877199888604 5.7991449061634315
Hf 8.563894539873278 7.414974607211117 11.135792791371422
Hf 8.685433712145226 11.94600946823779 8.52978035666442
Hf 8.700569455053113 10.42339969698665 5.918919798122988
Hf 10.972657210644408 11.907908559312546 10.448331232491487
Hf 8.633207194875853 5.845773228343657 8.555349248354082
Hf 8.714815110290882 4.401174224135564 5.926577638101527
Hf 6.00648180011386 8.842440469339262 11.907134120366878
Hf 3.584909683150915 5.97639128366056 10.132204340938047
Hf 11.160878247429936 8.842736093128524 4.939255242570365
Hf 3.6076602184237747 7.408129136194214 12.673441126541949
Hf 8.708847229499614 2.88321608197145 8.540525072771217
Hf 11.168628184942389 5.993690412474922 4.941929528883591
Hf 11.049778862858254 5.807566965809957 10.404241071796974
Hf 6.077268319504004 7.409638260592997 9.232806301595087
Hf 3.6925117894538926 8.995454404494671 4.677396492420543
Hf 10.994072057744816 2.9360928961395656 10.460058060025707
Hf 6.065879170223585 10.418317948351167 9.185769958280508
Hf 3.700389314921278 5.805300468299636 4.683583786216896
Hf 8.495864270065429 10.609884126194483 11.240807621081963
Hf 6.081740495404444 4.401091360589284 9.19339895730736
Hf 6.244928951384451 7.403747020539666 3.9505317866717684
Hf 11.040219810679545 9.03632071184612 10.400567190325162
Hf 11.03011103017129 7.419151157118266 7.605638194844036
Hf 11.155213632270872 7.415169697645134 2.290986763411495
Hf 3.885895906360907 7.397945855791585 2.091546187533255
Hf 11.064772952796208 10.523984515444628 7.791441963778091
Hf 6.190647853525146 10.52138911426603 3.885468536635075
Hf 3.8798420630996624 10.476469378289348 2.1868914016196674
Hf 11.081632445931023 4.314036206348768 7.798573847152134
Hf 3.748882210185812 11.883645225893696 4.6102708817931966
Hf 3.8945316167472126 4.320385402399415 2.196365950716049
Hf 6.143806524657747 8.962544244091026 6.546534720612378
Hf 6.206616547294403 4.2872927358715405 3.8935300580989494
Hf 6.313078322001554 8.88303340384808 1.338094049386777
Hf 6.054661716466215 11.937872193836816 6.547704762812341
Hf 3.771034105543101 2.9172629402788965 4.62268391189102
Hf 6.320176462850292 5.92194979984734 1.3411066981495428
Hf 6.15163509604373 5.852816984382985 6.551093927938711
Hf 8.80597295063539 8.9140277850095 3.095568663700271
Hf 8.910597421782295 7.407986253393387 0.6248181309256842
Hf 6.076452188785658 2.8767879168407924 6.559048173655508
Hf 8.813688284096298 5.905478147296514 3.098147233397706
Hf 10.939340926656957 7.425212374367842 13.028690506768747
Hf 3.6922350717527395 7.404042917046293 7.456634872440923
Hf 6.011085487617163 5.980080066860125 11.910308422396916
Hf 10.8183794021198 10.475637019948564 12.876754438191277
Hf 3.701012751012026 10.497535683465227 7.288624359940505
Hf 8.532238001937388 8.89121120645128 13.688522887480337
Hf 10.830091725500717 4.374930499624992 12.88537507633827
Hf 8.535901573891486 5.951853061982247 13.693399698428193
