50
Energy = -435.41210543 eV
Hf 4.119760295079564 10.093509293924011 4.635107343242172
Hf 3.8761036962280198 10.93013456099617 7.55776659166459
Hf 5.40922359563801 13.077838543519213 5.59062412232993
Hf 6.1943757742957475 11.3475641950682 3.31992551798356
Hf 3.2966454571735073 8.117292539623667 6.645246578063852
Hf 3.1215559710540313 8.899304874646502 9.453398723576006
Hf 3.998016638801761 6.874201591246527 4.151534469823979
Hf 4.136235532165456 6.116700745024483 8.959409700461348
Hf 5.901388022314103 12.732711001112612 8.463200091502948
Hf 8.162244201451795 12.830697286405378 4.447946065405054
Hf 6.260435103578314 8.580059820030648 2.6702583232201853
Hf 6.352098454339081 8.169502605057012 5.362776191212992
Hf 4.292131273863721 3.8825315558355595 4.543317496836424
Hf 2.6858997239704268 5.100863895000382 6.555797162277217
Hf 6.863555418900842 10.889037763973167 6.337133963462706
Hf 4.977575525714635 7.997616692871219 11.367900008187094
Hf 8.138159985653676 13.328483588162571 7.1457172485637335
Hf 5.539322715345861 5.577713026591448 6.409950141879567
Hf 8.701108922884833 9.984797415179582 3.774827267954963
Hf 5.830201691699476 8.657131087487336 8.361619040494151
Hf 3.72524561587363 5.253263699903197 11.609761750520603
Hf 5.308422854199188 10.672104865215505 10.270670095552761
Hf 6.498930730742866 5.529006924950052 3.5036420884709063
Hf 2.7640391458341216 3.730471659123842 9.399831932684233
Hf 7.275829732529477 5.8988028895673255 8.907320013076706
Hf 8.818641709455475 8.416312954455941 7.074709196894693
Hf 7.746497293917896 8.298664739436397 10.615074204637398
Hf 8.418696161146624 10.833118545501451 8.893306405529174
Hf 9.855817179927634 11.13952465027774 6.202365986334278
Hf 8.52411948953293 5.383965004158114 6.202673648523798
Hf 7.0572952304849546 3.0353622859692404 4.966272714269223
Hf 8.834480540910397 7.203964510559177 3.885083236243086
Hf 9.328901023034266 4.378436065492489 3.6267425515557776
Hf 5.551371588588295 3.5443057959930244 10.122130271514973
Hf 4.65162873399591 2.996210763663116 7.348852010146751
Hf 6.602545777256302 5.758711665304451 11.789652849271421
Hf 10.397125628122474 6.648835753644302 8.784278178603463
Hf 11.376725154438148 5.4871074147852115 5.778832957207597
Hf 9.976454710981852 6.744168843422615 11.806646015008978
Hf 10.35886210217142 9.244361832909483 10.664543386115673
Hf 11.463364171006763 9.649336616552823 8.191176911806405
Hf 7.672798322564698 2.9813062582685785 7.91662300277202
Hf 11.161021783329199 8.51194350486394 5.359275591927634
Hf 9.821531551295246 2.809381973580333 5.843581004120891
Hf 8.81427541898923 4.201567319177833 10.726129697915463
Hf 11.606328118342468 4.731176061404587 10.769311703984496
Hf 12.640675761549346 7.445298695814808 10.195070740014096
Hf 12.89346061553275 5.051046598874031 8.323973848473672
Hf 12.981716373858115 7.507413207693596 7.246439549406911
Hf 10.440811751229624 3.520304883751105 8.471584470451894
