50
Energy = -435.66339327 eV
Hf 11.218489403907695 9.013520963552416 9.923457878328158
Hf 8.63130847363728 11.500525995633717 8.942124480619652
Hf 12.398418360259964 8.254925573030597 6.532878297009835
Hf 8.05297674995015 8.96414425394448 10.39347133276443
Hf 6.32062682719154 12.510998166178927 7.5483111377505745
Hf 11.388975766464501 6.3181532354611205 8.483774830450953
Hf 8.345075356620953 11.419725261808576 5.81907915169313
Hf 9.817382674636336 6.739138816287646 10.726017046117422
Hf 5.81885281533661 11.003585620941974 10.037272111101883
Hf 9.734115429242921 8.996479720538531 7.667452963650758
Hf 10.078840253495631 6.661992398785008 5.796853064768615
Hf 6.9603365632786245 9.66734838998368 7.679521510687508
Hf 3.1363581408712413 10.03442154371246 10.25933700742137
Hf 4.70976330577342 8.314282978206194 12.079448479848903
Hf 5.4380373876780785 11.140542682402387 5.159533183268991
Hf 3.683773724258297 11.390595610772401 7.76518851112948
Hf 7.078696546013114 6.121164270454727 11.00624220968652
Hf 7.478129329698812 8.398402263566178 5.109735167081787
Hf 9.132552216204536 4.160246103495178 9.37110712360836
Hf 12.632535404070637 5.402008123834619 5.922243430448949
Hf 7.635630209630023 10.04173954550378 3.0412769468232828
Hf 10.307700781968725 9.39596380974704 4.561482030216871
Hf 12.108381551121528 7.193559507012612 3.8188489704358477
Hf 5.162517304372019 7.791615749649478 9.51927242619697
Hf 8.055420072981015 6.6636603087986845 8.197934246627247
Hf 4.390381502117167 8.727914676754315 6.938058006563417
Hf 4.17105525039057 5.404693438056131 10.981475503335476
Hf 9.328939766222778 7.265964996758433 2.86044937354249
Hf 2.3403221069392033 7.474838165299036 10.546404975795781
Hf 5.62534521092264 4.98258377175713 8.676814281861185
Hf 10.377451420883501 3.6755302158635783 6.623260984530695
Hf 6.59265151449505 2.4853550156230924 9.568258763011768
Hf 2.613990938877435 10.0563906968648 5.344937951723809
Hf 10.652066831083323 4.574787196335591 3.809528301562748
Hf 1.7479897576157772 8.837164442806676 7.9455366789697
Hf 5.489324489831948 6.3297756325407954 6.043871887191131
Hf 7.396812650106213 3.869076670424234 6.939194117051622
Hf 7.770743345377955 5.273817822996141 4.495375982982284
Hf 8.640224285488342 1.5726199293269483 7.780465666700795
Hf 4.625069022791989 8.443654777353839 3.918712661953687
Hf 6.657704825113197 7.219109508054326 2.265906501647868
Hf 2.9302272995408543 5.851941966263444 8.1530914632575
Hf 3.726952378323344 2.942820964996262 8.81188615751063
Hf 2.6043486416420514 7.04117532832612 5.486735105333701
Hf 8.557806041244515 2.32981890287819 4.736167358591619
Hf 7.498711644202138 4.331416015507971 2.114091185473624
Hf 3.8930768669984794 3.853789769168434 6.038973861150396
Hf 4.835221142890064 5.331334625335838 3.2754009290870423
Hf 5.679529303259998 1.576108598663776 6.948814062443339
Hf 5.872078139798091 2.891032177806057 4.237393160073648
