52
Energy = -453.71510628 eV
Hf 11.227318588468888 9.443521789251394 8.100237271035471
Hf 9.675482166164308 10.937151074248971 10.020790157486779
Hf 11.435712025602301 6.312166795493958 8.2323977413242
Hf 10.101376549811025 8.111859141254007 10.491107856141333
Hf 10.015933917504395 12.101658115978495 7.317578162457244
Hf 11.34044221267975 10.145685632514379 5.361524133900816
Hf 10.527863969189792 5.381347364749754 10.958940763649313
Hf 7.319954671174557 11.869811004279988 8.749840262388055
Hf 8.168205737401575 9.015781011121536 8.557905824471284
Hf 9.384028541995114 7.579527208165512 6.27944853929797
Hf 7.286275088127709 9.485705861185851 11.201646946309916
Hf 9.60324703739941 12.084695678803467 4.284135748986441
Hf 11.507420433019437 7.252690827601057 4.78142040378282
Hf 7.429969001705825 12.924380931341375 5.998358294326673
Hf 10.471655230435964 3.527132109556713 8.885948544551809
Hf 9.48286802100694 9.182904365145967 3.363508601889424
Hf 8.01001813815802 6.5173689202404965 11.813121620227893
Hf 8.314457702876759 10.22789028626619 5.908146765554509
Hf 5.127607180304106 10.113529148271075 9.527775604769383
Hf 8.16969307010723 3.7860055021809926 10.8949455740361
Hf 6.634559358499707 8.429179077923726 4.297971971356032
Hf 10.041854070100074 4.713893516432305 6.192398204994576
Hf 8.61694194570716 5.708694250432711 8.70949452668079
Hf 6.84417641183262 11.21302645490165 3.7225476030246205
Hf 8.759851745719732 6.200513715419846 3.6384391674109318
Hf 5.992637305381795 7.882798120700008 6.9693022564506455
Hf 7.20062254832669 5.169523209683729 6.100057354047836
Hf 6.846820319114114 7.3439925648611375 1.6022629292556054
Hf 5.973707372626051 7.064822197834431 9.612364480501574
Hf 6.174131497619873 1.9134734285191675 10.407338323582303
Hf 7.886051647097433 2.7772858588249574 7.68209196283484
Hf 4.155903815745318 7.991603072583144 11.257233966796775
Hf 5.505620570354954 10.700752337122399 6.587069051941341
Hf 7.876352654354994 3.218825458786309 4.085696087364819
Hf 7.189943707384431 4.600180215719758 1.6551097317127663
Hf 5.574546840708708 4.0820895672735285 8.578161106042185
Hf 5.379259202839668 4.725925171796461 11.458160134036692
Hf 4.369730101682477 8.343319611503276 2.3711692895876735
Hf 3.3508892035804387 8.388260565404561 8.267000169653016
Hf 5.478587155055862 5.8044063942792326 3.7797498850491746
Hf 3.607135979931623 8.572805214635753 5.287831060929832
Hf 4.127812939476915 5.817344108928549 6.386144437342865
Hf 3.5148913253753893 2.819601500863527 10.128005872407703
Hf 3.193342609480171 5.688959297374171 9.320055355038857
Hf 5.249960674131446 2.907856062391641 5.6517074967815475
Hf 4.889261188070072 1.3111317697786284 8.066352021066598
Hf 4.283729505623294 5.446946008527198 1.3869110138156104
Hf 5.256166317811784 2.9746177787505546 2.7915688612082055
Hf 2.4870035840397753 6.6717726472921015 3.5632833149358616
Hf 2.873390845949999 3.4085456728314063 7.337653527539668
Hf 1.5859365829537453 6.34538035147405 6.459590269588862
Hf 2.9538019406411733 4.077401524026075 4.1403151271201875
