52
Energy = -452.14943039 eV
Hf 6.641891449452872 4.094721051881066 12.282161771811007
Hf 1.5306821908844817 6.89393364683302 6.06257320478555
Hf 6.440882418851648 6.873504614686014 12.436425200114677
Hf 5.5228210920796865 5.530629343350254 9.965444284266594
Hf 3.185285183045291 5.839921251994644 8.164552198640113
Hf 2.7317187014928668 8.91761135641878 7.7570747647242
Hf 7.104977818325867 8.289381562048069 9.873125319335752
Hf 5.821006106741141 9.674630826822051 12.045781032249081
Hf 6.960454043370568 2.934140173837901 9.472295040425369
Hf 2.4669917112165676 4.343715398034236 5.73499884277798
Hf 8.985664304626086 2.9295983312324316 11.529099001233135
Hf 2.43169769553687 6.206720049704822 3.4343099204928347
Hf 4.754839040543166 10.546631991947901 9.547879220320995
Hf 9.084620706847627 5.540217534019728 13.168941777760761
Hf 4.029525110142201 7.902566479531761 10.32360383425515
Hf 4.376590890509997 8.216080367141474 2.5710674133741716
Hf 8.464874406750782 5.586760919170945 10.400855908251343
Hf 10.783888946400715 7.3574760702373565 11.21054221338196
Hf 5.37938457463652 7.967097793363548 7.584287167715709
Hf 5.836430935329638 9.508288301435677 4.729765206461883
Hf 8.58394620451414 8.814807686971195 12.36895786874874
Hf 4.587899102064609 6.362533201982959 5.279924878970496
Hf 9.775421428752574 3.3036920310151565 8.79992729970649
Hf 7.542881595543823 11.370531908459279 10.437479304050505
Hf 11.143372972797064 4.573531428096236 11.461084814400895
Hf 5.014871256782749 3.7059578547951717 6.85020814219904
Hf 2.8502449772646576 8.94247762497914 4.734377554330159
Hf 7.268681191893719 5.384118172452849 7.514220306163055
Hf 6.2964018397946315 12.648468796750487 8.240480253739383
Hf 11.580014923324057 5.6813382674451915 8.945309205675846
Hf 9.79558885979447 9.760184838737242 9.619733354877036
Hf 7.867406393423964 2.6615657966648727 6.705549868453034
Hf 9.541832492576434 7.477059317828916 7.725352710677451
Hf 7.533646139298937 10.01650493861215 7.375971539618743
Hf 4.410116052364815 3.81743371927455 3.808155141951627
Hf 12.358545795066291 8.462544832921964 8.576155276380696
Hf 9.097891263205149 12.283550970121073 8.008409741369539
Hf 4.538946218944345 11.057251500729201 6.713002903226811
Hf 7.711952062690157 7.2874614418101915 5.013158678113535
Hf 7.128527955311764 4.493174331424855 4.725175409432795
Hf 9.837942466553638 5.057063325032537 6.110858792897068
Hf 12.38548249397543 6.585443291426881 6.526113500746416
Hf 7.110222430979229 12.206623586109224 5.611028680233813
Hf 10.71183711969834 10.030829020556585 6.6625321997465035
Hf 8.779650716058137 10.044896444390176 4.28874659768214
Hf 10.825100976758756 7.775554007070558 4.553546388922525
Hf 6.141603062652769 5.985271942196523 2.60174141804273
Hf 13.257766461806725 9.099136294848305 5.697802857125639
Hf 9.033461702078037 6.270298738782388 2.6040562165930563
Hf 7.309922088626533 8.55566606092259 2.2247795214869828
Hf 11.536817821122794 10.528969225885803 3.956457772277677
Hf 10.220579766437783 8.906429392021897 1.9794641052294724
