53
Energy = -460.13547372 eV
Hf 7.911591212873595 1.0851484733515833 7.290636182639361
Hf 5.40872553085412 1.3755732827235754 5.953176205549413
Hf 5.548194710569558 1.0906341203714034 8.775755855008006
Hf 7.848445223654538 3.1333668001695103 5.091861214642974
Hf 9.918481771099318 3.0503490538751374 7.880129352237584
Hf 7.823514028725584 2.5638969829770772 9.88212098476041
Hf 9.652938250232022 5.076661711012296 9.870890820371336
Hf 6.355407277649467 3.6111238478694254 7.587386674405651
Hf 11.328445790151688 5.73055853282581 7.558405380868914
Hf 9.32189143220514 3.9090137384100387 2.691185131388531
Hf 10.62014760834212 3.7938389099884042 5.268666572455954
Hf 4.318689365758297 3.8532487803517643 4.919906897418804
Hf 3.5566900953996963 2.9712746041144587 7.603580898680002
Hf 11.917952161178368 6.668852529024166 10.384059445384622
Hf 8.433141230835103 6.3251361390641545 1.5370967895486884
Hf 9.11120143118472 6.219890733290514 4.313086373027934
Hf 10.875445758369038 8.266840908198084 5.886125996100012
Hf 4.952361657070391 3.4646384992923585 10.227870487014506
Hf 12.653259923668232 8.213001063751133 8.226912182128851
Hf 8.507224214784246 5.6622427501997095 7.158213870164229
Hf 7.0027064035297 5.8537527449398254 9.938561205248694
Hf 6.584004989020386 4.859267129464582 3.1941176252014425
Hf 9.525064570521982 7.456284154490387 11.742301872585001
Hf 9.65280707748253 7.959128879327567 8.782825042825031
Hf 3.8911329614451797 6.4501892232554905 3.5722298260022907
Hf 2.6903133235888146 5.855115554411804 6.157997095244333
Hf 4.814193700853573 5.926691197636908 11.665045512146124
Hf 5.727695145376882 6.337900659396649 5.8979467793302796
Hf 11.477207390770735 9.444551082177837 10.589928034873092
Hf 6.744532805900952 7.763923168994762 3.348923826698997
Hf 7.845377032505421 8.817752296283812 5.996427417367023
Hf 4.245832622597467 5.788778669056831 8.660247026490891
Hf 6.605496063286183 8.248225641770812 11.80181204311216
Hf 8.72567025449111 10.169262437261057 10.978946983231944
Hf 11.264769807034456 10.627517830368914 7.920629319882546
Hf 6.378813681129689 8.761273681669367 8.696380233055413
Hf 9.352189299335874 8.989581601413795 3.4155788012772734
Hf 2.0287856631328087 8.382455738639242 4.919682661765977
Hf 8.303521373920491 11.296713007215908 8.295674382687475
Hf 4.027639531683818 8.362613364145034 10.402414661653404
Hf 4.7654395442220965 9.055281139122156 4.6581795791470775
Hf 3.6799266442401226 8.364959514458151 7.332294210001209
Hf 9.713813480047627 11.127005103731484 5.3234284632292725
Hf 5.68099430606088 10.904617158230533 6.612749340855002
Hf 10.389437788767905 12.593042890882215 9.9219397039969
Hf 5.739220545218657 10.820714843632572 10.828510182085235
Hf 7.146799571550985 10.829982645318411 3.9604308393764747
Hf 3.8020006132903834 10.785012323438512 8.844928390777932
Hf 7.5903022562091484 13.142033196736948 6.12366714246492
Hf 7.749187479039165 12.893845232191744 10.905784129032515
Hf 10.317110032924587 13.246407709311319 7.120197389051615
Hf 5.825660950084061 12.949781051348912 8.696647770598458
Hf 8.37520838647597 14.338075109356488 8.68206111145128
