5
Energy = -31.32345611 eV
Hf 6.829947743385292 5.481501540474356 5.522629796871588
Hf 8.485723731612122 6.444109676308231 7.328958558615741
Hf 5.144238631770067 7.308329823215058 5.997774183297125
Hf 8.906753373341386 8.219508734580259 9.173196688240637
Hf 6.680571793521336 8.383915283431115 7.848630399434048
