53
Energy = -463.62816315 eV
Hf 8.548900212603638 9.60392179026421 10.717238502587485
Hf 4.0360085075542145 5.940633875015908 11.4683641542314
Hf 3.0552017979217823 8.417943832471192 10.505432182144839
Hf 10.414628208608121 7.845416865024037 8.95623625214236
Hf 5.487880981575684 10.477549846155732 10.307169239538265
Hf 8.797048465333882 6.774026249862244 11.337154603148253
Hf 6.1099435333023635 7.723489854591435 10.715135051317553
Hf 2.867434390502255 10.847799792608694 9.007943772547314
Hf 7.722749309690456 12.111046483931412 9.320952722721056
Hf 10.090608847690074 10.851055926870147 8.523774954153446
Hf 6.60063702575438 4.553094542636735 10.48244897824716
Hf 9.915009441425182 4.787811805539487 9.62810070123349
Hf 1.9010674054670302 5.8482965266468785 9.30165867775903
Hf 1.5343752284236267 8.498858050007794 7.936640343287646
Hf 12.212557263517924 7.983354773626067 6.365768487317309
Hf 3.5627180157615803 3.634007445587396 10.154816329923403
Hf 5.331065650578433 11.73759521545881 7.625268128436891
Hf 12.534477697020494 5.753968881186811 8.64511297113955
Hf 7.4653474280545105 9.568732560842243 7.961323419769564
Hf 10.397691750283052 5.755122627287979 6.8456656095552155
Hf 4.763506903807034 5.7535363774733685 8.605254721022412
Hf 4.662718492112768 8.817040927275153 7.997213231311651
Hf 8.25797428737108 12.013176998906548 6.4922681869495085
Hf 7.76982348032269 6.549999027503705 8.639839661541881
Hf 2.8896095189238493 10.533503741847573 6.149725276880175
Hf 10.77918641748018 10.899342428420423 5.679099826300016
Hf 7.804084674062452 3.703199825693849 7.800688456030819
Hf 11.510339172706468 3.2062622412298865 7.471595275921678
Hf 8.449691325246214 10.321112197628826 3.991284975877085
Hf 5.52416515528564 4.624180154851365 5.9479754110760945
Hf 9.382439600919826 8.425905132915991 5.959876852918473
Hf 13.074383100009744 5.125594510120045 5.953457531409878
Hf 5.361278911584182 2.552981216629917 8.294823241864504
Hf 10.900210184352332 9.01976225811924 3.6135781764547574
Hf 3.626500618023867 7.091302114075614 5.830129661875503
Hf 5.870195902222999 9.96316903658383 5.369638034626721
Hf 6.784261454580321 7.1960504834465295 5.858092942494397
Hf 1.1095213610157628 8.516573261769356 5.127521909746708
Hf 3.5339699999727867 9.166507581310793 3.6918070123260938
Hf 9.364512882935172 1.8378302167519374 6.079898400033284
Hf 8.524534881504659 4.59979446311033 5.02603124367074
Hf 2.8505661084147875 3.7271287227185828 7.369703607573451
Hf 11.444051253774676 6.276639969430587 3.928975432388245
Hf 1.1442171119502416 5.777335238805618 6.112763423521439
Hf 11.28546383402405 3.369775263543055 4.458153623500033
Hf 6.6701534596189145 2.239922903314443 5.282179888562487
Hf 8.446636450132308 7.232813814196932 3.3360025112465626
Hf 5.181907279317521 6.640694062620147 3.4921559029291553
Hf 2.2091478385354955 6.679616828217244 3.3781231396058797
Hf 3.292799162737405 4.335193512403096 4.3493046196594065
Hf 6.665332400170066 4.24167337814902 2.9404446720020627
Hf 8.782829360494901 2.2222999190626855 3.357390027773286
Hf 9.595150635859481 4.719577468563663 2.346746036917365
