54
Energy = -472.24148909 eV
Hf 9.8205750947985 4.1685134621708135 9.641534986919693
Hf 11.03345893403622 7.960424740173443 7.587263671102404
Hf 8.248923252864403 4.51582000664227 12.010738903551085
Hf 12.124060831508247 7.702508732449214 4.530445603369924
Hf 9.534960578639582 6.694991787723145 10.623939238554383
Hf 10.922515531719334 5.038924916043495 6.293067091511046
Hf 11.561738471621913 10.258526712193282 5.814025457632409
Hf 10.332172470100986 10.816748930804414 8.249555635203354
Hf 7.360986242130551 2.508688747365888 10.113351914616738
Hf 10.170696536937585 2.404532868968501 4.925226434806739
Hf 8.809656768043878 2.997064593134526 7.410268863449277
Hf 10.853031519087459 4.857879683125647 3.351152134896775
Hf 6.747683678640933 7.109784232672901 11.939162130234944
Hf 9.499804589427702 7.230568925382841 4.6690573323506905
Hf 7.373974119073673 10.082131092301227 11.366633064027903
Hf 5.369890458645802 4.183928597478748 11.791140080500842
Hf 10.147511506623513 9.93525491922012 3.3872285338336234
Hf 8.623221945872377 6.278523526380237 7.509087776653418
Hf 7.306637238737408 11.252452854998152 8.418747933935409
Hf 7.057393614970229 5.282697160521573 9.565664083949839
Hf 10.701190494735593 7.439733913453372 2.0013163341305917
Hf 9.217245967875535 12.082712256005852 5.558882178538318
Hf 8.505904137787166 8.715710776650235 9.120511015928148
Hf 8.76275935360891 9.561610865857054 6.281888184495532
Hf 8.32473037552938 4.55556791258114 5.03003268754935
Hf 7.2534522470668215 1.905743557691535 5.000930146677676
Hf 8.473248618630205 2.9649226241364857 2.6777026177325536
Hf 5.917690934681518 4.5179834956584495 3.570385684094276
Hf 8.485132092613311 5.649112004737465 1.7614006693309143
Hf 4.76518661089144 9.304874933119384 12.239988985036725
Hf 4.513995549638534 2.5576979769605885 9.609223266304106
Hf 5.550681443481659 8.525671828627528 9.58195436194031
Hf 5.925146957177438 3.3259251271173165 7.217079389993149
Hf 6.171484413072499 8.844634686035707 6.753108830516766
Hf 4.976760845322479 11.325304500112022 10.37767566625168
Hf 4.222042225861611 5.611031438623693 8.716618432898711
Hf 2.622431441862848 4.218828782996471 10.727491687786474
Hf 7.9904020672967935 8.504203215948772 1.4669952227670138
Hf 6.7080998482005505 7.494752023637771 3.8929584720118973
Hf 5.4850777071152805 6.014165721980185 6.18098571586637
Hf 6.209870276949467 11.82100208088945 5.841581370100565
Hf 3.61803650045715 6.794894057014448 11.485082949304674
Hf 7.214925198150909 10.516410840033027 3.6065813407142975
Hf 2.3198056856587317 3.593471184462372 7.932562484887694
Hf 3.6660316735082374 3.8910861627647244 5.265056347853223
Hf 2.798932189124341 9.268956259812116 10.059358121955443
Hf 5.74559766075007 6.4600915406758865 1.3728236668251719
Hf 4.233763339404782 10.775817429171127 7.691120264685186
Hf 3.250001737084303 8.20505402592806 7.233609707592693
Hf 4.435682032480315 9.79832885298247 4.685663215954509
Hf 1.5916464714698009 6.412330221861672 9.183600507334841
Hf 5.150584670298154 9.060959003063743 2.0425407986989894
Hf 3.8954623850751484 6.792768958379748 3.8738925650396028
Hf 2.092752285965522 5.911626847392974 6.326297737102395
