50
Energy = -436.11871239 eV
Hf 6.783700207017479 3.8183411201783253 4.1954098078975095
Hf 4.9275740834578885 5.080100469836231 2.2730067020614055
Hf 8.094801506628158 5.677263052493294 1.9236187145150223
Hf 5.579462077741674 2.6770664960123134 6.7991096027178815
Hf 2.171976141166773 5.480131176269583 3.400035034273905
Hf 8.372585367162499 2.40768957240569 6.642324722333847
Hf 3.9070383827658537 3.906647064629534 4.970310400697707
Hf 3.2641953253801534 7.429180382739768 1.8435245071654218
Hf 9.596093205477143 4.625048030292003 4.877159399788294
Hf 11.150602756731715 3.0348601880022814 6.8824613370311996
Hf 5.968442167839701 8.000179711122767 1.7121191131339282
Hf 7.603696755251959 6.906710948572444 4.287267581255937
Hf 6.668117153345094 5.408173164226502 6.6476702112458605
Hf 10.399176506486231 7.099581405287749 3.5230293662385117
Hf 4.4152482303956395 6.775487632281349 4.615302556985245
Hf 6.848703239133125 3.5627121930939825 9.22805222504543
Hf 1.8649732536440087 8.222354316182134 4.16132490079131
Hf 8.627065878585709 8.555328892946372 1.997815622509672
Hf 9.696376687234132 2.4472388890612513 9.228447711981719
Hf 4.102223004451321 5.0257497726923495 7.855855726808287
Hf 11.90602309841497 5.674398524620092 6.542737227999844
Hf 2.013584351325938 6.061372449968287 6.207710966279633
Hf 9.288968932539792 4.961057585897021 7.869601133612697
Hf 3.8832591310611404 10.09483531390927 2.8310236213661404
Hf 11.7163028354043 4.680270240514495 9.370528344931088
Hf 9.89386718837921 7.499949056396686 6.317387034081433
Hf 9.280621261774755 9.672815111671945 4.501419549951755
Hf 5.771496227919916 9.305116257964693 4.8963815723315784
Hf 9.279803830761082 4.471562144137033 11.158308169263798
Hf 6.978683949240034 10.812018845603518 2.8783546463626957
Hf 4.032361745689035 8.060736718370611 7.434332240608897
Hf 6.092196368553763 6.500635353632133 9.736324773942176
Hf 2.9986613919138327 10.316845330956156 5.673415177087219
Hf 4.258899228192438 4.5044735137281 10.75955887999374
Hf 3.1367987526316368 6.925386020135749 9.946619698940877
Hf 7.169465348841602 8.484085286583545 7.239426153306356
Hf 11.031775445803293 6.602056525330306 11.523869082354057
Hf 5.004909914140403 12.015022585649822 4.748123042822237
Hf 6.6421181275346 4.556437963406258 12.054695575139434
Hf 11.656524149598923 7.6747578139833434 8.90696065627725
Hf 8.815477057389147 7.347953698930163 9.635343871197822
Hf 7.548860940547109 11.33653628593938 5.9905353899965395
Hf 9.842013873135327 9.709197696974698 8.049214328401971
Hf 5.1942838772926425 10.807342511645517 7.417927108798846
Hf 4.808687929996783 9.19426317789128 10.166360221361757
Hf 8.351896511489743 6.901369316995688 12.581436326352522
Hf 5.008722135495897 6.995581912872917 12.30049706356954
Hf 7.533247028533288 10.331909944227803 9.433413507161422
Hf 9.971507307915676 9.284484012204212 11.087761423623126
Hf 7.025995694762647 9.152531907618618 11.850224501440586
