53
Energy = -463.77826813 eV
Hf 3.0495092141974207 7.839072342069906 4.991295305775049
Hf 3.081143697782757 3.7983806549083172 7.931256048460575
Hf 5.56336882689778 11.5626520689072 7.856635741441726
Hf 3.9599022970111792 2.8890717581157483 5.1266849005176764
Hf 4.835971575861845 6.0243489259379555 9.299662897108902
Hf 5.809003092678646 9.447890890545343 4.933904642377072
Hf 7.559240844102179 5.241970227042199 5.267787861164016
Hf 6.861904963872906 7.3280490233573925 11.633020929661239
Hf 4.342638472554853 3.2438991423542616 10.508183293218554
Hf 3.4159560027124565 5.27155928466925 3.3113941190728187
Hf 3.994896655467933 9.194715039889475 2.6656964672080035
Hf 7.873740650843587 11.27936902987465 9.637620659027121
Hf 8.397867087971619 12.502974447100755 7.03512518943607
Hf 6.783770856853989 2.1820820739693993 5.416541925015859
Hf 5.23234442621359 1.3660825009641324 7.9665708560388
Hf 6.132422133031295 12.521501710628916 5.31406752905767
Hf 5.68558350987104 6.868887784224986 3.3824444391615858
Hf 5.978672566548535 9.081161928197602 9.538021997096084
Hf 6.1546205401130365 3.8572647455998132 7.952011829126801
Hf 6.864248067351587 4.402485762803852 11.686363460675665
Hf 6.083968291015404 3.819052018497218 3.168178057037842
Hf 4.5593982867544955 5.583567907875261 5.972389751087386
Hf 10.568803335771 5.787189441939849 4.072942241047493
Hf 8.229452157422628 1.8019764347750753 7.835172283474823
Hf 1.8282030259266229 4.924266087443948 5.5513463483289565
Hf 8.254096840388593 5.883130192149182 2.458202437740165
Hf 2.089431334976113 6.798439302524359 7.836341933699091
Hf 5.505012214559102 11.524053676665352 2.92220335488696
Hf 3.5609333896001405 11.021100294390328 5.132336078349063
Hf 9.717306716093642 4.234189386782855 6.925420409534561
Hf 10.259093965547414 8.661985349260652 2.704531038321503
Hf 12.239852382664253 5.821642549060753 6.563386241071496
Hf 12.061216587902633 8.042067983460678 4.90119891562141
Hf 8.054401227059515 5.786434407655836 9.090499101680992
Hf 8.97189949652952 3.261544141733353 3.832540657993576
Hf 2.25599205850907 5.333791187771156 10.313915485076386
Hf 9.765032274908439 7.277304133616852 6.872445537744256
Hf 6.91190678431663 1.9564223057319536 10.25222022879859
Hf 4.000251210755744 8.951551571245764 7.564585135115128
Hf 8.4993054025242 8.111795379717496 4.514566139901537
Hf 9.384052876981286 3.4343342806057873 10.090418369944237
Hf 3.131389346741045 8.087459705388605 10.339083893363583
Hf 7.009528251765204 9.092494672460294 2.1571238289555428
Hf 4.350277846262138 5.915892018743878 12.111913236561666
Hf 8.274215430634383 11.072065831418415 3.8469256250993005
Hf 10.909371489893614 5.98394807448004 9.166624874835017
Hf 10.582813383959085 10.297708253907237 5.6011780716171655
Hf 9.1276689683602 8.457742554756669 9.825361327589716
Hf 12.029151950767137 8.61687154693024 7.724812883625576
Hf 9.318063699887368 5.950675702063333 11.636774378768951
Hf 6.490091942664449 7.319275330772484 7.174404350216489
Hf 10.353568927582032 10.89023694530771 8.462963210005295
Hf 7.980476145425466 9.775713196247922 7.162186601888878
