50
Energy = -434.05246807 eV
Hf 10.48357415959066 2.579764490819504 7.5189768796965
Hf 11.569739098996358 4.94154677084733 6.564216892192114
Hf 10.21780835509775 6.428667516044613 4.597874422158321
Hf 12.649820401154084 7.531234737767499 6.117596397790265
Hf 9.529248223513576 3.4983444985367527 4.860092129788286
Hf 10.939843555437502 9.49185974884567 5.145466050029008
Hf 9.04116158339196 8.574455454613556 2.906995380289277
Hf 8.101106341288279 5.389272468892504 2.7412088499883343
Hf 12.088399103286596 9.657281047763357 8.02911811581435
Hf 9.117510872145516 11.328757018631627 4.015015635384221
Hf 6.538213978246624 7.696397176225187 2.0769110826182318
Hf 12.731887371239456 6.881116864941076 8.854109556243829
Hf 6.539023247827264 10.346370157186165 3.251737269419822
Hf 8.577641042510729 2.5022282350105827 9.429709609052374
Hf 10.264916123654137 5.016690083736332 9.570221282709143
Hf 7.860788256608722 1.9040401650678285 6.724683325944588
Hf 8.502962725248054 4.703517563496083 7.204011308982278
Hf 6.968249260280809 12.15440216336882 5.530581893482116
Hf 10.082195511576744 7.416423013577741 7.427012494841653
Hf 9.486529859759926 11.428702007885072 7.1047075010057705
Hf 6.008554598991272 3.9764404490816463 5.530338074918118
Hf 7.0585174289493295 6.716698942489839 4.902718035330603
Hf 7.93921484680659 9.344830976681402 5.652983933345576
Hf 5.133724105684829 5.569804272141307 3.1116264260156234
Hf 10.371993249744207 10.806517042858946 10.095901672882336
Hf 12.839049806885514 9.193529756664576 10.66609699940377
Hf 7.806180972633853 6.696353074311916 9.714739489342334
Hf 6.9539837800635445 4.192674815815019 11.020068131572607
Hf 5.823459126425661 11.446095005993637 8.014260138959552
Hf 4.252630185883209 11.060918835466415 5.376154950412126
Hf 5.8599409772088045 3.0161227187971886 8.555444873822825
Hf 8.859012277773317 6.045918247892653 12.21177596211301
Hf 5.170726906994743 8.751544896882686 6.675834240665086
Hf 8.126874389266591 9.522472423547661 8.676908845911681
Hf 7.933263190529975 12.080557890307682 9.918309442859504
Hf 10.441165602471031 7.848216888821589 10.416934075726223
Hf 4.257751241731978 8.409446192339512 3.6474706727511492
Hf 3.5358545774836205 6.13882870614352 5.424856807778084
Hf 3.5381645463398304 4.2145766444661525 7.470680530217622
Hf 5.73959109629947 5.968865306979556 7.657045424049299
Hf 4.2959723763332365 5.1287996585358675 10.220371967584912
Hf 5.330353155131559 11.2635340630777 10.829810843858715
Hf 3.3000466028583055 10.16689653071462 8.31262819373785
Hf 5.826818745552806 6.631088501287671 12.166490235834347
Hf 7.800078681586976 9.233395792453294 11.46729947292077
Hf 2.4341778853003375 8.798860864786278 5.84466391898123
Hf 5.363273672817208 8.537530453204893 9.728741493632052
Hf 3.050691616385255 7.136925265043809 8.212545611474999
Hf 3.1750232104078644 7.69135715151558 11.239212596750669
Hf 5.14610106076119 9.268185500066775 12.651439194780295
