55
Energy = -483.74600887 eV
Hf 5.963300654206614 5.96526022384441 5.965463895913343
Hf 6.102462777026198 7.708946233618855 8.411526994793862
Hf 6.0382803365243625 7.596083510728006 3.4121976711632507
Hf 5.888144297593753 4.3317625496054415 8.515713526667989
Hf 5.828470362021147 4.217398160521434 3.5150238738499233
Hf 7.576336727611347 8.541737146779955 5.911332517953001
Hf 4.260923108395079 8.410713255090927 6.08487448939073
Hf 7.668120704927428 3.515188201159719 5.84455725175798
Hf 4.3505615002465134 3.385411147049299 6.015425892447734
Hf 8.392419929380022 5.861292089729398 7.7077380064049015
Hf 8.506137909027283 6.0545515203091345 4.345845224982965
Hf 3.4222461393917953 5.871815238430374 7.582041292721446
Hf 3.5353011186230336 6.063495681403251 4.221267281520259
Hf 1.1240801557541078 5.955708935413651 2.9508434063504967
Hf 5.962919644503089 8.981613077998478 10.816374244592481
Hf 5.990963968300178 8.982634103847627 1.071085883591169
Hf 5.937619880917806 2.9454885655442884 10.855381041485195
Hf 5.966075002145531 2.946686376417301 1.1133525510865752
Hf 8.999945765354054 10.859747674306252 5.938567690499304
Hf 2.963791315071161 10.811075631013141 5.957070963402532
Hf 8.962568738963709 1.1194948021084248 5.972502336622946
Hf 2.9285835953200436 1.0702912874590402 5.989359097411419
Hf 10.803015992960567 5.9714832502511745 8.976179465512915
Hf 10.839477869774479 5.974268591554241 2.945958887250018
Hf 1.0873979527062196 5.953540170690557 8.982932774320037
Hf 5.9469112837056946 11.029084976457899 5.958985715716037
Hf 5.9823178773362224 0.8997353009374531 5.9692470917389135
Hf 0.9359067741418632 5.966446359303793 5.935545926111987
Hf 10.991659443158126 5.961574250340422 5.992406223771064
Hf 5.962125195481348 5.935762640996987 0.9280882198270602
Hf 5.966435493083116 5.992091392039703 10.998858551680158
Hf 7.537374509691608 1.8655460435540219 8.48493490998366
Hf 4.313970175453482 1.7939288650905076 8.568394239743105
Hf 7.535877369432888 1.7950987208809919 3.4090082268649944
Hf 4.312634395634608 1.7406850856569789 3.4524464347105757
Hf 10.141376702359025 3.4630619346223894 4.329668240335428
Hf 10.083159070987062 3.4171138465324695 7.573099922435258
Hf 1.8700242650095196 3.4420983464926613 4.380353624703303
Hf 1.7975006793785917 3.357652853889902 7.599066205866855
Hf 7.614641424601644 10.134971409291646 3.3593329106266068
Hf 7.614943769353184 10.188672340251635 8.476374846485843
Hf 4.390948030396729 10.064230514563139 3.4425525458512385
Hf 4.392818043214371 10.133697461596427 8.520137046537927
Hf 3.4719755168026407 7.584405388126644 1.7486143241773529
Hf 8.56595208778718 7.594181841655717 1.7806129250943719
Hf 3.3976932896477554 4.342643700386754 1.7989245083310805
Hf 8.470450898146357 4.3766853987600465 1.883302855752562
Hf 1.785900191048415 8.464997023793275 7.598165808583663
Hf 1.8429929178803373 8.511890197144949 4.354459148472317
Hf 3.3625064070259625 4.333705965506149 10.146472425717619
Hf 8.454563860172536 4.342526763177309 10.179755097871096
Hf 8.530293257345129 7.585517467658278 10.129252326058003
Hf 3.4584770677160996 7.551505107023634 10.044421345593618
Hf 10.131526123829262 8.569940562035649 4.32705293061024
Hf 10.05840235662291 8.485364740546446 7.548353082243364
