55
Energy = -482.04009298 eV
Hf 2.5170979162806115 5.6734960004793855 4.759724929321525
Hf 12.818938906940783 8.31450025546359 7.190857325625477
Hf 9.426196392214854 4.89448623614028 9.295448908234967
Hf 5.348969396517251 2.136690374854888 6.754208343189991
Hf 10.208942596827864 8.062949779429943 8.751361825678437
Hf 5.734746684702497 5.301038310529415 11.829526569602134
Hf 7.742244596251516 7.230925269541073 4.428682515575893
Hf 7.023528125325689 10.079421484461493 11.621946524999654
Hf 9.82037024109761 3.8240689485649746 6.446394370500803
Hf 4.906358039949019 6.509844326834687 6.047260678754484
Hf 4.926315433510167 6.328335411333705 3.093348200081414
Hf 6.184649333016115 5.020682730514173 8.757484573855244
Hf 2.5223142271627177 8.589900038349304 9.773812677054496
Hf 2.2891927848457048 7.136787191097707 7.2702462203707094
Hf 3.3863523307456056 5.7480432978882945 9.865315510527958
Hf 7.231863951654565 11.652058718516287 4.708754568696347
Hf 4.3469286402022345 11.178574110378044 4.706576182381613
Hf 11.564099766645285 9.425648384504267 4.568805731989655
Hf 5.55445621829089 12.015421886358556 7.270309748186032
Hf 7.797111366918991 2.5118604496599133 8.076450280966457
Hf 9.124312880128933 9.383579973311667 6.102092130619891
Hf 7.532499191792468 3.300582952192556 10.851861945281241
Hf 4.94502256208227 2.8354844950882927 9.589012211353282
Hf 7.306778240956708 9.83386936719457 8.610923212365307
Hf 12.022720725473857 5.689576172448422 8.190657316756276
Hf 10.693123327726765 6.691026245864992 5.778251835197801
Hf 4.610638783452158 10.677804802621209 9.889677760179113
Hf 7.604370935502453 7.232263491392193 10.318788433459746
Hf 8.008403499741373 6.753006438735965 7.288761444542584
Hf 8.785187404593518 5.48271740106825 12.285273856818165
Hf 4.744982368483829 8.124957471424054 11.614300847585525
Hf 4.9587234909042905 7.863844773280783 8.67508097796838
Hf 13.907603618181062 7.11777834965812 9.610943357690894
Hf 11.273001500104286 10.764366676916314 7.471927208665867
Hf 10.112372566615917 11.776008539853365 4.887658135033007
Hf 9.69634681444662 8.527013379616816 11.84059341589728
Hf 9.635841479173271 10.89777124052232 9.993780263986421
Hf 8.570622368742416 12.273051422839783 7.321391128012625
Hf 5.8491208047991 9.241463080163722 3.027613496965276
Hf 6.963166867569169 4.516052991814777 5.770289284873541
Hf 7.033718370948928 12.337128705893607 9.789409661049083
Hf 6.786617396879253 4.175554263355964 2.754730370678829
Hf 3.438134853461731 4.22094594857909 7.220811379288218
Hf 11.449266286049937 6.372349626256239 10.96437271601564
Hf 9.365495091987459 4.738546293425099 3.7169681489305315
Hf 8.89470489664997 9.781701236115493 3.0546963390090767
Hf 7.1512516226447245 7.571569507956246 13.119350561711887
Hf 7.744633621725016 6.79694631259081 1.815744190052832
Hf 5.952834542316988 9.27350693933437 5.917938561878119
Hf 12.277958821180793 9.315397945244827 10.09974273560105
Hf 10.37676188853236 7.3376440969190595 2.944882467511526
Hf 3.2313342507423424 10.022703200062079 7.236999392820974
Hf 4.459414889549083 3.630485434721603 4.418438851742969
Hf 7.819834414002792 2.239990036392402 4.917222474194145
Hf 3.245848869348133 8.491904177833186 4.616624396257675
