54
Energy = -472.46823421 eV
Hf 8.855717315676516 2.566673295246927 8.784341994034449
Hf 11.370152302253635 4.22219291945913 9.020628147236408
Hf 5.831881894597775 4.738000220938815 11.499056617983022
Hf 11.034553172611185 2.0889155636504997 7.1220132260109
Hf 4.399585632996328 2.867489223217519 9.616961261433127
Hf 9.194038257354004 6.15791188609449 9.600218647848092
Hf 6.212211630750093 1.869691443405775 7.436326450974249
Hf 2.896083734286236 4.324200126849563 11.51100217923044
Hf 6.785100433233892 4.507964100648904 8.705173465406583
Hf 8.511165463985549 1.4719413631243383 5.79540568659729
Hf 12.583577198453895 4.286658669278006 6.430755983192835
Hf 6.34208738679576 7.3985090576939045 10.145980101830354
Hf 9.711062021209347 4.750190439360917 6.756012287092683
Hf 4.009922333274127 6.825747187376659 12.11085672522352
Hf 11.544868954220313 6.917435361122046 7.476436353250443
Hf 11.012810916885492 8.60490204138633 9.833748788760825
Hf 4.167552707937406 5.830557687158259 9.31014830894983
Hf 1.910831414262748 4.085263460184659 8.809533424966043
Hf 8.54341026721512 8.80706130714665 11.212420666562917
Hf 4.3435658964985695 4.092925294423292 6.820923366797003
Hf 10.634764729799244 3.0518109494458003 4.409660586708173
Hf 5.715447715324326 1.9250626187085784 4.646652641138953
Hf 6.328479206691978 6.711992991611193 7.153921163153112
Hf 7.1149103832477785 4.143724226455493 5.524910957325801
Hf 1.6132233735043249 6.656149169896328 10.242420503441432
Hf 7.979220124092186 2.5514289106504413 3.1585918833419218
Hf 3.572119003576049 8.821979396699513 10.192994949789194
Hf 8.51469183609999 8.681964313427835 8.37051521389615
Hf 6.378677579135148 10.45238210436827 9.281836085604674
Hf 2.1154548734765934 6.509038279988386 7.215045718403239
Hf 5.911747341137804 4.837674689506394 2.9651009900666
Hf 4.2212121973553725 6.663402929549906 5.019603131045493
Hf 11.352844430325607 6.005365156087882 4.451539120056056
Hf 8.991294426408206 5.220620118214203 3.1363177963360975
Hf 9.44928595359218 11.019003270432446 9.676162009755048
Hf 10.926272318420661 10.194894503416627 7.24975874548885
Hf 11.883577760601456 8.78732704619407 4.911940577317164
Hf 7.013750553531159 7.167756960213552 4.185190322810609
Hf 9.447113582867985 7.810873789437197 5.760941291955351
Hf 3.431764982013811 11.309023201504983 8.843459405185511
Hf 4.235102611788847 8.931353066589546 7.266786224398086
Hf 1.484695423320075 9.269329080687855 8.087572208088035
Hf 7.09270351201119 9.579197638210712 5.879882036786287
Hf 9.794135499596687 8.156246578737823 2.7830005265118656
Hf 2.0296081125469865 8.61923004657536 5.246165325780719
Hf 7.466481161133635 6.961920001320589 1.397542499077005
Hf 4.904058767251406 7.664876170817048 2.286632112747513
Hf 5.3890259024483536 11.84627469575677 6.899559025334857
Hf 8.419504300830745 11.830743067854108 7.083950121727602
Hf 9.578508270053357 10.642609956041461 4.496697375046084
Hf 2.6705432637009836 11.180088927816474 6.102138247370008
Hf 4.652364722628202 9.733824612044122 4.373565725188094
Hf 7.188351959528367 9.689591388042716 2.5704266680750294
Hf 6.89262743532582 11.926249902410436 4.44228750700705
