52
Energy = -454.50537767 eV
Hf 10.933912795735022 9.616572691606713 8.192823700828392
Hf 11.092187837248689 8.451995348233272 5.160274612625528
Hf 10.893669235655365 7.438497204182402 2.4488827336622716
Hf 11.74938845056618 5.599258299050579 4.806508378107094
Hf 10.680453376582593 4.660064888475334 2.162531280033108
Hf 9.209625855920889 11.721427858052893 8.669280735242928
Hf 10.23497469667353 10.195709493209243 3.1156938012422746
Hf 11.024392982957616 7.55579135129212 10.066263881062255
Hf 9.996477608091853 10.114668719360823 11.012352834972445
Hf 8.912004506318096 10.454668240334922 5.888874421245237
Hf 10.244200041543529 6.809320119486614 7.386264248796485
Hf 8.556444092967482 8.90014312691382 1.1794096077557943
Hf 8.208674564921445 6.106632483345024 1.4254383569446545
Hf 10.400933937250809 2.9275824691739936 4.31589897944664
Hf 8.291182587864162 8.189202451367603 3.958918020162212
Hf 8.246377768715416 8.965828422231208 9.383890537224415
Hf 6.451174254235063 11.117655143296867 7.836731186228357
Hf 8.936913017864168 5.357204461018009 4.46623854251774
Hf 8.981673274994044 6.844080825764349 11.856362259084506
Hf 9.688302000342793 4.039194946069713 6.954519670666676
Hf 7.338127637822709 11.492097268646171 10.604644943404525
Hf 6.023145043285958 9.942746812214287 5.137140810170342
Hf 10.290399446083832 4.768970033289672 9.884795687306221
Hf 8.219262749967466 3.340700471083322 2.4212118150842405
Hf 7.451809729753023 10.753354962194011 2.917059953827209
Hf 7.485802974939542 7.9626554277329396 6.835800611031088
Hf 7.984930252458706 4.115645224267048 11.489920129949466
Hf 6.179495334423809 5.172651272239687 3.433060004249965
Hf 7.824297538606109 5.9321440017210465 9.273500607863346
Hf 5.808359045934034 8.136042173359026 2.5515989601914058
Hf 7.527071097418823 2.842407260758238 5.173860702778947
Hf 5.161754140185387 7.251536432857072 5.401651820766115
Hf 6.755302738699033 4.91694281767345 6.76616293404558
Hf 3.934962118192186 9.553427408798235 7.175334021390288
Hf 6.641147843816255 9.069077613708492 11.963892008904445
Hf 7.898202496148652 2.943964025368171 8.860646216239193
Hf 5.369136426341931 7.790817134403674 9.305175638143112
Hf 6.027625428040118 6.224730735773552 11.915219236944003
Hf 4.503734503710194 3.6426559862517465 4.974935719582259
Hf 4.664300788860855 10.4859251267082 10.110842266865983
Hf 3.1000347473124923 5.967323216550479 3.9787631320774692
Hf 5.439357100723223 3.9473476303256003 10.028169117265545
Hf 3.325250903605959 8.969069823821652 4.248004946935911
Hf 4.873261312628848 2.6745332838654297 7.480748928073266
Hf 4.036167681143464 5.589390698349265 7.795640545731324
Hf 3.9591620884619925 8.311552050770935 11.805429155569614
Hf 2.4279357500148158 8.322044019503583 9.366698448767478
Hf 3.0913890844943763 5.802388939622797 10.804529279992483
Hf 1.9654795321078677 4.353634424116992 6.319589133809778
Hf 1.9911849723568182 7.4074487554129345 6.352427686360174
Hf 2.6549036058307593 3.4351012766770945 9.112902500178802
Hf 1.2234367066956484 5.795800907736021 8.64460201826218
