54
Energy = -470.47968452 eV
Hf 5.683598486474568 1.794299344605716 6.563169667479123
Hf 5.168963326929868 2.454392955222664 9.334307988271975
Hf 8.544086614527409 2.888052048834971 5.79859417224359
Hf 3.614661351659789 2.924073353401677 4.842860767262483
Hf 7.465763854575506 3.715615612414471 8.320204615387173
Hf 2.871465448009439 2.7335692051632696 7.615613851229197
Hf 6.461362437864412 4.747515043200368 11.459976307087382
Hf 10.63198744701138 3.568592340012363 8.186971353255695
Hf 6.283157919844034 3.3571081594219736 4.026311811364708
Hf 9.155849917422836 3.8419830024073747 10.587917739379554
Hf 8.924791179295935 4.173851694489306 3.318121794807002
Hf 4.903708162601284 4.557275530049398 6.825268397875717
Hf 7.205639263647852 7.354083947334092 13.197043615796694
Hf 11.105872142176612 5.831793119901882 10.437661416063852
Hf 3.845356374208248 4.771663617464447 9.836306420095422
Hf 9.250555715314194 5.538733069532283 12.787439686878185
Hf 10.505594188781297 4.943391029538151 5.53423430611711
Hf 7.468653933033549 5.985023548851133 5.30866761380183
Hf 4.598002907203007 5.9192752510531585 4.211540692543879
Hf 12.075650006734143 6.4179060683939895 7.398859869995415
Hf 1.902665892584566 5.055764391958473 5.700002075333717
Hf 6.0989415799235855 6.432550403653787 8.781630417314418
Hf 1.1414052938975008 4.949225161748714 8.438749277863854
Hf 5.030096674997997 7.258479305577276 11.380997820302573
Hf 12.50265073984027 6.751295263109155 4.62192043961876
Hf 6.900213768668077 5.840966741148344 2.4330482531581965
Hf 9.24554564064613 6.023433334961441 8.012390293278587
Hf 3.1390277056813556 6.925454211013617 7.971386794418443
Hf 11.845141392574075 8.999926557514293 3.5065698132125767
Hf 0.530493551867761 7.262472351517332 6.890452578311427
Hf 8.302509353952019 6.930799246469665 10.545504014985886
Hf 10.107327218778693 8.262379256564277 5.879406742494956
Hf 9.485300505041238 7.05984962336656 3.2973165394500885
Hf 7.8357674343011015 8.998283035397526 8.366811164602561
Hf 6.548580121585349 8.472694426053863 3.63229721721026
Hf 9.697353084714322 8.507483869057513 12.290965533618111
Hf 5.220545585286891 8.203779693224249 6.387402333277026
Hf 6.975822827832779 9.603883097647758 11.376603355951175
Hf 2.536562337141784 7.842312131272291 4.99959060328474
Hf 12.785935658732079 9.141657958540998 6.306850023764662
Hf 7.513999428329375 10.339744611741457 5.677072808063443
Hf 4.856935423251569 9.222964652296053 9.217596013747972
Hf 4.543961636432642 10.60051680812185 4.779621625909517
Hf 2.707508566774491 9.64567293714263 7.066211936903291
Hf 10.772857324252636 8.414762332219546 8.993178393073642
Hf 11.263680047767437 11.168214266996442 4.915505209461699
Hf 9.41643078464969 10.629458102274784 10.29724419054492
Hf 9.220277309691522 10.176598891858434 3.0822990080637314
Hf 9.883582543998237 10.942464921364932 7.465876292938092
Hf 7.265244231974466 11.753694494286595 8.638079116038416
Hf 6.212773321241648 12.937416344529414 5.666099000626424
Hf 6.775414033688695 11.585435341716774 3.205304309246871
Hf 4.758976880779689 11.506134633166463 7.440387137730365
Hf 8.9542978651565 12.632796604135805 4.7036156053089595
