51
Energy = -445.25164817 eV
Hf 9.15678846913543 4.974880490774838 11.997882402978721
Hf 7.279684224947557 3.668009573669961 10.046597209188773
Hf 10.270074513458566 3.2476307859603004 10.194695329523096
Hf 6.697982700300016 6.30563020969699 11.385633270632274
Hf 11.619097629870069 5.823974305455425 10.476288872984815
Hf 4.453286216376093 4.989036626886146 9.515311860694604
Hf 5.32443123548973 2.778418202037195 7.716060964520852
Hf 9.258844095156777 7.846489743779162 11.579129297829688
Hf 8.97499178119404 2.4879911773501098 7.830371790739808
Hf 2.7012062801937518 3.745681199057312 7.490641951186315
Hf 9.185329585662771 5.77812723055775 9.241085343772184
Hf 11.362878169475625 4.390600439263961 7.654838744469015
Hf 6.590483368510613 6.889486690714335 8.541130698597986
Hf 6.746434007682153 9.215523865442407 10.65551881489636
Hf 11.563176785851716 9.059708256778991 9.795053193676333
Hf 4.26917306837109 3.303545029689147 5.066901490260159
Hf 1.8595570237505021 6.376028564228361 8.254739232226525
Hf 7.072378600670352 2.231262592956379 5.119321744074975
Hf 4.064302779013674 8.036310897998309 9.50405610228041
Hf 4.608819529766895 5.72994506172938 6.618365470500464
Hf 12.172955377314459 7.028191409540384 7.882594671367957
Hf 6.811377356713244 5.022665675005822 4.309437127938475
Hf 9.73220654234395 3.872707795763189 5.266446035527931
Hf 7.493793290652555 4.606086964401612 7.077159578148877
Hf 9.288000068795435 10.608043726431298 10.877957837150031
Hf 9.409012152681672 6.900354022856954 6.324407280921892
Hf 11.757130771930058 6.270069540181911 5.10169911413915
Hf 6.1242805406244525 9.379139391592568 7.593171087317349
Hf 8.980255550626456 8.945784779332024 8.557024558728424
Hf 10.387938425852669 11.426462015949308 8.41644721212912
Hf 8.463816173331514 3.2954336997372256 2.7073413751918123
Hf 1.9400668456209529 5.493424345030922 5.29273614110705
Hf 1.6253597875000676 9.290397663635288 8.38027693162752
Hf 9.260179123636204 6.172624163043298 3.2595335277487325
Hf 4.450071005038966 6.217738720729273 3.4381012213193225
Hf 0.6030275988601714 7.9964949223791875 6.137929063575948
Hf 11.33012788510205 9.32305922159789 6.610491580022514
Hf 7.48687920695047 11.520559383351491 8.758111151724387
Hf 6.819526950310768 7.964847058660129 5.198749915210595
Hf 3.5620825360113795 8.362425159028497 6.470160374647716
Hf 6.9806186828036525 5.2663085880744385 1.426247704495309
Hf 5.59356051752751 3.139469884661075 2.5715713863586642
Hf 3.8575408088921206 10.930355384712994 8.222543626782011
Hf 9.444545796509042 8.887091290074295 3.964005576198447
Hf 6.960970793780663 7.9852019167571635 2.367030916255591
Hf 8.70413261754828 10.659487881472403 6.132271937791442
Hf 2.152255794722917 7.989892667812168 3.861832210360131
Hf 5.1968646324863315 11.370035174900577 5.746180645411971
Hf 2.154832033517531 10.514104893611453 5.594422127827616
Hf 4.519083848749098 9.451616697531355 3.69096247477483
Hf 7.1276448028522 10.520224039108864 3.72598339403529
