55
Energy = -481.58440953 eV
Hf 3.6612774708507043 3.641332138887561 1.4938152644051925
Hf 8.434527733337708 2.099372730966266 5.323077015223638
Hf 5.604761760520454 1.761506493313828 6.063620429901693
Hf 4.688162168181652 5.79568982376352 3.0964188962173047
Hf 2.8412748355338437 8.393104824920853 2.423274715957201
Hf 5.55736020579352 7.97149471475228 1.0384711611299626
Hf 3.3421921552776253 6.253450460495638 0.5584495483645981
Hf 1.9348855148447457 7.101095251649113 7.996653672934997
Hf 7.414187875784019 4.086415491614321 7.717287247785022
Hf 6.191351197853549 8.352193284763633 4.371606718590293
Hf 9.692263854159195 6.360819086957659 7.77323492506168
Hf 7.659781490873402 1.4525022623663686 8.29526104985791
Hf 1.7469529645640411 5.617760429292268 2.918730530168791
Hf 3.8222424276872844 3.954424831214253 11.209923809234626
Hf 2.1021049331525927 4.130125239815071 8.92437708255763
Hf 11.754042584659985 6.774977957981125 5.688682734953093
Hf 7.6172032537668715 9.712291699876646 7.128554160954951
Hf 10.48629618973259 5.983074716454701 3.1840159368575236
Hf 3.493390823466536 7.403503790435171 5.276327673674615
Hf 2.4902757404505493 9.983740457575355 7.31983248198841
Hf 3.3550842581663893 3.297517839454984 4.217041768440948
Hf 5.222177509741993 10.891854648261406 8.718181735812497
Hf 5.962531180331307 4.978109254775113 0.6312505002441124
Hf 12.027408112816511 4.732152935985238 8.052011032592288
Hf 9.160802320264025 8.175681228899343 4.6295147918861215
Hf 10.541663956893863 9.178840969149954 6.879326870549742
Hf 5.169809456795292 10.489655076791935 2.7546216411985576
Hf 6.982657511238253 6.864058470877498 6.935385926882154
Hf 4.684899157733275 5.78279430859097 9.017189001358977
Hf 10.935239113393196 6.228220009308451 10.476904940116706
Hf 10.139338384689314 2.586018390229722 7.470295721158492
Hf 1.7792436672757501 5.034101754722727 5.959643447545232
Hf 5.1888973336350155 6.408076464514211 11.80185139290157
Hf 3.6294598287568807 8.673667394444696 9.924472812759852
Hf 4.882040541038162 4.743193578838328 6.151050987138849
Hf 9.095516683655067 3.6021867556921707 2.797774564258076
Hf 0.9652214044904355 7.9912905483087515 4.973984358129279
Hf 7.704751035493884 6.270696275161662 2.5003607044649474
Hf 12.173502633044675 7.619224710298025 8.490706141019716
Hf 2.939129926930281 2.4472789771136085 6.796329398715067
Hf 9.599365442811074 3.7445155249440547 9.900151109725176
Hf 4.84724732757849 2.50771337045238 8.803901449862547
Hf 6.578205839722664 3.8849553694157812 10.639745268613693
Hf 7.716528202872805 10.849999009973802 4.40017517039527
Hf 5.159431726247325 11.081392906577234 5.803968556091939
Hf 2.7994592481633584 10.270531059617255 4.52420979959105
Hf 8.146199338010023 6.170722419699374 10.586764269023176
Hf 4.906565448622558 8.50648692464309 7.3857562108680535
Hf 7.859661169528219 9.222019081138113 2.176909259964488
Hf 6.516458665401612 8.314780673168228 9.687161031401589
Hf 6.237463901520518 3.3959142059963003 3.3466009721770735
Hf 11.0085552678809 3.8694143970298853 5.121486142150603
Hf 8.334555515833262 5.1651066277385445 5.073311933422449
Hf 9.63166683497512 8.701926986007905 9.57429300436196
Hf 2.3731712042337185 6.279470495358702 10.784497359634022
