52
Energy = -451.93000617 eV
Hf 3.9283333163197875 7.168168667502663 11.57646001105348
Hf 1.9164730172208622 6.750411464242596 7.203148299081107
Hf 2.9771776882438035 8.302174162492724 5.194016765237394
Hf 2.0831722518005877 5.936163696823406 9.84264743890743
Hf 2.5273519760567504 5.247676754059447 4.767312615859072
Hf 3.013732475679133 8.705203878136158 9.101844594548476
Hf 5.759705962901103 8.886022228612555 10.052764024388646
Hf 4.828633312596517 11.605481692888823 9.209968663980227
Hf 4.885833816389472 7.304525248110335 3.302440213521957
Hf 3.4641402500832887 10.70203658073904 6.805120101292479
Hf 4.711694847400913 13.284125204614938 6.955528241243595
Hf 6.736051311781304 6.43530547771646 11.37553910469819
Hf 2.6712256886228443 4.07032624284041 7.6194775269461275
Hf 4.811235937562668 6.281366118428193 9.010092753471222
Hf 4.8370812267173315 5.731582260477156 6.050347614339821
Hf 4.417783750438971 4.290732496373747 10.890399773603654
Hf 5.485434454642077 4.5656169789099375 3.3930668983097885
Hf 5.450007200521422 8.459848402626235 7.084192103171198
Hf 7.835223419947413 10.806947153737584 9.497593181865753
Hf 6.981150381698924 13.410397573850634 8.567480483013165
Hf 5.316541939358012 9.984428942393633 4.558175765853238
Hf 7.356877588631728 5.539910268197757 7.785073521816149
Hf 8.179561313610257 9.097416083062614 11.987096160558078
Hf 6.588501181496355 11.174650504999862 6.889096098091035
Hf 4.218736897277346 2.933313055543548 5.5443546945053095
Hf 5.4693109265834865 3.0390957339963074 8.172003679129324
Hf 7.279002637968414 3.8819612155791927 10.249199430282987
Hf 8.617675476759958 7.845649524906843 9.308078557417923
Hf 7.742276471702899 6.373721360381099 1.7946052115816997
Hf 8.65919591179628 8.860589176777319 6.184390085411376
Hf 9.528961423736554 6.52400811868765 12.151673630016777
Hf 7.091239651492564 8.970950123731322 2.6187158626191285
Hf 7.0539116243385465 3.3904570335883695 5.567201534978785
Hf 8.347505789460184 10.950333546223538 4.268537546249999
Hf 7.577108948448495 6.427206775682171 4.555381741038395
Hf 8.75692684583207 2.9451467860907927 7.949697141548955
Hf 10.46169584531627 10.18094599418353 10.466945488059542
Hf 9.971799942637515 5.977033766630702 6.661423884368005
Hf 8.252405566294751 3.899149303794054 3.0089137065073275
Hf 10.92900567888681 8.86998189286065 12.96593873169395
Hf 9.458627381378886 11.528301589989647 7.245291956115225
Hf 9.78553051371517 8.56084718716425 3.242836257770931
Hf 9.90882012502851 5.16840091748377 9.580555666777668
Hf 11.532248363936171 7.543520924760456 10.469982248654503
Hf 11.097012490747026 8.915370364012368 7.842605480910837
Hf 10.430736706445414 5.673669211609926 3.369391332792056
Hf 11.580305349480327 3.6544171746669756 7.706896311230123
Hf 11.004120034180225 10.362504483022446 5.2254627616696565
Hf 10.013919863980222 3.300672721193293 5.1833267931611635
Hf 11.918117429331506 7.673007105437911 5.164333242184582
Hf 12.602437283218064 6.352143216690155 7.744920547839066
Hf 12.389674175478197 4.835105998728042 5.347892253198219
