52
Energy = -453.68640754 eV
Hf 4.552989270434577 9.51250195170415 3.5947945232622587
Hf 7.0397819126446395 8.878968113506442 2.471227097901419
Hf 9.393238957652697 7.858915286567218 1.3552329835879888
Hf 4.814785534813783 6.89350032995459 2.8431947921216008
Hf 3.371109645108211 7.52631527512543 5.480104513113098
Hf 7.431971455344451 5.848061805223109 2.179926901296277
Hf 9.693019655867744 9.830407526679968 3.5732434490593565
Hf 2.18530747038587 9.436854528656555 7.553238762372326
Hf 4.059066889093646 10.634138570440946 6.028436167048565
Hf 11.72034607557202 7.812434443477003 2.8886884743134953
Hf 5.896530296605705 4.640051133434566 4.539684185569205
Hf 6.332859036555699 7.79553781505449 5.2158459776441
Hf 7.044765027868939 10.72739369859595 4.993044655974623
Hf 9.216601301625932 7.031750153042178 4.238760516222996
Hf 10.469072973398003 5.428756495637961 2.062740967890351
Hf 4.9174253649554185 8.303817230566201 8.06383208592569
Hf 4.2806001670905385 11.130948880308207 8.978825160003552
Hf 5.027804526607835 5.643976018450698 7.098752073459697
Hf 2.3985212804619436 6.646542149882522 8.194784417163271
Hf 11.619886228434092 8.432797924870066 5.630210039453336
Hf 9.00727480235052 3.9384075733653923 3.9703055119600674
Hf 5.6286461225749695 12.735507483297607 6.981962006900475
Hf 10.39659384489353 11.01201243834863 6.158855432482776
Hf 2.9181672575959126 4.479917652542916 5.907178189404287
Hf 7.625728785714093 2.4831456906928024 5.917924992377997
Hf 8.8924291916152 8.479690880674418 6.942823955285954
Hf 3.311068287812881 3.759162502484004 8.878163650959381
Hf 11.622709912240886 5.352080443434558 4.6338916984447955
Hf 8.032254858466732 5.340420450552907 6.597197256806972
Hf 7.101822763055466 10.39042413601361 7.9823167933786445
Hf 5.0024408133146245 2.6105832335452153 6.871649418910556
Hf 2.9478540083511313 8.849087889551543 10.17201574829085
Hf 9.818774056115304 11.861438560210239 8.759952330511393
Hf 10.282410814817606 3.3952834241117973 6.541185154933701
Hf 6.297105660018812 4.365007030922807 9.382971107444838
Hf 7.110042937546565 12.52100325556167 9.584575333414225
Hf 11.214339741575753 9.38011359731155 8.466478508165746
Hf 4.304296556940017 6.398082773964176 10.438775287108442
Hf 7.843482330058481 1.909231030507628 8.629999499303851
Hf 10.836969507880926 6.3089186310883045 7.398500497928967
Hf 8.260274743734335 12.907249536454238 6.796723970095615
Hf 7.660160302911318 7.068623593223048 9.489721206979045
Hf 4.5115766730689195 3.5758909819876705 11.57406100172359
Hf 9.356842908513249 4.458607442664862 9.102639204431062
Hf 5.2179323280364915 1.678407169339721 9.651982749812685
Hf 5.961012204874023 9.243738839802381 10.659119512442476
Hf 6.406964400036723 5.581220105216361 12.25154063153468
Hf 8.955220161661067 9.809150488656153 10.422925411449183
Hf 7.357450244611316 2.839893446995232 11.423724351911108
Hf 10.496999436971766 7.228502648756073 10.34577983454542
Hf 8.291507179065965 7.838789239288178 12.25176272864922
Hf 9.056669131967949 5.247994607401008 11.770960259097215
