54
Energy = -472.66966454 eV
Hf 9.619319372434946 5.100353972488259 11.02426956629403
Hf 5.373073394893555 4.600398445319017 11.746920555624357
Hf 7.18713811018604 4.072163592809279 9.465294328114844
Hf 7.295933284093303 6.894440373675459 11.183964930569894
Hf 9.949049413287423 3.4696365105180726 8.578906184538388
Hf 7.361836123440253 1.8098551522648938 7.4257062794518705
Hf 10.021674846623545 8.00134443044335 10.917539456223448
Hf 4.387963580664821 7.232942251512367 12.159822816473511
Hf 11.799085342750676 6.05067661974217 9.101096138441246
Hf 7.808548206905232 9.765456563291224 11.711244674908322
Hf 5.3745380515013075 4.256847163959913 6.999663161152692
Hf 10.064115041539106 2.1931326475057276 5.934535731771901
Hf 9.049235403931679 6.309259226838322 8.518458506746931
Hf 11.904025026239607 8.974915740339704 9.081795672109948
Hf 2.6886145179026673 5.2873172314768535 10.853045851458916
Hf 10.910311074299296 5.08916955832065 6.257595876862827
Hf 5.111997579241513 9.490276292408192 10.379652940063314
Hf 4.989605938548241 6.338881454886771 9.444580668986973
Hf 6.736294669469889 6.981172532527161 6.955977917158718
Hf 7.537678920395651 9.125755312397624 8.924552619327168
Hf 9.8651018631113 10.872429841414789 9.705184848325086
Hf 7.674040056522089 1.8675618720257774 4.4845214290487085
Hf 4.978046439997097 2.163657880873505 4.880560990163135
Hf 4.183116864323523 3.4067255605003193 9.348187676418453
Hf 12.247478786428218 7.794665187167243 6.66441450404822
Hf 9.309623782933313 3.9633007069405086 3.588823867056753
Hf 7.087228228147062 11.775340913765119 9.875507096431647
Hf 2.598575893778006 8.004937087295398 9.98634486209279
Hf 2.722547394321989 3.4525764395836993 6.162899789734764
Hf 8.227630859865188 4.250609632284528 6.340494559879757
Hf 11.426572644393659 10.688386251529517 6.738975124581055
Hf 2.4979884536780945 5.833422762755895 7.835824860024068
Hf 5.384310542579714 11.13456450802477 7.656725627262845
Hf 7.088636617210801 9.46397459830164 5.444975252039247
Hf 6.436329752207559 4.942584930632991 4.125303772716042
Hf 8.405562944614005 11.80639733199369 7.2902102767753725
Hf 6.1931475386498525 3.0835606819980663 2.192905756757593
Hf 8.788545198791825 6.8037019981760665 4.613196649243594
Hf 4.241885552071514 8.544120703212206 7.577847399329234
Hf 4.2066193454558185 6.540100190435109 5.409114308818286
Hf 10.956554008756878 8.926663096016888 4.375621223683732
Hf 9.536739101021006 8.834124120445788 7.0029303591551715
Hf 3.4373542831303463 4.118484055516703 3.372062443887328
Hf 1.4625158881947142 5.621981132049556 4.915120464522536
Hf 6.408056508624441 12.241333371312807 5.252516486418248
Hf 7.796035386102418 5.858031657330112 1.7904673768616552
Hf 1.9221351172912868 8.184118038131349 5.898349795334615
Hf 9.162095015083422 11.325348017655946 4.455718903095816
Hf 6.073726672837539 7.888884831145217 2.9862751932054312
Hf 4.271100887128663 9.72337251801697 4.792107426634429
Hf 4.974434392719337 5.670675709298811 1.5984407892711052
Hf 8.691669647614614 9.03472650210794 2.690804117944953
Hf 2.920944604692395 7.313548316622606 3.080022680855885
Hf 6.522398675168285 10.75115974908893 2.948994697632626
