53
Energy = -463.45138753 eV
Hf 12.610932017998973 6.614140125487381 3.992939707281542
Hf 12.962038584619421 8.989455547154366 5.222683233216199
Hf 12.88518831572028 6.654687079327882 7.016208506318059
Hf 11.506557984259095 4.536334880644701 5.406200257938859
Hf 11.089253091331738 7.305981508157341 9.43824658322931
Hf 11.848481537920938 9.477769635729658 7.7593710552469135
Hf 10.786512823731304 8.654434264417674 3.1337963306154215
Hf 10.25248978854913 5.051486222545139 7.8415197898425415
Hf 10.442204827146137 7.545852730130719 5.8933139161080135
Hf 10.048368260365097 5.760130708249446 3.1675141681378176
Hf 10.677439524877324 10.596045351671064 5.331279928992842
Hf 8.759982962930504 2.5590296358201288 8.227231258675797
Hf 6.598645570863814 2.014923549686311 3.8293520102656595
Hf 8.625099831767674 4.7118153749646545 10.19096203727327
Hf 8.544407229979855 3.7646522993925573 5.320993220843552
Hf 8.449954618346041 7.318011090035341 8.63531731990242
Hf 9.513711165487832 9.746587532135093 10.131751252447028
Hf 8.489713424770192 7.631018062912393 11.804259354090432
Hf 7.3297062633607 4.650111095788044 2.522646024866216
Hf 6.284896143085325 2.1315057918222107 6.69784232897129
Hf 8.80295475173102 9.979487030751072 7.367999283840232
Hf 8.181895028269462 9.410231073483459 4.490700969302415
Hf 6.1510833667806075 3.028384805617347 9.79234779570803
Hf 7.85397728463144 7.5185647330327665 2.202613152874126
Hf 7.171272555272915 4.804096026510838 7.626182285901686
Hf 7.675485992184689 6.541626728175714 4.997008210997426
Hf 7.385738866514402 10.371561774935596 11.92086493731933
Hf 6.189715321948569 5.716198346634711 11.321372860337549
Hf 3.7707531809494697 2.1518795539600353 4.772590136528617
Hf 4.769675359651012 3.3802598934792503 2.2514846702375015
Hf 6.310695462573801 8.546100194753484 9.895933752965206
Hf 5.453611442124093 4.423020912679068 4.934853779260174
Hf 7.037966191219012 11.462643156998036 9.253231481475892
Hf 5.752278884683018 8.297288795731731 12.699306333338997
Hf 4.8808309498851115 6.16741860241529 8.618464927892921
Hf 4.020081521748854 3.4999168165060497 7.694118867492229
Hf 5.558439779922162 8.372812482009476 3.931054794089894
Hf 6.153703046905554 8.692623550104503 6.832423533910499
Hf 6.630179776314902 11.500570541591355 6.162287404338944
Hf 3.620881324218273 4.3957381693432716 10.44214274988223
Hf 4.820363440586065 6.179609287110501 2.300026235723639
Hf 1.8617600771310423 3.8666389094978793 6.036647582375266
Hf 2.5252167951309206 4.706564802426835 3.4225219712357866
Hf 3.6780986792563777 7.290576134292209 10.955875317210747
Hf 3.659054970807078 6.680488907649387 5.78506261091363
Hf 4.648837919114762 10.50362969711197 10.910946445682837
Hf 3.354461624542835 8.698105734520642 8.398533156259422
Hf 4.542011459949613 11.134480721843284 8.022092991078368
Hf 2.002094994644944 5.974724854462771 8.1277905133239
Hf 3.812825196252986 9.911390410486622 5.487464832864217
Hf 2.4899093974459867 7.8733451609660055 3.5117531090127927
Hf 0.7857681165266507 6.17459555290285 5.248887163427608
Hf 1.4404191933401431 8.549007300643087 6.254193977233507
