51
Energy = -441.61955344 eV
Hf 5.952050503650844 5.145620483115394 13.845817187836696
Hf 4.636222471960777 7.356510839003419 12.50731181171225
Hf 3.4234814812805525 9.614191700501955 10.446043496349823
Hf 7.547152988128588 7.207071847333909 12.687062726444948
Hf 2.036851058372969 11.565593053525332 9.091003248367135
Hf 6.377406406543388 9.470504246162418 11.088252200024682
Hf 5.197320216663379 11.643044043015541 9.301447926504464
Hf 9.50172501906718 9.3504347055244 10.995984713458471
Hf 4.499267833124126 4.663405532089469 11.53413659231225
Hf 7.476914402324158 4.1873691293237245 11.427561840082776
Hf 8.140930456985744 11.349530666534974 9.656119197051678
Hf 3.3961427859443 6.766989706603889 9.84131633960059
Hf 2.092733037485647 8.866002691408212 7.928706369630817
Hf 6.294111839239269 6.594601084176806 10.100561396588391
Hf 9.463468323451584 6.343647293634071 10.614615157239884
Hf 3.654843249590846 11.07717705213761 6.939168289183291
Hf 5.138213469648988 8.907620146587163 8.13993590691386
Hf 11.399549183318387 7.90843146128147 9.319313331885393
Hf 10.079141482693933 3.456004577545918 10.305789114610606
Hf 8.027943968389366 8.583409305205695 8.689191356626607
Hf 5.37574245233166 4.065046230590029 8.76767756048798
Hf 7.146969704480367 10.905265667388234 6.909979526437579
Hf 7.79984426888652 2.097525292741709 9.381648176208667
Hf 3.4387232460242347 6.080640911206205 6.923879084099349
Hf 10.36509766873436 10.19886087643359 8.130952603759733
Hf 6.2239038432934075 6.38037524418102 7.034247495423802
Hf 7.945949626788082 11.408943308495168 4.147460934503454
Hf 12.11086891666719 7.715179056088692 6.477159856426018
Hf 7.066193161658417 8.667856517694945 5.027198659755021
Hf 11.4754518323819 5.2112916773145175 8.424155838799964
Hf 5.216358292711872 11.059519761483147 4.359201611056272
Hf 3.8619577775309493 8.625027282430601 5.3576529436212414
Hf 10.05908580279934 2.576700042747011 7.506580412532177
Hf 9.568800030496993 7.0882673904748525 6.851179618086582
Hf 8.359404936677427 4.7517866052168465 8.371840225988581
Hf 4.860444158097008 3.818978081695902 5.8707922401540165
Hf 7.134805972820839 2.356352399434709 6.608924088961449
Hf 9.854531531877868 9.671581461356377 5.299896290084701
Hf 8.058768761707793 5.012953726857863 5.308327420879902
Hf 8.993067298663899 9.418736769236109 2.306221116835014
Hf 5.260938313961012 8.725468484222475 2.6606646549905117
Hf 6.602504596931217 10.92973638494935 1.6785266425188672
Hf 6.722424244193184 3.4061309440973444 3.598145798336562
Hf 11.090302586631122 4.740633661161001 5.53354389703109
Hf 4.938441090397747 6.03678330332674 4.297215037565013
Hf 9.267930474057128 2.4283736485662644 4.740857603454861
Hf 10.28699265228263 7.14712365664025 3.8956847597222364
Hf 9.556987447434379 7.007489601924375 0.9868126341399177
Hf 9.498269515436407 4.508707961368601 2.90283579595246
Hf 7.4619312419819686 6.57965550393765 2.776369656845361
Hf 7.094606503476145 8.344261238509077 0.4196957192924915
