55
Energy = -481.05872146 eV
Hf 3.0527709444435605 2.964616402037105 0.8964776723912938
Hf 7.277857428275899 1.6175270741805308 4.624026482153422
Hf 4.579220910400672 0.6062378343152891 5.347392304340718
Hf 3.706039215628299 5.2644365749665285 2.710744814711723
Hf 2.2358908165337423 7.56981015773428 1.5579317688208651
Hf 4.982206175417891 7.381894178177048 0.572362670797923
Hf 2.9753363892667277 5.481868682494272 11.277955621559366
Hf 11.419828162803176 5.529303314532103 8.106738166490567
Hf 7.840136677384115 4.686395130880404 7.247755027033609
Hf 5.652416716927205 7.454083697861865 3.4643287194983983
Hf 8.588175773488016 6.783177963463797 4.420587112837064
Hf 6.575815703430144 1.7611809499786542 7.4100578999594395
Hf 1.0217342577162352 4.821592995290094 1.7180104532616969
Hf 2.933900227844627 2.832024220708223 10.605621771924302
Hf 0.8848730848589247 2.7026474865387424 8.47902439483159
Hf 11.419828162803176 6.196739967539288 4.374585265242269
Hf 8.430720349458399 9.492431439198414 6.4701152582291686
Hf 10.170218859869141 5.017059071893158 2.1715147786158555
Hf 3.645180269587708 6.197818018594212 5.691423974211066
Hf 1.1707626604032688 7.556590967283544 6.545943996965158
Hf 2.409944108993388 2.7940797832877906 3.666353968116616
Hf 6.1434369538413875 9.712992308087232 8.172623804211685
Hf 5.5733332896285495 4.164410992544863 0.5557935586489825
Hf 10.786893129133595 4.103652051200381 7.343655622217009
Hf 9.987668223153863 7.9017353391449845 2.1656970331439203
Hf 10.650233104067304 8.89187131849781 4.703024496985501
Hf 5.090547445959124 9.951255853568117 2.266997554050196
Hf 6.307560739056753 7.368440991986406 6.527082838352435
Hf 2.8111039673842697 4.8165493956726655 8.310549968413973
Hf 9.880040393812312 5.5588613130098254 9.447559429781522
Hf 9.30613590958399 1.870131504291055 6.78466969756785
Hf 1.1492254989465007 4.312542048395505 5.76611551847569
Hf 3.7531029472333053 5.485051306996072 11.02420736989872
Hf 1.9621779629051608 7.358000371751789 9.433186629095133
Hf 4.275189569825664 3.310443019132743 6.009229144201578
Hf 7.893942106838788 3.0112361885792565 2.141519940592488
Hf 0.9278014956424486 6.670231881930642 3.887941494318496
Hf 7.586203571191648 5.9731151739757 1.6505260868725475
Hf 10.299852975411774 7.048632282554365 6.991871148439457
Hf 1.8891023679507675 1.454082927682849 6.012796573108206
Hf 8.658561941425646 2.966782769607658 9.370273896081144
Hf 3.630601078773193 1.4098994042931887 8.186329094246757
Hf 5.435755889733683 3.735619149684064 9.088206911690484
Hf 8.038064132800455 9.77282712022924 3.54303055050929
Hf 5.627686752022661 10.047185280786879 5.321935346739104
Hf 3.0779035923332274 8.637139032028887 4.271684430663615
Hf 7.257171625120817 5.452632715405861 10.241755170456557
Hf 3.6073715163382296 8.867000507079906 7.236868409490605
Hf 7.333451635033811 8.780073917259637 1.0725412422743028
Hf 5.068005969923003 7.074517680418498 9.125662226221923
Hf 5.146591813955285 2.0921214709526548 2.6779446439258936
Hf 9.410210251841683 3.869793385763969 4.690711078719221
Hf 6.4336950204393055 4.580328712646738 4.194892306045876
Hf 8.138107225909737 7.818688340004204 8.959875041918567
Hf 0.9878430368809735 4.824623270292083 10.561719650281523
