53
Energy = -460.9985178 eV
Hf 10.796862341551344 7.365029542307221 3.73311522215887
Hf 11.20563176564381 5.553937062035556 6.246314696466893
Hf 11.56348115751904 4.760443519103141 8.991152043301211
Hf 12.027383665936036 8.287387793310387 6.174491556252087
Hf 10.650763291515531 7.448511319305717 8.575392883276884
Hf 9.696161279164484 3.216131238423651 10.237754693719795
Hf 8.935511603915831 5.093287240772872 4.616690915710327
Hf 10.342331423177894 2.6322903064985668 7.519592857264492
Hf 10.8778273977205 10.300935010808177 7.79604727022158
Hf 8.626900475966135 8.98575390545547 2.7186981270382597
Hf 8.755095415381877 6.131287544714974 1.6741536713677083
Hf 9.000919241787434 7.687140391524501 6.00094579792196
Hf 9.208612092749691 12.298994610756104 6.641551347798803
Hf 7.848792145738611 2.4993670508393873 5.811852894273306
Hf 9.683393880782093 6.006415215160765 11.028940365200297
Hf 8.753637648970024 4.92137776008522 7.79308298275349
Hf 10.445643261208641 10.118423843839693 4.851509578731261
Hf 7.927712158648594 9.833225893928368 7.884539711763682
Hf 9.271182884099774 8.983904935018092 10.630793007825
Hf 7.19339402410453 3.8568503435572956 2.979205886490797
Hf 7.585894963504412 2.226586114336826 8.704723963810208
Hf 5.93427808949323 5.343747892536848 0.9591645218043505
Hf 6.061515690307717 4.74949073885941 5.676851824861546
Hf 6.820331371471868 8.002557333549818 0.7024873022183081
Hf 6.574792693129905 6.8743962869994615 3.4570627492444808
Hf 8.798345619053752 11.937775859049415 9.609011020400434
Hf 5.264844932299604 2.237055633941368 4.258064936867336
Hf 7.27288322332776 4.327334020511507 11.101711099769613
Hf 7.9159733182211 14.297569261588938 8.467876043847632
Hf 5.573430549413012 9.61077353490721 2.875502364410891
Hf 7.372595363413623 10.300717720230834 5.071897125802702
Hf 6.033012819178084 12.71263993306984 9.791951717516836
Hf 7.15714436456376 7.158291311373762 11.929586622735306
Hf 5.112557197669928 2.096748819445806 7.14211952186389
Hf 4.2352779979219095 7.437897709258356 1.6261731364303478
Hf 6.675979365623619 9.888997675254886 10.660379970978747
Hf 7.52091259847368 7.1923734119003395 9.14392409214939
Hf 6.445400616733131 12.466572078531938 6.977622754058207
Hf 5.747309014554591 7.832812365528923 6.53245867510157
Hf 5.453737106094186 4.897301317114702 8.601922777020187
Hf 4.832757325430828 2.6643383304426163 10.350517985114994
Hf 4.199223278543342 4.984199529288316 3.3947697695922545
Hf 3.546487524742339 7.890960596617694 4.377774703680211
Hf 3.1150903433157824 3.2479218529063134 5.4823883156117175
Hf 4.860614499573474 10.405414040596465 8.314510166768084
Hf 4.543588383973745 5.37885352313038 11.42515840924592
Hf 4.347843511536291 10.421494513676526 5.4972921149294764
Hf 2.8094793359316887 3.445607751997892 8.432450152771429
Hf 4.657783998941344 7.7634625861146995 9.49895545839116
Hf 3.3694422220312923 5.886489059330058 6.706017455074482
Hf 2.926536168114965 8.63238955103922 7.151312027515798
Hf 2.4741644443313326 5.996538305407575 9.546842561499838
Hf 2.241243841576772 3.68164411596167 11.305369207272829
