53
Energy = -463.76350361 eV
Hf 3.9138013204849176 11.87034006499501 5.544904069333201
Hf 4.49510442940794 9.888557812811744 3.6299353446202085
Hf 2.5334408924185503 9.141054324351838 6.6452749494747465
Hf 6.660800084456264 11.53116443298378 4.625212259074879
Hf 3.459960613560547 11.5062918578854 8.203682529143094
Hf 5.991909258348412 12.556646948716075 7.51035318399804
Hf 2.143053074948217 6.042286515465709 6.359962928712698
Hf 5.206016146747267 6.654329074213075 2.3056254749852028
Hf 1.473070491943983 7.296921005861783 8.841638444500026
Hf 7.165083720236621 8.687909532385174 3.8398781137016407
Hf 5.476859425322544 9.552118086785349 6.318896731943948
Hf 4.226151913977876 7.2443882576429255 4.896388612577251
Hf 8.05684251850377 6.452664237716229 1.708914871471173
Hf 4.31908186226938 4.374786483554633 3.9911704936452455
Hf 3.079730389123903 9.384661382238559 9.943649001292375
Hf 4.216862841883937 7.184387948282867 8.096563908022025
Hf 8.348534557731776 10.614126045100388 6.977210336660697
Hf 9.965050507832322 9.927740434758546 4.7020546165061194
Hf 5.1636390107175325 11.923246146312492 10.518497311486414
Hf 4.874607437486891 4.674718029786255 6.768101960370104
Hf 6.144012140489655 9.881868449487495 9.078009120475201
Hf 2.63567826647953 4.691614657263754 8.774515274787683
Hf 6.448281139394419 4.0399850727999596 2.21120525731587
Hf 6.762639132508677 5.760966356861252 4.586005369843653
Hf 3.408346350747782 6.57536995784529 10.954381855764762
Hf 9.872344986362004 8.675357314715855 2.3490232913425366
Hf 5.20516647821609 8.811167798022877 11.941407116818192
Hf 8.026050786728552 12.053315933380953 9.50476167663846
Hf 7.46974819455038 10.535627145838136 11.681500087854031
Hf 10.903199956238412 6.09180936195919 2.1436152243895514
Hf 7.841357496020837 7.638749707168256 6.952864908055855
Hf 6.630296309119104 7.015869210790197 9.767412442800646
Hf 9.175580231948707 3.9326527073423065 2.7890707755844786
Hf 9.61785970329465 6.894523988065373 4.684516496907287
Hf 5.299784144604322 4.257793120997953 9.943434841636744
Hf 9.20403694310004 9.388606999977622 9.62602758039769
Hf 7.511826124055719 4.606810067734939 8.182365152851071
Hf 10.77229040000491 8.657621050148162 7.045408433977734
Hf 5.863657246794582 6.036643591411873 12.403029263215098
Hf 6.929231149130207 2.7553002772913673 4.934203081513786
Hf 5.894586322421267 2.1470659944999735 7.748551504297901
Hf 8.092296880808213 7.816703118361537 12.040411768028703
Hf 12.05888961727796 7.809317929601288 4.297201338293057
Hf 9.240644535618912 4.235556876628921 6.064959059824594
Hf 9.63679412275487 6.547326149473615 9.10200831167232
Hf 11.617114688701502 4.435396104154229 4.430343509655807
Hf 8.147866612405098 4.874004103992585 11.06505857365107
Hf 9.915828135160385 1.908500944896248 4.605866378432438
Hf 11.590571348446252 5.787604772274256 6.96122107246774
Hf 7.66223487422332 2.288189791064143 9.925636653348796
Hf 8.8456726962339 1.60617397658441 7.358688980814489
Hf 10.225720498351686 3.574147035675169 9.18046103537492
Hf 11.530814085221387 2.743403428199484 6.799880194009582
