53
Energy = -463.11549506 eV
Hf 10.470673802077412 9.399493715343029 2.8965048206709754
Hf 11.557581144284319 6.618050559774485 2.864196557606365
Hf 9.417367670322784 4.734991555980448 1.9943270138552422
Hf 11.760122688495304 8.748708902833457 5.376814293987751
Hf 8.698512538621054 7.3707853062635404 1.6069931586798685
Hf 10.479950922313012 4.288500290072431 4.51648914833284
Hf 9.272020981050733 10.395977494610126 5.356783561667905
Hf 7.5416735604136855 9.503863835374773 3.2160969524504086
Hf 12.342558694687611 5.94019548832178 5.585657721971394
Hf 6.531255353514049 4.706510362794887 1.361133855905398
Hf 9.422365617856343 7.305809648635227 4.532769966986027
Hf 8.010623395043316 8.149220307566937 7.081648568704639
Hf 7.908836978604676 3.083722639441929 3.8371977995149193
Hf 10.364628910411549 9.721172935962887 7.912193707298036
Hf 5.357280099762331 7.686958001666256 2.1323944974797406
Hf 8.06283431795611 5.037079951062118 6.177047113459095
Hf 6.20489102940029 11.058455831107896 5.780659836133911
Hf 10.569894375993673 6.757128128575082 7.584189740997122
Hf 4.711946482463059 10.206011610394292 3.408219195652294
Hf 5.247334420766997 2.9170036126632795 3.2131874973108503
Hf 5.676711246258925 8.212506497686741 5.173685325105504
Hf 10.682105138925 3.8935590545364485 7.733770613956917
Hf 7.472200219758009 10.572900803945664 8.63114013546893
Hf 3.567441899751586 5.147665968623959 2.491056164891809
Hf 7.042526923401926 5.87820136956961 3.687220199912421
Hf 9.13513024959265 7.93979280330199 9.817095536181974
Hf 8.316571953930914 2.365918703870616 7.384123478581066
Hf 5.131478202537982 8.869273551660578 8.08157994083221
Hf 8.269334119273173 5.191893498563591 8.830138326088854
Hf 2.9144356006073657 7.931975882826465 3.745865584732396
Hf 4.475768112832448 5.526643968134777 5.175559362284823
Hf 4.675878221931707 11.659166154182493 8.177509266684108
Hf 3.41238217699507 10.204412341549727 6.003013034727327
Hf 9.067374836651648 2.809827153450383 10.077355530394378
Hf 5.669372630029624 3.1003077546886035 6.255953563158799
Hf 10.477320181992576 5.329593510653663 10.453776826709682
Hf 8.033232829536148 10.076936075115366 11.483127734314964
Hf 3.0201427986458245 3.1352499922523767 4.704301333695891
Hf 5.437115199101953 5.833109583740347 8.010352152631752
Hf 2.8198727768788885 7.414440792350503 6.796142212818583
Hf 1.6540036012510377 5.512288270487025 4.888991005084081
Hf 8.366489195235417 7.461281789897127 12.700379536452678
Hf 6.214973887493564 3.093198326552523 9.339031939103327
Hf 5.209724962742435 10.59887428972813 10.77333270177321
Hf 6.310452395321285 7.700655993398976 10.651820296801077
Hf 7.491061837539583 4.835276664252077 11.595770118873936
Hf 2.706001273243307 9.643166622474537 9.180202956597128
Hf 3.0663682074576353 4.398913965810861 7.389208790612721
Hf 6.029186449342777 9.144254774681905 13.160932592961444
Hf 2.805252433709351 6.755021032337635 9.44577751526786
Hf 4.532877593594996 5.148051562329384 10.910530230813501
Hf 5.708938878595358 6.3955920070308 13.22371557547773
Hf 3.674147927257609 8.130474779344464 11.790833917074686
