53
Energy = -463.46905438 eV
Hf 2.8334712852751487 9.475876500582142 10.09306846519127
Hf 1.4099673903172751 6.888696611716565 9.850498053372691
Hf 2.9125085710092393 11.14384185038304 7.750079597006563
Hf 1.4411617459735702 8.522649050373188 7.478978605449292
Hf 4.901451096868993 11.6373225654481 9.704776623718438
Hf 3.955634186298471 6.916687345933818 11.10095688711807
Hf 5.461163597920524 9.576737104444218 11.798876159967872
Hf 1.222174552078479 5.420911123612787 7.542934614710467
Hf 2.1714589082571996 6.68636103983212 5.265394084769581
Hf 3.7421402189908783 6.721413373987348 7.975551229139179
Hf 6.376094932520261 6.615073751881715 12.542687129108417
Hf 3.5629343441768766 9.347099980580264 5.489075189983063
Hf 5.126034053791904 9.34591068559293 8.132072864923545
Hf 5.623235775969864 11.631368384276087 6.542485907920996
Hf 2.9881224214713282 4.469867652703799 9.616104104682055
Hf 5.138012053339213 11.253750799887591 3.5752253927608044
Hf 7.681976253584341 10.690721785994896 10.141243848611456
Hf 6.770229056249885 7.7987529887145755 9.968779821823615
Hf 5.957326341676216 4.991030990308341 9.837662799072373
Hf 8.289194680539108 8.725121642434253 12.139408018486243
Hf 4.928218102899574 6.500587656257979 4.8744073984444904
Hf 4.518378284824177 8.603126063846398 2.831953200429892
Hf 3.7762015183197737 4.120535363362278 6.580096082830156
Hf 5.628321469761594 2.336547292153557 8.423021505371361
Hf 7.870518887319545 11.60617460163819 4.536545477623892
Hf 6.454227585488079 9.24359838938317 5.0294550584741815
Hf 6.731780674800698 7.151789147202161 7.139424869251528
Hf 8.174792942409532 9.91479866721478 7.224689558594639
Hf 9.608755241806195 8.463887326817456 9.454095115971743
Hf 7.286317275593297 9.644780728282525 2.2422740961841745
Hf 8.731965539550007 5.559228027885012 8.424667990758508
Hf 6.651958139054167 4.324829510174882 6.694213546513202
Hf 8.084554387683186 3.0866443731358353 9.815759433148797
Hf 8.811216759295771 6.000816005637232 11.15576206187315
Hf 9.680577753805837 7.425553046019575 6.400974076092329
Hf 9.74374272752094 9.23135587834538 4.206738933208615
Hf 7.839988829239994 6.854624327873365 4.117371992539391
Hf 6.378780896228005 6.6843031649377425 1.7517600083320437
Hf 5.798472404093962 1.8840100939538527 5.615366060145616
Hf 11.206830265147111 9.595172334437343 7.206432922306322
Hf 6.2251611365312565 4.163414501601205 3.6774064275465923
Hf 8.332335989327154 1.7725169744851932 7.194077295544455
Hf 9.16142496422598 7.569500493657024 1.6518240615132338
Hf 9.331486663396737 4.484646314610482 5.474271925188131
Hf 11.74006331796058 6.740303928720788 8.216390552803563
Hf 10.669449688072245 3.441345784325848 8.302667520918785
Hf 8.43230456724506 2.0959149001750865 4.1603408321843816
Hf 12.3643122984912 7.7272474484485745 5.4875314549529275
Hf 8.713282594562253 4.673736391894406 2.382244663018064
Hf 10.93609876107725 6.305444310253095 3.5013881114896437
Hf 10.865015949713243 2.065151987653953 5.864093012797966
Hf 12.171529357206532 4.734397850546417 5.9995172289352885
Hf 11.122023583590149 3.424391344274114 3.487297394796425
