51
Energy = -445.57360394 eV
Hf 6.2299030293640625 2.5006878658618144 3.521972774361013
Hf 9.410735493550598 2.263125964764861 5.314685492321038
Hf 6.6598795412195235 2.532276264690321 6.434764348467976
Hf 8.91410259765917 1.91395759576285 8.17961356453531
Hf 4.046796252966525 2.6749631170932213 5.442914999837074
Hf 8.487759357267471 4.6896780037525145 3.847315341252494
Hf 6.315217063469019 4.797421975549758 1.8783129925415851
Hf 11.055216016132487 4.966614707118671 5.038026288907583
Hf 3.6697063219936874 4.185394091053818 2.921189002480025
Hf 7.061786841253225 3.94200532807205 9.560952968065191
Hf 11.339660117117452 3.126301883577924 7.332499568983463
Hf 10.223285731052927 7.74422519686159 3.2332289507975966
Hf 5.757218751132937 4.973351788303019 4.817320214987213
Hf 4.684924561177662 4.569006413025415 7.75597017291853
Hf 8.797450513511219 4.5085214038430825 6.982678827110841
Hf 9.999847150892103 4.104749525640411 9.73842228714904
Hf 7.184890384713343 7.3731126582680515 2.9135462017178635
Hf 2.503827008004886 5.126025019224684 5.663008232511993
Hf 9.12572034247857 7.17490974049551 5.682389395061907
Hf 2.8027613351659117 5.9596634447787515 9.586122066190134
Hf 4.316130231609339 6.929553530479784 1.5902562026683136
Hf 12.037342377981552 7.664780906331606 5.478045870826707
Hf 11.363776522461706 6.072798074693199 7.868622242055204
Hf 4.985954917343651 4.964616182470669 11.662239776561332
Hf 6.592524856073281 6.711075906956689 7.045113694692127
Hf 1.7963903323366912 6.365119098280943 3.075677263941801
Hf 7.876023738315852 5.767792087923271 11.710211470874116
Hf 8.515884702691322 6.510379023847085 9.092007499532095
Hf 4.210887247873537 7.383295219891519 4.388709054975472
Hf 8.364758169134417 10.043301815339719 3.308658487503499
Hf 10.617032674432902 7.606027750701298 10.465729985721989
Hf 3.7882466600859392 7.448618855968601 7.264387836819642
Hf 5.523240301393724 7.129987006473544 9.946213894122579
Hf 6.635505006350118 9.000618427777383 5.393107337064486
Hf 10.37448422066687 10.014141279811422 5.331883307963083
Hf 11.654921782887133 9.07002986254207 8.028898698585014
Hf 5.340680337675551 9.637554231284563 2.8521230270666984
Hf 3.3857942125445906 7.414437947626356 11.929057488222327
Hf 8.705965421522453 9.197256897115158 8.040149258823018
Hf 1.5938432833576934 8.000300187633789 5.412827349969478
Hf 5.9573623027315135 7.5131387220649435 12.848817139146167
Hf 2.5283977279529215 9.07940408042904 2.9025755586901134
Hf 7.873593266013042 8.954551786260332 11.038805126709072
Hf 3.0049742240027824 8.891305580612434 9.54289808117305
Hf 5.7255009851549685 9.71959557274097 8.275444388320548
Hf 3.796248493575849 10.010336028853256 5.4352590707162305
Hf 10.267373800621778 10.439255138091026 10.23546387112001
Hf 5.095909088605167 9.767439546044292 11.245007928015484
Hf 7.654704851187943 11.409741883159114 6.400451114649272
Hf 10.198499385882961 11.653956818076395 7.723235029570818
Hf 7.7698358580246145 11.557492782042765 9.3668943308582
