53
Energy = -464.08665011 eV
Hf 4.963662879714174 2.923957051282409 3.3684604055418124
Hf 4.033622815832555 5.088993434879825 1.7418791109425407
Hf 2.5291518554631662 4.499952483994381 4.213752534440195
Hf 6.855208194982149 4.807576204743695 2.0110697604475614
Hf 7.391488027467649 2.091191950186745 7.138378947823125
Hf 7.479481334550162 3.63111063014442 4.736489727346575
Hf 4.80702219915999 3.392772227959631 6.329289582121136
Hf 9.541861986635547 5.241990264585823 3.559123518389672
Hf 9.954859091416397 3.8636945796604913 7.028113197423541
Hf 8.477332550259039 2.9357707186571425 9.778916661503931
Hf 5.1844053675870345 5.582423476044945 4.326826272218465
Hf 5.58165468667339 7.650424534122394 1.924000913019579
Hf 2.8401165273931714 7.280976822248372 3.03740575334665
Hf 5.679287193474288 2.8656940059817786 9.143687986015074
Hf 1.4845279418072843 7.001119771346581 5.645340456443963
Hf 8.371441298626578 7.2540987447774326 1.7736987348515874
Hf 2.194785878664788 4.478642107584827 7.212555097689412
Hf 9.547781500052949 6.583400500577533 6.284054256734785
Hf 10.32274011403553 7.99438813769765 3.7824693059853676
Hf 7.431637184241092 7.306013699524162 4.533240160568473
Hf 9.435798044640972 5.799679738577336 9.337821173584935
Hf 7.0700671150026135 4.978007067166175 7.322810056974863
Hf 11.233328018640952 3.748817863171531 9.8409775594556
Hf 4.146364215062619 6.600058604814342 6.899843061212795
Hf 11.953186306433993 5.861029831725321 5.12479779574252
Hf 4.073461331299475 5.226076368636699 9.46084723866553
Hf 12.098224699953084 5.994702011663494 8.008805672919927
Hf 7.437306162286548 9.76927136673045 2.9174182379505034
Hf 1.9976593340380577 9.651002178483031 4.41688482324512
Hf 1.8196223077264309 6.870406417119971 8.543005338483706
Hf 6.498185210793033 4.304328753198179 11.632056224853292
Hf 11.917520313943944 8.518480258414945 6.40997888546574
Hf 4.768200631704607 8.825094187497987 5.0507211240017185
Hf 8.978826583235751 9.790844030341868 5.611019897374743
Hf 6.5426701929635644 8.415685537061762 7.478678748654855
Hf 4.439111943231493 10.48570474362605 2.9091994805522323
Hf 9.45887086601966 4.8269013184082405 12.010201079465626
Hf 11.841991834898478 6.207842706339845 10.993427419252935
Hf 4.719992484106381 6.598139842108419 11.902894133318474
Hf 6.66098992096223 6.542891374113668 9.825824115227869
Hf 9.257586589210643 8.621939803062665 8.38823378589192
Hf 2.496842225752499 9.401316668400861 7.25064225092688
Hf 11.921811531888194 8.720871829635955 9.472541864602299
Hf 3.673879576663232 11.520376734684712 5.497312528239746
Hf 6.443092140920047 11.336952383711775 5.230501468365464
Hf 10.805651084183685 10.889666781554027 7.672651105854772
Hf 7.89556152192558 11.153038067488165 8.097708394115802
Hf 4.195614009180886 8.347242859392836 9.495530982361025
Hf 7.389205250336495 6.9374986991762135 12.616266235372082
Hf 9.774223587061238 8.04437658309159 11.56357580878137
Hf 4.980405160027229 10.89243282537493 7.9219984910501475
Hf 7.092791919865712 9.343517903559075 10.378072627535289
Hf 9.814845553077536 10.638501668505173 10.312452594357447
