50
Energy = -436.09027552 eV
Hf 12.239637572663712 5.362088619660475 8.734898064503593
Hf 12.718142621308138 8.230526322114446 8.124350084485386
Hf 11.113732644626777 7.082935839497861 10.758919828138579
Hf 12.394556791247235 6.0458084527133655 6.09919928244324
Hf 10.143162998518372 4.247305574239126 6.909960471341811
Hf 9.688470674977982 4.699885998646884 9.841241989894984
Hf 8.370956746787604 6.0847449695632045 12.121939016616972
Hf 10.177900212913993 7.196284807487118 7.613891397460427
Hf 7.3820131377851705 3.4615554858604516 11.160427090772172
Hf 8.896584233728994 9.398269887439836 12.090639354469543
Hf 7.512625718841029 3.1159584976253445 8.154799314358707
Hf 11.006850817132763 9.758604560254412 10.038448648423657
Hf 9.816255594235956 6.211498518006202 4.650169682263468
Hf 11.567134470951938 8.58583970897865 5.345369111410436
Hf 7.440931908996365 3.4232837772407634 5.215032337018393
Hf 8.448721574200595 8.146318984355075 9.892077779998706
Hf 6.857258422346267 5.728415111863102 9.5146313511046
Hf 5.231362395190777 5.3241183991552115 11.765492387597474
Hf 6.325322819220013 7.984406631443062 12.099628533564987
Hf 7.708296929386285 5.958327956980638 6.650208406000743
Hf 10.562859572541088 10.330284068903564 7.356269813878711
Hf 5.033080014589835 3.2492203507465756 9.632041020972647
Hf 8.718549367370604 7.733096219932537 2.4357594889496417
Hf 8.624558585468408 11.319872111099697 9.377833658995723
Hf 6.227606949583383 10.307372426724264 10.546304233881548
Hf 4.677698930806525 7.780599253119223 9.665404590772708
Hf 5.2124592583999 4.951070897978052 7.2955397007089005
Hf 3.1532819491034467 5.287974298719984 9.480096317113627
Hf 8.683943304619717 9.080442506733542 5.124692570388243
Hf 4.645111604624761 2.54202713075563 5.8338247893353445
Hf 6.082342788737802 11.972182384578934 8.086827059242378
Hf 5.660056431082827 2.489267357102331 3.1860044213493244
Hf 7.600907885276515 4.889307735514452 2.6011117425538077
Hf 7.062941521322673 9.272997743434363 7.701529809562609
Hf 8.1949061765127 11.691104736950393 6.393781202932586
Hf 4.725552991857054 7.711010626660721 6.511962402989647
Hf 6.55165534205524 7.357059917979404 4.21621853797874
Hf 2.5124692220280713 4.5142351848449564 6.536629496516411
Hf 4.000070358761176 10.026344551020895 8.084950641689284
Hf 4.987243566482488 5.058468327977884 4.276352410878561
Hf 2.1797288775165957 7.3765149192354285 7.6870256213727
Hf 2.834733623870463 3.7048358293742 3.4360477144110617
Hf 6.823967588366808 9.77934810455486 2.76700076849062
Hf 5.59379575161779 10.40647003513865 5.48183792407208
Hf 4.913222534486909 4.368380510814191 1.3781026405837253
Hf 5.976968088577068 7.155516529406173 1.421199062629908
Hf 2.2913137311084344 6.754560877250962 4.74671621543389
Hf 4.062537016045654 8.7994059533225 3.2276274300083774
Hf 2.6242441760943778 9.499258061247355 5.625290657838445
Hf 3.2160291498988944 6.358428544386147 2.1022813148137374
