54
Energy = -472.61910203 eV
Hf 9.968193003021947 6.824144724127182 1.7814346988208216
Hf 7.474132433331546 5.760902041736577 1.2083295558253058
Hf 9.360117911178287 4.050299035172514 2.4643480715416866
Hf 7.727706120549588 8.52995107797131 2.2667924438886327
Hf 11.672274474602245 5.463187339477775 3.632132689601956
Hf 10.229610050118161 8.419540320475571 4.305942594455099
Hf 6.317061305690864 3.8507422572675667 3.2078577694754644
Hf 8.141617741999948 6.144613848851587 3.998407810943329
Hf 5.178156183036413 6.741761267369398 2.475963210219993
Hf 10.404584371094812 3.106429037714689 4.955548941559527
Hf 12.675269853811033 7.236106992221116 5.814327627804235
Hf 7.823969572148967 10.621742713084975 4.192628387220272
Hf 5.153562591329897 9.505353906645094 3.6659059948685795
Hf 7.68372672712972 3.739989799696302 5.933962072247476
Hf 12.639045458457895 4.316987289858197 6.066225830350789
Hf 2.9547654222608988 7.415451289347936 4.406261498458089
Hf 7.979550768915751 8.357839618916962 6.014149340583698
Hf 3.483978339152917 4.649748545859986 3.5163233317696005
Hf 10.168263808499372 5.859760391442523 6.200511979816476
Hf 10.581193967595267 8.380391407872622 7.741379777965806
Hf 5.358916531432583 5.688041833053901 5.324906377861223
Hf 4.364708414642515 2.900312200717655 5.648188653236786
Hf 10.403796749627782 3.4909446195986455 7.835549001519506
Hf 5.722420341681346 11.37026346826257 6.136260108812622
Hf 5.124366537716536 8.456700917687138 6.387322145814164
Hf 12.295290320093514 5.9216866352686655 8.314472906921967
Hf 9.453337103072295 10.874490366668718 6.493288092764272
Hf 2.4765674058531117 4.981948940683879 6.173497302773415
Hf 7.904835498333649 12.751150732990283 8.183208654732823
Hf 7.598796503622444 6.123334689324071 7.918502532469105
Hf 5.985166465207664 2.2589035816025906 7.951058026293919
Hf 9.993888319826642 10.956543362065414 9.439848137943367
Hf 7.914833234163215 3.607425735322825 9.572232892255764
Hf 7.1108189637279535 10.118119822058002 8.331359768536979
Hf 4.961119839882335 5.068337247351196 8.04089738776871
Hf 11.251902655458833 8.383367207931226 10.579829371010847
Hf 3.0073146259010786 10.083540259857983 5.558830321425741
Hf 9.885904350421246 5.850253008259867 9.712757181603337
Hf 5.316975800260563 12.344621733607083 9.033242200023304
Hf 5.183900643922547 3.4569597267922294 10.445564420328493
Hf 3.5958892288987294 10.257520332781192 8.341930566413838
Hf 5.18444297634727 7.948906802268909 9.509807857351483
Hf 8.460480211016682 8.30227683238928 9.977978104322384
Hf 2.6875066967773718 7.595299987820055 7.620433286821017
Hf 3.2380332036116717 2.9807211752837786 8.384808981927213
Hf 7.47051230906598 11.540445610143248 10.92355037323585
Hf 9.51993403530446 9.971750988354383 12.157555154086266
Hf 6.812127245361591 5.942052194544291 10.889410345601773
Hf 3.223999901717701 5.7916947001361745 10.115057686392426
Hf 9.282059629312052 7.133823536898523 12.395460996168046
Hf 4.681411863422511 10.38281185221953 11.214933519895455
Hf 2.529391437718369 8.579348206537508 10.498807623633542
Hf 6.890785087025502 8.926970878376085 12.481212787587543
Hf 4.43188314491272 7.451340762002027 12.259275477685552
