52
Energy = -453.54807211 eV
Hf 6.6716436353236155 12.065697971754574 6.298491549179207
Hf 4.187929861605447 10.970320238688755 5.165074731459353
Hf 6.942847541078811 10.929895837020444 3.7085007041034
Hf 6.7144812481184335 8.115100798910113 2.6849791099900147
Hf 1.791124340113581 8.923349427852944 5.465449276467777
Hf 2.0013520515905476 11.077816385791339 7.240384626019259
Hf 4.38312619600074 12.215038661347368 7.895983462895882
Hf 5.785905114005132 11.836573452871972 10.447193097223588
Hf 4.33370831969355 8.063225799958946 4.366990130655453
Hf 8.828654680930423 11.78122319119147 8.8261035581802
Hf 9.303658492917869 9.264672002793041 3.160906365938244
Hf 6.390844882436422 10.009349356480527 8.562361546925752
Hf 1.3648999739783676 8.572292682551648 8.28891284406186
Hf 8.920581033213393 6.580758901916762 2.1809816847419694
Hf 6.791422425988098 8.894738866007854 5.685135633497817
Hf 4.045158887017457 8.858127583677089 7.2004454692497575
Hf 9.158732262737326 10.91051422803288 5.815213298529132
Hf 2.5933635319745347 6.33378814712714 6.8056792993007305
Hf 6.871052329596549 5.215254161093023 3.637682896441299
Hf 8.005842175774672 10.299280755652404 11.113784363465106
Hf 3.2402833717076347 10.374207526946705 9.798541420506114
Hf 5.520930350387186 8.859136379018235 11.228669430771955
Hf 3.6096092947396192 5.231822186060043 4.006413621838317
Hf 9.144474788696833 8.859290199577295 8.094154031378372
Hf 5.329800393197176 5.888223368781646 6.107317332447092
Hf 11.198664869012585 8.872695245424538 5.710892817487238
Hf 8.960882924176305 6.944239744054552 5.124966811836728
Hf 3.3651671656183413 3.6205454361215614 6.349821248423959
Hf 6.53244251899735 6.947899233003153 8.70401119160771
Hf 3.577645859241727 7.27366696960335 9.74823693255038
Hf 11.315037245418889 7.086328128982878 3.430102787032865
Hf 5.316049389791066 3.028084600346662 4.520214971955648
Hf 10.684510495153113 9.79620217512079 10.352461337136658
Hf 7.83215994079395 4.601831860355075 6.677045283915925
Hf 4.479803872833987 4.609645723938438 8.896828075108303
Hf 9.961635646444712 4.48350492308337 3.8924821157763736
Hf 8.364392310682573 7.494696845941956 10.897748029256745
Hf 11.336405770688982 10.762155399783826 7.817856386431117
Hf 12.162239110798708 8.03822953295069 8.417167713987281
Hf 5.722290680351351 5.903749749953035 11.24968833518373
Hf 9.758784949289494 5.954920640483499 8.60149906592324
Hf 5.837335074318874 2.4229042607145397 7.219055475009126
Hf 11.662846662194395 6.038629230319193 6.0840397694090305
Hf 8.119445701012667 2.355445435008381 5.108508801276145
Hf 11.361912195890106 6.7966812785290776 11.00429154787083
Hf 7.412089610370258 4.191311842532795 9.637664556639821
Hf 10.598589451765248 3.4637838468987416 6.71348615526739
Hf 9.350320594164053 4.933927732530053 11.853526729807207
Hf 12.447286786939351 4.999040587362778 9.00648276079604
Hf 8.505254047710853 1.9760613293517384 7.867672227323397
Hf 10.308414008406679 3.287685075938233 9.778251390102369
Hf 12.12906737317391 4.175306157739889 11.831444952219822
