55
Energy = -480.75870872 eV
Hf 7.866073179422506 7.71075199963376 8.987601318068869
Hf 6.842077098146721 10.21474181576582 6.824940356558252
Hf 4.606150883235804 7.088277128029356 11.220477494062395
Hf 4.3535509133616594 3.8693184715085867 10.059409384105123
Hf 7.047903906266992 5.373735120388276 11.023688405369086
Hf 3.5188104758580514 9.916865844153119 6.458091172856649
Hf 9.81731439049397 9.424731394524958 10.322727125981102
Hf 7.053873512309489 12.988334854987652 8.013540489457105
Hf 9.278333264620205 3.780337443295838 10.303954095990381
Hf 12.353524842816915 5.786821295482574 6.73723059718659
Hf 4.6897398700258295 7.133262992100997 6.2076827286961525
Hf 4.721835859328654 11.437066396861859 8.594888194793128
Hf 1.8249538988697251 4.80497131476676 4.3773002710351525
Hf 7.273110955630518 10.724834785248342 9.869189312584373
Hf 5.729135644152579 5.478162504245297 8.355601993089435
Hf 5.848685136254995 6.835316194029331 3.063595430103168
Hf 10.278816385356205 4.191941465880957 5.361802131937349
Hf 9.886188248555777 6.471488723076599 10.947592110307605
Hf 5.096099324033941 8.558987277782013 8.676142429894917
Hf 5.601193812017328 12.256570505051963 5.553501503797442
Hf 11.540331845243978 11.79441338287776 6.492985792136277
Hf 9.746745588063577 9.531945938564343 7.257122402995684
Hf 12.10495384893916 10.379959915109048 8.797778283941613
Hf 11.603933657391849 7.549714305477521 8.79282480806506
Hf 2.9561364849657386 7.517566820762954 4.098077018329837
Hf 1.9315973523950773 7.512773750419644 7.080481013076341
Hf 3.33299223985203 2.7977894682823847 2.8098528882389084
Hf 2.738162718232047 2.359801527360842 5.48467454115426
Hf 7.0327276381459845 2.7069707601356443 9.108844298672645
Hf 6.038642848654001 3.7296081913138837 2.302324708084066
Hf 3.5584691529529375 5.450732319489089 2.1398456518022897
Hf 7.331044573352223 1.1019594939529918 6.661055800627812
Hf 12.480579432129112 9.026961643784476 6.275837237504246
Hf 4.759355503718719 2.1466953742272366 7.460516488088489
Hf 10.335648036765248 10.146497522072666 4.427739284942781
Hf 7.280401560294851 3.9188847207141135 6.306816410841726
Hf 9.393018998614181 5.590222672916776 7.789402871272335
Hf 9.702973452997854 2.6219610352654437 7.68843761238133
Hf 7.562549214489272 7.362645903344655 5.783034229977115
Hf 5.396313029516992 1.5794498314816707 4.525818555671655
Hf 8.79304849649838 12.49179240369697 5.836854423035247
Hf 8.494311118179 8.27025967386344 3.183182219131475
Hf 5.378443370824736 9.357715383165562 4.3355354601480585
Hf 2.6381763813836563 9.127674116420918 9.599350881433795
Hf 8.234488513776146 5.315300110193438 3.717543135268582
Hf 8.198639210665187 2.3863057290820393 4.098161997410215
Hf 7.294323203470029 8.29028453187285 11.752423131347093
Hf 10.454289814817306 7.162612808593465 5.166761517371473
Hf 11.649804277732706 4.613991336412248 9.262053483641559
Hf 2.7268809050420937 6.241457574692144 9.430037033358035
Hf 4.726561926700819 4.514235654768526 4.723280720539486
Hf 4.8854895452580145 9.962713889019025 11.27690183655756
Hf 3.0112314282660115 4.655405612860858 7.207973301469082
Hf 7.605079775125076 10.930950928254209 3.8371236263753157
Hf 9.749824711301939 12.160769599250882 8.684932245748124
