51
Energy = -445.63533809 eV
Hf 4.276473176202997 10.552975109929433 10.509241121390538
Hf 6.509426068595828 8.899466789696715 10.89856883291373
Hf 9.246324179795195 10.167987218756243 9.818758382886992
Hf 9.352378088418922 7.069144617943616 10.935457106449416
Hf 9.024956511623126 12.338958462281134 7.850763279762308
Hf 6.515509063910821 10.940992804109316 8.58680766821262
Hf 3.6406533046670866 7.577200726735068 10.907629734222267
Hf 11.1818796215586 10.613257377011017 7.8019998172999045
Hf 2.0156535350683527 9.46470264297038 9.356707721950642
Hf 8.67902204918428 4.332423444811161 11.34463594128327
Hf 6.362797503188067 6.061283795383558 10.718280014119784
Hf 3.6828901736476984 11.279890442243312 7.785255867533987
Hf 11.180502310592876 4.8113473280215215 9.697984946648512
Hf 10.88105606558648 7.782376038215228 8.562022133557928
Hf 7.848774075330555 7.94819843150545 8.586253083202225
Hf 4.623719315801545 8.569278778497772 8.4138606341022
Hf 6.989724854185624 12.139196522381447 5.900851929568041
Hf 9.977867592571227 11.58163900782451 5.1144092138929675
Hf 8.604470030491733 9.748508836981374 6.550213939939042
Hf 9.352717278192854 2.4972397698698594 9.50362825733959
Hf 1.9817792755039967 6.787708429489149 8.417690350688035
Hf 2.006820997205709 9.111627842605815 6.5613992226555995
Hf 3.766840623363245 4.857980995793566 9.699280028936615
Hf 8.728031726114486 5.251336391137795 8.582749325354222
Hf 11.773082622499087 8.892943344541246 5.698210429757111
Hf 2.6994921255546616 8.727809381028653 3.91894833025086
Hf 9.555046428782363 6.8112923312212565 5.997041949210588
Hf 5.089636258755521 9.755910247808881 5.608485514271076
Hf 5.749796558620134 5.839524164218422 7.80212398219664
Hf 9.831866769819793 9.019888117732645 3.599216817878123
Hf 7.365132252060607 10.241583912160259 3.86069206041662
Hf 12.023060252726014 5.647039361347499 6.600461275945711
Hf 3.930765878829292 6.6755059665944865 5.640137479339467
Hf 6.468455862551551 3.4274585998865987 9.434253523013526
Hf 6.944303844268645 7.498154516807462 5.385888269745902
Hf 7.788290376490561 4.246937057010201 5.699653283533215
Hf 2.3435841652046765 4.338186716312351 7.188085969109141
Hf 4.989537597144111 3.276616778893089 6.67081348769919
Hf 11.42764582097309 6.791984739717484 3.817199263169354
Hf 10.53751368337798 3.104053764477187 7.057823964700371
Hf 1.200792547575672 6.362839074060895 5.301875969661386
Hf 5.354185334003741 7.853971043594296 3.136254757136749
Hf 8.503595410424227 6.264488045991679 3.215251465614473
Hf 3.0378748045847974 6.162670985366491 2.911181070052219
Hf 7.59905785595706 1.729084873036571 7.258078198045452
Hf 5.652666563646181 4.887497356001426 3.7493509313153073
Hf 6.341505632959639 2.010341542671849 4.536015927928918
Hf 10.59530644580772 4.1812916992696945 4.325115856961183
Hf 2.9552171508262277 3.9867395828632546 4.568519353579731
Hf 8.141417906425898 3.422835262162719 2.8646502739666073
Hf 9.164812265336115 1.734506764608983 4.895849826867089
