51
Energy = -444.62066779 eV
Hf 12.51911244456557 8.689434586248774 4.114386200184893
Hf 12.710203513378271 8.339744529826836 6.860710236440995
Hf 12.000229036460265 10.980320498009167 5.772186620467076
Hf 12.056018949762771 4.65719601097579 7.40773108954427
Hf 11.093000409493204 6.239510370700942 5.279493066500859
Hf 10.321663260227414 3.3299617253655915 5.402196854265414
Hf 10.478304896916992 10.457038384156663 3.207201527919425
Hf 10.82355717039329 10.104068901434548 8.396266758985444
Hf 10.293538091646132 7.487136222371268 2.778819853490287
Hf 10.00848299795832 8.95376721040826 5.613438463163963
Hf 10.698153171842174 7.171144420610351 8.48556386977382
Hf 10.4823368948674 2.3950196407097315 8.078003925198699
Hf 10.723688982558945 4.672700768602746 9.95855276336209
Hf 9.08910148716953 11.511763086528715 6.823785800160246
Hf 7.518728822831125 4.233756849427656 4.541357976851263
Hf 7.678398595637267 10.959962281430505 4.427146355636064
Hf 8.05541588691294 6.209002329478604 10.123744794895343
Hf 9.126099848783536 4.916908693810295 7.447897702730765
Hf 8.094909199288875 7.076766648726825 4.7611131814293595
Hf 9.420838802365276 8.812894070859418 10.702010792099045
Hf 8.111166053290153 9.03699573610163 2.4347332595343847
Hf 7.874793768128607 2.327637587645532 6.841571785046878
Hf 8.223693741489361 8.60998324514969 8.022890071089174
Hf 6.795423713302133 6.3199177961286335 2.1482803996117488
Hf 8.391586849424986 3.115803198764265 9.773210882873054
Hf 6.370478743648223 6.073838781243805 7.298279807339301
Hf 7.9749595540766025 11.22672117960464 9.586230680523656
Hf 5.301909181393845 6.409383387950332 4.646185311030697
Hf 5.372209818562914 8.894165241246009 2.8392375904964102
Hf 6.766637556074131 9.609658551965152 11.510358742909842
Hf 5.810922407275952 3.551620855171908 8.908008024779834
Hf 6.094703716184291 4.346487572628076 11.831835734872497
Hf 6.282820550998245 11.687871153279112 7.321317860855492
Hf 4.8567649188872055 4.073901953079376 3.082510010107058
Hf 5.049129633475031 3.5259281066144608 5.862751897569075
Hf 5.949270707815344 9.056171672484785 5.8322520865783
Hf 6.408254554319418 7.07150075910683 12.600818547385671
Hf 5.495467120240871 9.053975113065414 8.853937654153452
Hf 5.099700553912763 6.369242037791053 10.004820869291123
Hf 3.796288483324717 6.589362807575282 2.2855481936131126
Hf 3.435114040524901 7.5938887079358075 7.133513445825886
Hf 4.795721248906337 11.404917480207622 9.971815299663053
Hf 3.522392602728538 4.845718712576602 7.856851619359531
Hf 3.0974744145435396 8.374768179373739 4.445025667688097
Hf 3.469465661979867 4.027029184494731 10.643876330733598
Hf 2.7443648468239155 5.369807393722172 4.8037970479455945
Hf 3.726970255596479 10.577930798935803 7.144664035779034
Hf 3.7615116968290527 6.011340985596995 12.570531493053068
Hf 4.046067993416304 8.770923917905812 11.705955915381052
Hf 2.567807837046871 9.495010911786398 9.348087497660288
Hf 2.2887405568082566 6.717154715425027 10.134376338662722
