50
Energy = -436.52123251 eV
Hf 6.697910085291259 1.3737313581212853 5.457273578652804
Hf 4.18925995755112 2.720728175282654 5.459778557355539
Hf 8.914858352757452 3.3607202190787078 4.97943294192185
Hf 8.12965105678377 5.676216698699277 3.15555992787033
Hf 3.54723005800444 4.333360576761967 3.309060826120948
Hf 5.717924219757053 1.745320016724152 8.255511816293597
Hf 3.395610123786715 3.5699676189767824 7.940799258522335
Hf 5.665271160996945 8.651134112643287 2.9941411464578978
Hf 5.539880864783226 6.106251142255391 4.80494021693343
Hf 8.225221112641119 8.203148476363792 1.4244588197331023
Hf 6.350201151364053 10.849113214340827 4.979908290403076
Hf 11.230343967239332 10.160366361801552 7.88587166983979
Hf 8.509756228080285 1.838234115915728 7.459436178095682
Hf 2.8099774002825986 5.569076585743272 5.917367115174601
Hf 10.028435431101359 4.278791950809582 7.644419163757457
Hf 10.867728799827248 5.787488865343318 5.212457052300303
Hf 7.866906461579878 3.6648007840600543 9.584245251368507
Hf 6.5765370179203035 3.964035259478584 6.839294317902472
Hf 2.6557643824251294 5.942972773076737 9.045677716633868
Hf 8.239183999738653 6.280217916218326 6.223618827942009
Hf 6.286278875531721 3.405724876270734 3.4161049956297607
Hf 10.16870984226843 5.541142082047381 10.541274285756549
Hf 7.045864913357127 5.671055196270664 11.715986200510233
Hf 10.593875180364238 7.115254204213513 2.689219210351576
Hf 4.207561703813974 6.75929918340923 11.34537134240444
Hf 4.984735447802172 4.216177225605781 10.100241463347798
Hf 6.102199293715622 7.9533523516643525 13.092825980782651
Hf 8.378876197729769 8.463403984820598 4.244055581894136
Hf 8.249457907120215 6.64779295438327 9.093056174623346
Hf 8.776601509032904 8.06011808602486 12.032258308865627
Hf 3.2409386758370764 7.069458597482623 3.351943811991712
Hf 5.228109746060028 6.377066033267149 8.000546405290418
Hf 10.718167594783951 8.435197341500238 10.08483342998241
Hf 6.393022350359041 8.575643441128856 10.218151228222109
Hf 11.344923263826349 6.994704581511502 7.868002110740089
Hf 5.471646372671705 5.907033620900558 1.8974582184186741
Hf 6.324894746315993 8.873110767572438 7.156203248206646
Hf 3.708382660567912 8.868586458353334 8.92471521768119
Hf 4.26721800326169 9.693360645081945 11.766949404813628
Hf 11.300795695218872 8.721205445545701 5.16715095169482
Hf 3.9041528277468323 8.470760799933753 5.819165599985368
Hf 9.101626091136986 8.915862354081172 7.249836416651015
Hf 7.0132532961651775 10.48059064700076 12.310259333169332
Hf 8.72329470115285 10.532543459434695 9.943735247664712
Hf 7.77255631504108 10.784302268438513 2.532800685813468
Hf 4.516043621280936 11.106669649695887 7.198678323337995
Hf 5.7301349707086455 11.384392444537903 9.849835583112263
Hf 10.398101393624579 9.878391234616286 2.6174849332063843
Hf 7.433964376253231 11.60999295471377 7.511033269539131
Hf 9.368951375759307 11.103936071683666 5.078238101958108
