55
Energy = -476.44514984 eV
Hf 4.734176131183171 6.813495485129597 7.3936108595798835
Hf 9.083511417263088 13.15515966069179 9.851236783662662
Hf 11.13868737401277 11.737364064200385 7.874777052865684
Hf 7.499939424289553 10.699324762705828 12.526911248546003
Hf 7.338504908854702 12.995744315855237 7.276846380340487
Hf 3.4703089304334616 11.646121772512213 9.69525215479108
Hf 13.944508675066576 8.655104705631198 4.266133541900536
Hf 10.855310286049107 7.544267786924316 10.60604365259914
Hf 8.448943909996563 7.317333759816755 11.944130800302943
Hf 14.51841330761369 5.79651330037026 4.800722492491422
Hf 8.762587701413914 4.278620372671908 7.063631896717346
Hf 5.938535631624709 7.7032430750647425 13.21558339314242
Hf 5.69476393588362 8.574976656934107 5.428941360815369
Hf 13.921427020920301 4.680378613421484 7.606603635060737
Hf 9.625285141443431 4.6521265072291555 12.7342193448701
Hf 7.690515322671175 7.152990189418234 7.786547949007725
Hf 13.127388892270922 8.175012617215762 12.132231656237785
Hf 5.596472903826245 9.635011328210124 8.156277110728496
Hf 6.236200183188233 4.671718594427496 8.156900899567376
Hf 5.855401206371903 6.697257949807789 10.274559502865667
Hf 11.189475349104196 6.715889765905039 13.66469851185249
Hf 11.234882425026132 9.380164710560313 5.133126893163853
Hf 6.877813648088165 5.035867678843063 12.516602239834535
Hf 5.538208894879042 13.944369245668874 5.445375891229791
Hf 6.885368656355433 11.2319751938828 4.993123260893483
Hf 10.182420190501302 9.36460850189804 13.41014214243319
Hf 7.821011747320239 9.21441632177779 9.883540010504074
Hf 12.024821855077743 4.5820265622379335 5.60355767432139
Hf 11.254626131356808 5.322136556828832 8.423984771858313
Hf 8.359686745860037 6.545908832401382 14.559211720964107
Hf 12.303511603797421 5.288842952519936 11.38834247308127
Hf 8.567530702561003 5.134649073420472 9.907087317962018
Hf 5.137530764406215 9.448411771866557 11.021745113195774
Hf 13.533033104193105 7.060930900033788 9.476486992314216
Hf 10.75929113777272 8.821698769159896 7.99685064057794
Hf 12.856124732662211 7.246099441782536 6.5453886112173985
Hf 13.438423218552426 10.231244035321538 6.774539003850302
Hf 13.827797370173485 12.532801214032247 8.301681009855715
Hf 8.398193545731203 10.313809581226264 7.21702954751004
Hf 9.937991618449875 12.34115240531484 12.76621727556472
Hf 11.84940124728547 12.919206577166115 10.510479115066794
Hf 10.280473817738573 10.497524074134077 10.631949392717559
Hf 8.3012886642821 8.46733250352835 4.646701103047924
Hf 9.98058337430011 6.662770940631773 5.937012204346166
Hf 6.8058056575743535 5.863922036341737 5.417607040930516
Hf 12.488351891537025 11.01141512739702 12.512564258246172
Hf 7.056179960850044 13.701224837005284 12.211571084835782
Hf 4.79300465711704 11.858497305830149 12.496794769088618
Hf 4.47471089690303 14.098015233049136 10.9622569206602
Hf 6.881091349339658 14.928965157810808 9.550706948863837
Hf 12.016822218879106 6.7459359953968905 3.728671131922413
Hf 6.33861220802558 12.010378848929534 9.931041780509869
Hf 4.50100337869757 11.721201420962913 6.64057952819399
Hf 13.02216671549635 10.070482360934703 9.680877024772835
Hf 4.484673996316463 13.987154328549636 8.2040906591093
