51
Energy = -445.44139028 eV
Hf 9.74737172563749 2.483017487737908 6.069184938767477
Hf 10.851632960762291 4.770455326423405 5.005411937158881
Hf 9.51446072412279 1.8285207162133914 8.915954999563144
Hf 11.252117782782156 4.1493747607214955 7.918236882724766
Hf 7.91968821546955 4.141526911515355 4.22597880785524
Hf 5.5713741480727 2.3734478859853705 4.377878197124702
Hf 7.044703930347391 2.3104871763212755 7.015545712732523
Hf 7.664759432506782 6.301016532893176 2.1168425885239803
Hf 10.917506877522051 7.280093716259181 6.7156135912563295
Hf 6.6825400208433114 1.6047968721735073 9.893095717179413
Hf 10.702975218187866 3.907243212917209 10.768068069310726
Hf 8.669453085472991 5.140467254930987 6.84132857975494
Hf 8.610055758556417 2.460996792658231 11.731287566130549
Hf 9.029744444020874 6.985155606662361 4.6220973112873995
Hf 5.148159584940614 4.908348362659348 2.804419281225588
Hf 8.007856613576076 4.203171388104047 9.489889438285992
Hf 10.114377933272323 6.500658213468051 9.704155988112783
Hf 5.559535936584687 4.718676407731738 6.253488040887813
Hf 4.039157851141488 2.248610436627337 6.718211146376011
Hf 3.190295086075001 3.9346988254519535 4.64267947003798
Hf 5.192479856078 7.870406710917194 2.0002913404546834
Hf 10.73027924154383 9.091483216040386 4.096716333602476
Hf 7.771690239470542 9.243279040198018 2.979425602965073
Hf 6.30934729469673 6.950760746154546 4.512554623260723
Hf 6.080360820012959 3.907909756115624 11.629376488628797
Hf 5.040012207904865 3.744065880396912 8.943976629915975
Hf 3.3231127000790726 6.7538023449371805 4.960826708890844
Hf 8.578966989879461 5.387416077574295 12.048001775796408
Hf 10.8423693041008 9.137837193725664 8.981050564613842
Hf 9.575026622973871 11.578990339422624 3.9950024026402735
Hf 8.27235630140086 9.832274888833515 5.861954538401842
Hf 5.133102748368741 10.649310875796944 2.6443529838145485
Hf 5.132382029498357 9.409285887908542 5.443222148610444
Hf 2.9277081740139606 9.263588283655636 3.3943719900034006
Hf 8.64101770689759 8.844484784901802 10.77232541490644
Hf 2.6649938454258923 4.880771777497181 7.31742993867995
Hf 8.207082481242187 7.933108799372772 8.046894380220436
Hf 10.926319539109432 10.748045852149648 6.555254661867492
Hf 6.510716452789957 6.750174090719399 10.26513981464972
Hf 6.703405383979892 11.978297482677927 4.536254617705637
Hf 4.839390549601125 7.401944652688374 7.760425613245759
Hf 3.517889437540429 5.814289745792104 9.93227923862787
Hf 2.0868892321009005 9.31625967275728 5.936043571351482
Hf 8.809243837528614 11.100498332667456 8.788742925700216
Hf 6.16790551126233 11.642914581990846 7.258254683938837
Hf 3.6243463542740746 11.654052060439863 5.014283110537411
Hf 8.850772987421793 12.715377568557473 6.450190542689896
Hf 6.2092172296223795 9.69110583862393 9.27938722166697
Hf 2.0637606391687435 7.73221044984363 8.334362834640006
Hf 3.929093165857548 8.474229934019501 10.393718382183527
Hf 3.5198453633583937 10.333609910832793 8.122563612976881
