55
Energy = -482.65970413 eV
Hf 9.213383468735302 2.9828470166551613 3.114104381744675
Hf 10.501801694518953 7.977230204156727 8.858337911731736
Hf 5.233897561223726 5.368898196907636 8.934026307479389
Hf 1.8801531617335339 8.184757110378204 8.947278487725612
Hf 4.618290277792566 4.323184270049583 11.57711013508244
Hf 9.698958367159442 6.125984869865297 2.0469165532883538
Hf 10.92428091062529 5.206278332674795 7.80100760960549
Hf 6.786821109850905 6.28375692001561 11.591187020878039
Hf 6.175337338058608 9.215984205848208 11.014345432654917
Hf 4.767523341313562 4.71107749646369 3.4077081258620097
Hf 8.715324293222352 10.517283584411452 3.989148969905061
Hf 5.496817514889315 11.41471084569202 9.056033680525873
Hf 6.603539705234711 9.814094240274041 1.9046440521929509
Hf 4.8711293271131035 0.8206505142617572 6.98348644339104
Hf 2.422599662653533 4.13565754825272 4.932917952774867
Hf 9.46422671337561 5.557736362494572 10.424317840959406
Hf 2.531792226253724 8.984683251881512 6.14902651970511
Hf 5.228819427895728 3.6888649040215293 6.387252598668237
Hf 7.536534705821344 7.5631104867604115 3.479710079089192
Hf 6.4140676210123155 2.4210163313976665 2.689851110956195
Hf 10.695550104572938 8.203803725991133 3.943143791211935
Hf 2.661511987846098 2.7048774083828384 7.3045933135872705
Hf 8.859772865727543 8.304367480996085 11.192125926823207
Hf 8.263582073951246 10.209720118907326 8.975182813360114
Hf 4.520442493488818 11.422701831014034 6.308804027262809
Hf 2.575193958301216 4.550391836145256 9.730378771414406
Hf 7.578038078522219 4.652863877380053 4.519131780527874
Hf 7.162357297445322 1.5553557365310045 5.204300870065384
Hf 4.7066668036577495 9.23144568448062 4.13190920206699
Hf 2.8039060037644994 6.829509431715517 4.197109341835387
Hf 4.978534714050922 7.256362284666288 2.008508509693518
Hf 7.926609314944015 4.622542905576166 7.767769525277245
Hf 3.899633593079414 7.07701141463848 10.886428914908489
Hf 4.1467497771480835 1.8742562246732266 4.506791450409464
Hf 2.6413078564882855 10.889095858445812 8.325998244697981
Hf 4.683685949039781 2.3888384609185955 9.420958093110897
Hf 7.492644732780878 7.436665492649832 8.857818619592615
Hf 9.667788003814447 2.857280477473475 6.193031065765948
Hf 11.789978214282801 7.532923427354686 6.368639965677563
Hf 7.258315094014709 3.4906213628267775 10.598934189855564
Hf 8.950258917393395 7.123469799125748 6.179622841728817
Hf 9.739281314726803 2.953799333756719 9.143081627544909
Hf 6.82060733150834 9.489560212393927 6.227609062046007
Hf 6.210280610052524 11.716663269398301 4.175825289916587
Hf 7.588279725437122 12.089000278098402 6.65611691889853
Hf 3.4278473448903024 9.916181062116395 10.696024557018706
Hf 4.632145473437483 8.67813553407703 8.269557554467058
Hf 7.340551647266658 1.7136643152517548 8.163885793901144
Hf 10.684219473159352 5.23190300700013 4.750802887245723
Hf 7.473368546742787 7.428110779247945 0.5104860137059485
Hf 2.871402059798363 6.0038104102635845 7.145718080648301
Hf 9.364574619967058 9.032107780943015 1.5859996318371807
Hf 7.1692173942474 4.8310257717181715 1.5758677071486205
Hf 5.500732198152051 6.670219345979742 5.767107506312791
Hf 9.973147492306522 9.877388861891642 6.565806390706434
