54
Energy = -471.72430113 eV
Hf 3.9299027750920517 11.331491471307913 9.120533042007471
Hf 3.347009518504233 8.405451933315806 10.412616734178114
Hf 2.175334087891024 9.69687948662353 7.655226971449536
Hf 6.576667037076346 11.884833120634795 8.146810152296638
Hf 5.7918742093518745 6.46688641222304 6.042183515420001
Hf 3.923830874157251 10.897390447051794 12.048058739537447
Hf 2.1386292336547705 7.005313119230949 7.960891288534392
Hf 5.912111555259036 8.88696812946645 4.323078111706413
Hf 6.910959252997186 2.0728405101258853 4.656624749992212
Hf 5.5291150031313485 3.352724403357153 6.824917301018259
Hf 8.256850721369668 2.0749586054358775 7.24441492156199
Hf 8.457482877420626 11.626027035858371 10.646737220643708
Hf 9.476864762989793 11.676491404138424 7.628536060787125
Hf 7.157265208528559 5.023138950995027 3.980018288228815
Hf 5.746661412741531 6.514224764998075 11.249124726519463
Hf 7.038767125832458 3.799822342278819 9.250855977204985
Hf 4.996210900833127 8.547207729710866 12.984395293763091
Hf 7.41615358391724 7.392996242587162 2.150341082375922
Hf 7.8299040607368875 9.230328402984183 7.236573360822508
Hf 8.513867603822257 4.702059376635382 6.5489705330487435
Hf 6.705789294761638 10.9030817720166 13.01521808411879
Hf 9.778146817899456 3.9136773941817116 9.133439898279228
Hf 4.539400453639552 5.528896606678462 8.694272571379205
Hf 11.619796019573423 4.805386658486959 7.110041493219525
Hf 10.287048392417512 10.158966293852059 12.398322273740797
Hf 7.897920499641463 8.198362746060809 12.562668149333321
Hf 8.760415465175996 5.719505221370403 11.123214419538881
Hf 6.095436862874437 9.612852734675066 10.477553322061045
Hf 7.234614978345295 6.7739373175902795 8.772294771755194
Hf 13.056955362621723 7.193388679340442 8.047029389065608
Hf 8.624916048062376 7.492893725454552 4.88264125578019
Hf 12.36591214918207 8.77697345423648 10.545177946943001
Hf 9.390740619808295 3.0272815819374546 3.932271689396935
Hf 11.585222875497436 5.927054349387876 10.102110514654292
Hf 10.664087060397984 7.406286926818026 12.410717841818789
Hf 4.767294466676844 8.472646071459415 7.926823248108038
Hf 10.96262319298108 5.43015591839539 4.30422346093399
Hf 4.670016734958113 3.4978464560548796 3.9811604088942754
Hf 3.20420841390325 5.17620475392597 5.95153875941353
Hf 10.097506201336266 7.112547096651818 7.709141155706561
Hf 11.174061666094326 11.32709499242217 9.983111345017909
Hf 7.073737835414236 3.3013522081824354 2.0285125793952825
Hf 9.457432946462436 8.802878397294775 9.990519695321558
Hf 11.966285907035992 7.718790164159852 5.473279261733894
Hf 5.7886244679691305 12.59001897964231 10.908973445482967
Hf 11.747454714986278 9.73244506130528 7.720020875106604
Hf 3.1607732105450164 8.101450205125763 5.418481693157118
Hf 4.439754636443392 6.345932807972508 3.4299380472349674
Hf 9.374141620692729 5.261754410293731 2.0631126573124563
Hf 10.253683969330503 10.099973203203792 5.140341088147657
Hf 10.460058123419888 7.954144548824523 2.7852803528179804
Hf 4.578586549513461 10.822350384585471 6.2152181688521635
Hf 8.34219800460999 9.85042975516685 3.043319596679074
Hf 7.532945549282366 11.405684548946008 5.376891179798261
