50
Energy = -434.11982553 eV
Hf 12.858640066629112 6.413457529233921 7.85867672968107
Hf 11.760837078371026 6.320346821009258 5.082508636087419
Hf 11.80599761912137 8.74330961098583 6.715562545823841
Hf 9.132923666383324 2.0073271284603913 7.0310586435297475
Hf 9.631131862274742 10.240567803717914 9.30567883003927
Hf 10.721608736790868 4.5203886568190725 7.493234025590434
Hf 11.72433466322547 5.03402842653938 10.098811529132096
Hf 9.699451936284854 4.083193303055957 4.70604150488653
Hf 9.636700596033787 2.97523585084007 9.812719914276467
Hf 8.552008978477076 8.525423183162022 11.173149816160867
Hf 10.40763646394504 7.347866047619035 9.02924870112704
Hf 10.605744454249628 8.769939437425238 4.229240798710894
Hf 9.047154542726558 5.582368463048663 11.132074057932739
Hf 9.103867540087665 6.928839632411053 6.15403123179455
Hf 8.968119393857737 6.499343735108911 3.335888661153147
Hf 9.154229180555753 10.023019471708645 6.447881454186056
Hf 8.091176355933404 1.7642162683513103 4.25187634649937
Hf 6.272421026906072 6.540080137499272 10.676739975662844
Hf 6.51888394631475 0.9369398936146951 6.335165708799618
Hf 7.882127784167297 4.818152921161933 8.618899290681856
Hf 6.789887870441867 10.626384189327823 9.713258640240317
Hf 6.999221108718591 3.852897179868752 5.9580098050648775
Hf 6.846104783801895 2.0266671467038266 8.831351005146276
Hf 7.327435428118565 4.132683275359797 2.7548553367989412
Hf 7.547565738080978 7.963964845363616 8.467348479702215
Hf 4.589137534547609 4.693474835051217 2.6668113060382224
Hf 5.270179710815396 2.3710184553368907 4.140766665444509
Hf 8.076883941163272 12.256297422801069 7.8303944286418945
Hf 4.845444501450824 3.9075965297164976 9.998755889324817
Hf 4.457374921581121 2.7394270418268913 7.381364730433089
Hf 5.167201648696334 5.976592518722665 7.988692617534664
Hf 6.198184299652251 6.979971413927341 1.9663452300397162
Hf 6.083991123282801 6.442528311490388 4.703496419688998
Hf 7.108317942746104 11.909833665724229 5.131488812916451
Hf 6.03652861637199 9.795646366387075 6.702810583532741
Hf 7.70863711072853 8.908407063868584 4.227668586547864
Hf 3.4403124443619952 6.2748199965565385 10.445960834308881
Hf 4.661306036561801 8.715455117205588 9.210977404235214
Hf 3.393103730406372 7.043012920818382 3.3943637783513045
Hf 5.318907682235311 12.432889675758087 7.582464607375751
Hf 3.635963540369554 4.752181931023602 5.420123837786836
Hf 2.436953612877806 4.727324572858067 8.240583707907794
Hf 5.072492649145395 9.394279274788325 3.608603308724323
Hf 4.256376583897945 11.792647645225221 5.123740607750734
Hf 3.691631777857156 7.956226575605188 6.18301054819939
Hf 1.864224694552666 7.595204357037122 8.47520217571429
Hf 2.9081620012892664 10.496058288792893 7.363543113610635
Hf 1.2724541448473303 6.26187739871858 5.851334382677464
Hf 2.3586918262566874 9.84797478400372 4.337148137836054
Hf 0.7618120118469477 8.881999525703533 6.262196410323603
