51
Energy = -442.83784063 eV
Hf 12.32637070455247 4.946207228113433 5.145200366169561
Hf 12.332441073280371 7.80437016915376 5.749975358215409
Hf 11.460699215366287 6.531289681027335 8.1562896940515
Hf 10.82614877279475 3.80209085529166 7.590320574842062
Hf 9.741704497100487 2.7298838714072886 9.963796920626526
Hf 10.473222597140495 5.270300348386408 10.965074521915144
Hf 10.963183485273534 9.474721487931486 7.69832784084368
Hf 10.48949240565789 4.650439695024204 2.8914721284906366
Hf 11.353873562819919 7.128798848056088 3.3553126963871143
Hf 9.969734122150031 2.895826558424969 5.021747973594717
Hf 7.756058795367319 3.884664977811407 3.1895032230861853
Hf 9.732044215324466 5.987208356762677 5.591483312054889
Hf 10.238484546007413 8.112078752114206 10.189914966850173
Hf 8.412134655942635 2.0738698192702416 7.51534730573411
Hf 7.53225307012559 1.525277221681775 4.7942065200758455
Hf 8.474819609300756 5.250923939395772 8.884980716782659
Hf 7.944769220872907 4.036281542946184 11.519453105159286
Hf 9.020011557905551 10.577174159379844 9.491273452264846
Hf 8.439697866554052 6.878023240777566 2.985595600255312
Hf 5.261504207205842 5.583553474407696 3.546033065845519
Hf 8.359241622390813 11.069640067531099 6.733882336500095
Hf 8.076010570734086 6.8153812297501375 11.582462223589298
Hf 9.714306436593512 8.947217111655004 4.960815055782275
Hf 7.01475919788074 4.283082716993154 6.1051875152057535
Hf 8.445015867540588 8.158883752979415 7.789334393353081
Hf 6.922758950887949 7.392376844593977 5.349339487452417
Hf 5.110735684660398 2.7857225528724965 4.138253410352948
Hf 5.514804572022845 5.419693942411762 11.130034085765612
Hf 5.567350714159854 1.8022774232869077 6.753734239845386
Hf 4.004504505993286 7.151144648083718 5.63659393887616
Hf 6.420651770076217 11.776738790926737 8.876598915943873
Hf 5.996383618523062 3.5466254944711135 8.977797293042036
Hf 7.031974626056643 10.289927665547063 4.27462851713284
Hf 5.736863288237378 8.295947607378642 2.7442510332113685
Hf 6.622468654598288 8.881100273471585 10.019242938783986
Hf 3.963165510490883 4.281912034033009 6.4849473637114405
Hf 5.691652037421449 6.52582457123767 8.30204111706582
Hf 2.862536275075449 7.669466431045802 2.9161201830402947
Hf 2.474277289691912 5.01696523399024 4.168656630985066
Hf 5.581475825017648 9.453356179747999 7.206491079458481
Hf 3.983760109212256 7.647389766805526 10.724969091393891
Hf 3.988062992741791 13.228013925793588 8.431124708738716
Hf 5.531585825704337 12.179568714281857 6.0853956577083075
Hf 3.302999334835595 5.252397160546387 9.262648761040696
Hf 4.15499093108961 10.04472911086558 4.388904864209202
Hf 1.5837456794686111 8.651426179048187 5.339423727453148
Hf 1.397182021526631 5.9640268412382165 6.628307040449634
Hf 4.036566142512466 10.45433933727353 9.667093276124122
Hf 2.95677964088135 8.146244092260575 8.1405463173356
Hf 0.23015793180100322 6.6760604148691876 3.9883907340384694
Hf 3.0398360264806037 10.996665849976013 7.012176406661012
