50
Energy = -437.30325604 eV
Hf 12.041535378800939 2.810883040023515 6.339189468974793
Hf 9.95808834871629 1.1404858286250275 7.070075379731478
Hf 10.702829378827385 3.3370957319071954 8.960165212301536
Hf 12.30171004797665 5.452176056715679 7.3256925897319745
Hf 10.103436365095249 2.173607711461168 4.39048607630701
Hf 10.810906291477114 6.269021849878789 9.781288468703707
Hf 11.218135998007249 4.956305614616165 4.503562087757978
Hf 7.908712216230673 2.210067816841316 8.645335369665027
Hf 9.276898425403077 3.9029996929540705 6.531697516374787
Hf 7.4742538237759035 1.8233959697400435 5.655455877911276
Hf 7.975050289620433 5.122943358141693 8.92473423280873
Hf 12.047181842459796 8.221477099371052 8.081850381683875
Hf 11.852868068491782 7.7290839266263225 5.343028131893529
Hf 9.686608827082608 6.887297660850362 7.071982765273938
Hf 8.363764070549383 4.318695975299984 3.646171632695491
Hf 3.342903694703839 3.5607418225742062 8.990756674136724
Hf 5.469882975941324 3.9169481258581773 4.438360404580551
Hf 5.622014513425409 4.58619536845064 10.526717897744426
Hf 5.803654151462218 3.6465708018698884 7.376847837781516
Hf 9.711458580523793 8.933859011721001 9.626493254993687
Hf 9.24144342900968 7.263526705842169 4.056322560186589
Hf 8.07074456317633 6.936362371867207 11.15692271319665
Hf 7.033538092423105 6.092377859313718 5.830871597012256
Hf 9.887246674012596 9.720675512881852 6.491767986010823
Hf 2.9207018913726865 3.767358720057936 6.061552350052383
Hf 4.572443520174601 6.110342758806199 8.351614684210183
Hf 9.197818470535857 10.279701187419487 3.688576730430363
Hf 7.313081368838157 9.632957750458605 10.954541987792698
Hf 7.059149385555661 8.01428938402865 8.564408000182363
Hf 5.133293906690672 7.6549909529183235 10.90710657544265
Hf 6.082955122133278 6.170299368540507 3.0007785767775563
Hf 2.951643157973887 5.7751235682390245 10.67130478293284
Hf 3.0339303666333213 5.163463839498551 3.2454765891219854
Hf 7.654919071948101 10.884900126673745 8.306254651132535
Hf 7.370689854849404 8.765010164508357 2.3362538795835426
Hf 4.022006378810727 6.483078989538186 5.400801783114429
Hf 1.6171530975983408 5.719703923355833 8.00739588162125
Hf 7.068742992532472 9.144819641372072 5.360936941170332
Hf 1.094581523499192 5.814798906184228 5.228659040094502
Hf 8.099928490669106 11.939632929640126 5.6202616316929905
Hf 4.934099632274106 10.380553600563463 9.506218850320568
Hf 2.5965049316488447 8.42743910980634 9.434103129550165
Hf 4.435819318318556 8.794210997686369 7.062805791681093
Hf 4.72195787443936 8.624193217866242 3.2356136587428614
Hf 1.9786377289882753 7.939113097456116 3.7699391612984563
Hf 6.269032291272152 11.176297833154461 3.532637888855031
Hf 1.4471614986470827 8.423082042619992 6.613605121421032
Hf 5.371757557961697 11.570586598205226 6.60668507391609
Hf 2.669572177954921 10.842511957032297 7.6873733719336546
Hf 3.1827181768792054 10.363802909456096 4.920799443272005
