53
Energy = -463.50773978 eV
Hf 8.88577282956958 5.739120897848678 1.8041766904978096
Hf 9.723351559049535 3.726649288064534 4.0202260519960085
Hf 8.075303689436328 1.7339912497571808 5.162397851559369
Hf 6.832022339054956 3.389414452282535 3.1157668443961413
Hf 10.772713274281372 6.412292438568682 4.283109084925263
Hf 9.664618229322363 8.44794758313207 2.6700655760919827
Hf 10.166289676386029 2.344990014375963 6.976628263644134
Hf 12.023003482406425 4.361084041163112 5.990500043769454
Hf 7.078493675004288 8.54457461521549 1.6904543406812267
Hf 5.243697198340005 5.880025012498105 2.2525561380501826
Hf 7.773402590621521 6.37948197800411 4.023874640048971
Hf 8.34815942871209 10.838002471768052 3.462588235180961
Hf 11.595555191855953 7.09892645718543 7.296777343993169
Hf 6.585472560408263 4.342160916748703 5.885803106499631
Hf 9.88248535136826 8.955338639266317 5.511993192598842
Hf 4.30952925040245 8.49809421880686 2.3693915922382773
Hf 5.348312894622601 1.8898407045582712 5.459326016095894
Hf 7.152248007501965 2.1563012355463353 7.922145345164689
Hf 9.422145892738492 5.0554184412633205 6.65790770687196
Hf 4.019324699800354 4.0662093635825975 4.08312398398729
Hf 5.590252420726196 10.920897104859227 2.7025052580955853
Hf 7.726029410338957 7.364534024109727 6.8595831190622585
Hf 6.651495179472176 9.12352169358475 4.696165971300543
Hf 9.383448484754409 2.957721333938664 9.656379165601338
Hf 4.835852915678301 6.878012808673104 5.15529613636288
Hf 11.459725913783041 4.703787648384434 8.937390174805405
Hf 11.606325373750863 7.365546715990017 10.31458590019041
Hf 9.2725356011523 6.777458851641784 9.16632892658349
Hf 2.5820376372517724 6.63642061112903 3.64206060417461
Hf 7.979831589004679 10.450818341430699 7.160703158661556
Hf 5.76229087696608 11.69972504997317 5.574492788439495
Hf 3.6300021091386476 9.810501336074669 4.78264116948361
Hf 4.640211445938013 6.702015190479604 8.161147406548626
Hf 9.549146254712335 5.147752191159313 11.47722973602587
Hf 7.0737390350297265 3.3970637268426898 11.10880380980272
Hf 5.106174143763236 9.518089634015931 7.389871661176609
Hf 10.087168049614732 9.529938244920315 9.008622880474002
Hf 7.017328474139599 5.047641289619478 8.856497077967253
Hf 4.536959145612933 3.738245391643103 7.804734968032647
Hf 2.5094934968226603 5.213474776296401 6.277177895564136
Hf 6.882539843555215 8.544133174812194 9.557360223676207
Hf 3.3584371466863288 11.552481483738331 7.6238995237339955
Hf 9.076907981894019 8.478778515893497 11.566700984651453
Hf 2.2417759448217285 7.9060530381316685 6.596187188385721
Hf 4.536424063242833 4.9004017645094065 10.553511810234276
Hf 6.032266810176403 12.250000825019523 8.382414272619066
Hf 2.490461118427017 9.130154888587429 9.13167052062871
Hf 7.7548450214343765 11.06364277952648 10.403842765454238
Hf 6.767509380972214 6.387038400004027 11.7553999195694
Hf 2.1747736664888815 6.245445003115814 9.145273997809046
Hf 4.145589900362371 7.745067234729988 11.070016465499046
Hf 4.6535516990956705 10.68643793751489 10.30106716890241
Hf 6.3754410413038505 9.307839331427854 12.264556700321338
