53
Energy = -463.24365728 eV
Hf 2.5901372965459677 5.509308273316913 11.712027167752815
Hf 2.7958524483926244 3.2392890191532846 9.73302375762111
Hf 1.0857520469784088 5.238339094859526 9.069984989107699
Hf 5.165016951144094 3.8155329200488843 11.225835223040544
Hf 1.4137435586900158 7.747533851691097 10.086495389550535
Hf 5.90438617486204 6.626431565024832 11.783909350612344
Hf 3.0236508294905855 4.612050924321841 6.958921839705346
Hf 7.0033776203131035 1.5838872156698716 6.513850387484006
Hf 4.017658176041647 5.800800210647047 9.477888417795056
Hf 5.343431997503204 3.1954505542153906 8.334173275596232
Hf 1.5242991272631539 7.406832079694278 7.116871448722413
Hf 3.819290538350307 8.437866507164385 11.318383757863534
Hf 8.179298182058817 2.4286246381421606 8.874442308469419
Hf 2.197618404495133 10.108140942267706 8.591670678260186
Hf 7.40705929898565 5.10240359669309 9.79413544408778
Hf 10.002619021973302 2.1397023748602275 6.58608535530031
Hf 4.031961549001078 8.23477264816277 8.09308126892902
Hf 8.151892698773011 2.244049335789792 4.212906351215297
Hf 5.691749285736631 3.899686626683786 4.811752587921831
Hf 4.102631391151925 6.854440723339256 5.193891255695417
Hf 6.423280436027495 8.635004511543645 9.483922837239794
Hf 8.247893376034657 4.2397801766481 6.42070849633821
Hf 5.937132048980324 5.81681764812139 7.207579788720056
Hf 6.957360429737984 9.736085684032977 11.877080807158569
Hf 10.181223874513776 4.334259997721331 8.810451810276605
Hf 8.6895293522471 7.371023087210019 10.942512803008427
Hf 4.518286828476047 10.929192252004196 10.412230003371803
Hf 8.510976975315797 7.374292663414677 7.907993006828397
Hf 7.179614491786018 6.398243468329457 4.533750558106694
Hf 6.164481666727018 8.84965840258902 6.372625254876417
Hf 7.047238888760226 11.590568781611758 9.588310803508797
Hf 5.257971115427831 5.87165010210261 2.5718905722470216
Hf 9.211943377620477 9.764603089576177 9.683505323704393
Hf 11.234969174700165 7.008405591321675 8.517342533674112
Hf 7.915326605618353 4.533795869731157 2.4946454696522937
Hf 12.110254378104054 4.567463817620781 6.667170768407589
Hf 10.508048409777055 3.884644140767136 4.043432738168821
Hf 5.380608379027506 8.733377200019236 3.2931046736230254
Hf 3.297052503910912 9.645454688411787 5.780818134480964
Hf 4.85303054330724 11.235122168403672 7.621118939816076
Hf 10.290093950844113 6.569940550520684 5.675870907213043
Hf 8.304582415632545 10.905845969291326 7.005896934651655
Hf 8.561312945835326 8.893272589683216 4.433612805494402
Hf 7.485087571567403 7.577706486065666 1.6344376924086066
Hf 10.667778575850914 9.311475892453608 6.757533180740027
Hf 6.585260157268567 11.218368714550934 4.795294584525645
Hf 12.965538915646698 7.4125745509170935 6.352830978823787
Hf 10.133977413486399 6.5350878117297855 2.4998659028784243
Hf 12.526566719411266 5.865711608450395 4.038788791291529
Hf 7.413588907235819 10.457087927973427 2.22449319690905
Hf 11.640697252794865 8.690622483494622 4.04943819784322
Hf 9.591200088615487 11.33472358368341 4.09020540060183
Hf 9.897245096292218 9.345777845241075 1.8536094150014715
