6
Energy = -36.91951459 eV
Hf 8.357882512027256 6.234392461331329 8.840115611314992
Hf 12.267563298980646 12.689986035509328 8.639411533592831
Hf 10.778319269841809 10.992556235240139 8.379408019398738
Hf 5.929489515933215 5.259925986868785 9.239395217607498
Hf 8.737222203849761 8.869112964745975 8.370469724447245
Hf 6.29099875629623 7.836911952191357 8.753230699738165
