6
Energy = -44.39688617 eV
Hf 4.2548842687423 5.826436717742162 7.222889485011293
Hf 7.774074016864773 6.202277988647149 4.806138937203024
Hf 5.134020229218764 7.301168874584348 4.932428167660183
Hf 6.64507533919669 7.399724523939333 7.147833424266387
Hf 6.894695651072573 4.7277950246684775 7.096698615072513
Hf 5.384035250537592 4.629381626051336 4.880796126419403
