6
Energy = -43.8211964 eV
Hf 7.601208455677836 7.70288851421508 9.575249443398004
Hf 9.133724843837845 8.164567107658806 7.133649930713121
Hf 6.4411881122538315 8.47789790780264 7.232476170983371
Hf 5.13466150007324 6.127683389996405 6.7723254218233215
Hf 7.354083577065147 7.063495735651483 5.125387388076536
Hf 7.741976408910126 5.887604199304474 7.537861192325704
