6
Energy = -44.31779437 eV
Hf 9.878457112597538 7.177078762422712 6.675579725554285
Hf 8.580864526434747 8.905436348210284 8.420714057197054
Hf 7.777967508135205 6.287712191589924 8.247940526392354
Hf 7.303633054784472 8.030676590309346 6.148338872795091
Hf 5.394798801702251 6.157177419815379 6.8529424777467955
Hf 5.939213571250652 8.310633687992667 8.51960974144241
