7
Energy = -51.50128147 eV
Hf 7.287502932452322 6.829557360279031 4.191631015890979
Hf 5.6895677203681965 4.573586011661977 4.499701452654531
Hf 4.591160160388273 6.953538024192382 4.874922345028316
Hf 7.124801438111164 6.339532701440013 6.848913095027547
Hf 7.066290335178595 3.695815552021652 6.638086286877994
Hf 4.680127537664888 5.158987315816529 7.154936076387793
Hf 5.08420116124447 7.972634319995812 7.315461013540636
