7
Energy = -51.92211404 eV
Hf 7.283292111879675 8.327213866204387 7.332335564467495
Hf 6.855022132255396 6.041181235359293 8.915479298657857
Hf 5.287396335135602 9.176158915569305 5.526270405890197
Hf 5.547774064485014 6.336953757003286 6.456295402665292
Hf 7.277793368659946 7.612919127378603 4.664713035866281
Hf 6.60408377803056 3.7586254506457957 7.5352206209868875
Hf 8.282397395676913 5.813592710978684 6.569363947595662
