7
Energy = -53.11781963 eV
Hf 4.5659163247641175 4.121520902382193 6.012702534786001
Hf 6.7616674291807675 4.514658618771503 7.726825313204787
Hf 6.46339522911898 8.126741497806325 4.97266048823865
Hf 6.897185220025472 5.354709101768039 5.0521069204220455
Hf 7.934199976529931 6.989694963539509 7.084164408216551
Hf 5.145347338631379 6.6878764834961 6.990400906643298
Hf 4.381302397764778 6.353812348251873 4.310153344503986
