7
Energy = -48.10330821 eV
Hf 7.690220786207967 5.529931509610082 8.687335711471626
Hf 6.307633176160625 7.86628461766058 8.694501299999999
Hf 4.92504556611328 5.529931509610082 8.687335711471626
Hf 4.92504556611328 7.08533484271117 3.927930640849624
Hf 6.307633176160625 6.307633176160625 6.307633176160625
Hf 7.690220786207967 7.08533484271117 3.927930640849624
Hf 6.307633176160625 4.748981734660668 3.9207650523212485
