7
Energy = -47.451503 eV
Hf 7.710779172858867 12.673362251432769 7.658399169758936
Hf 7.52668935465027 10.00667129702474 8.266586472143628
Hf 7.861253175801389 4.787422994981502 10.499573607646697
Hf 7.618240834818836 7.288828668395001 9.381870548625272
Hf 9.634553837267804 8.3604551160904 7.930923221041099
Hf 9.778033998568851 5.814724591082523 9.085102210338523
Hf 9.656458935619263 11.032266361827924 7.11029206698616
