7
Energy = -53.11496747 eV
Hf 9.097865183738744 7.067154567369733 5.895344927623326
Hf 7.1668229904234435 9.104683086859657 5.914210509081451
Hf 8.02937159661984 4.846529788731611 7.238883222424709
Hf 6.382731568289759 6.427079057751763 5.604851819719785
Hf 7.4664092993062505 7.438657325605654 8.150076124260535
Hf 5.433022384521562 5.506142595963609 8.078846353742044
Hf 4.898930936982294 8.138468196154108 7.25926315036665
