7
Energy = -50.69141297 eV
Hf 10.052254546392723 8.45004950465381 7.89264722317203
Hf 8.650773077289726 6.16793955748002 8.805497665659601
Hf 9.234762846379702 9.312117817665117 5.370295731136011
Hf 7.4279758266967475 8.031354246026279 7.061761975207838
Hf 7.852631279922765 6.426398293423149 11.202502969528506
Hf 8.321456139325747 10.586807619112728 7.611938242451495
Hf 7.938617119288988 8.817027378963763 9.717569345455244
