7
Energy = -52.96889834 eV
Hf 5.904263539235178 7.912751701899091 5.438705492396359
Hf 6.837264889552768 9.573635580421419 7.473679641951196
Hf 8.535476936802256 7.59678947448356 6.458746889671394
Hf 6.94570958485709 5.360896183792447 5.919688623016573
Hf 8.372738127661357 8.110800442551493 9.244667942765238
Hf 6.074876456395978 6.937259916845215 8.076802390964612
Hf 8.481292639206572 5.510153339024273 8.345687742141807
