7
Energy = -47.32719957 eV
Hf 8.963797388042 7.5920501194332495 6.0555610382424385
Hf 7.180018706086009 9.59463103072072 6.476818919157289
Hf 10.19139749740705 6.410308165187567 8.172788959426947
Hf 8.844786424130907 8.813026000154341 8.553767697681623
Hf 9.627126585880704 7.238283356748073 10.700935871951192
Hf 6.621577284097737 10.422618629259267 8.99866092049463
Hf 7.846660430022886 9.248611755694284 11.11657412403779
