8
Energy = -60.38359661 eV
Hf 11.435897882835665 8.53526945428569 6.669454699720789
Hf 10.162627737324849 10.26532511121432 8.35236429153037
Hf 8.936694011429054 9.290265479364464 10.815013132872012
Hf 10.372104252104469 7.517027064365595 8.978635350827577
Hf 8.71140156212003 8.349368102358357 6.865405831989184
Hf 6.214493660585135 9.176387325534366 11.025618396200988
Hf 7.452954356931943 7.392275005008276 9.350630479963444
Hf 7.267637413072804 10.127498003369665 8.69078522886143
