8
Energy = -60.19410265 eV
Hf 8.626194050853861 6.058737953047265 5.169710919278513
Hf 9.42194069709862 7.643232475072083 7.078249109003447
Hf 6.123248395342584 5.340191328144973 5.028241390377959
Hf 7.181396443944308 5.841369933873212 7.738851341356136
Hf 7.710004463361558 8.530058960983004 8.83594989999327
Hf 4.414696615971078 6.216893135242316 6.789679009045308
Hf 6.651325509254695 8.030536537680671 6.125022024337774
Hf 5.20508993249498 7.824763259539563 8.686422396858847
