8
Energy = -61.20034565 eV
Hf 5.429105466290378 6.016814339390221 7.78326960547313
Hf 5.429035060886224 6.016820875354609 4.252221388129187
Hf 3.8159167525715882 7.470600947982824 6.01779742577893
Hf 6.59651199960693 4.142572506377178 6.017725372856598
Hf 6.590592858790164 7.894723924615826 6.0177384400958855
Hf 3.8205149829609293 4.55795289806844 6.017782844609833
Hf 8.23015281184431 6.021215902104303 7.419419770574468
Hf 8.23008982995871 6.021218369015588 4.615964915391315
