8
Energy = -61.10384868 eV
Hf 6.740190532538327 9.954197903935992 10.016564975733145
Hf 10.359221471353553 7.216297780068702 8.372675232074393
Hf 7.978212650062162 8.623259645392478 7.661152639197543
Hf 9.101056154532634 10.807016132790663 8.964144575791199
Hf 11.225092728267983 9.370646742568443 10.035939898750154
Hf 8.99199165403414 10.475658913004759 11.661150093056689
Hf 8.668247040339061 8.063560167537762 10.421875910013524
Hf 10.761577162004656 9.578582291919064 7.079940628594559
