8
Energy = -59.6165266 eV
Hf 7.9168197346229565 7.806890472276696 4.846456636471168
Hf 8.914425264038192 7.5837202308159375 7.534997785967068
Hf 7.572278173996561 5.491356039294538 6.423249367865597
Hf 7.99366683851473 10.027160221320633 6.492215514368872
Hf 6.675323434413549 4.082974475444933 8.424098819161003
Hf 6.59670539047586 6.588392291687014 9.121669410088058
Hf 6.067036104378089 8.020098437603705 6.859803239522728
Hf 7.410985913557261 9.27301602695089 9.083045417585021
