8
Energy = -60.60180763 eV
Hf 6.7365618101656795 6.603782028435756 5.08291474642619
Hf 4.157179089075513 5.759419405292157 4.48843476123342
Hf 5.248076481101565 4.787616088401884 6.913138743119289
Hf 6.070940994796294 3.8146327531810686 4.458781518506829
Hf 6.8727413103489825 9.126658354541558 6.781816283681212
Hf 7.997753161806278 4.433772558035592 6.305457204052643
Hf 7.050315936478262 6.681620090078307 7.962422533019244
Hf 4.6336967455643885 7.559764316591957 6.774299739298256
