8
Energy = -59.79411901 eV
Hf 8.165224238285541 6.5733766891752685 5.237739704931664
Hf 8.56402783671258 5.323941080746294 7.783936845682972
Hf 8.066460868261847 9.274546316412124 5.101379291190396
Hf 6.014692789215706 5.051194550504807 6.621279259486494
Hf 3.8800087785158324 6.391569262254617 7.711202162048937
Hf 6.339215801208699 6.642865086205189 8.89217263200649
Hf 5.904172900775887 7.956449680325764 6.306994644219619
Hf 8.488901460091672 8.177941711992393 7.5309229957143256
