8
Energy = -59.5900693 eV
Hf 9.057026409981798 4.864941369114834 7.344545627461892
Hf 7.709029692001103 5.716264530818186 9.51099989601935
Hf 8.413417599252979 7.593145955411535 7.551280417930382
Hf 6.287296811373804 5.272305632147029 7.124199323642548
Hf 7.254508343800674 6.900439760987461 5.184110197990045
Hf 5.703922576253695 7.838518684521054 7.7879638376509375
Hf 6.458411506984986 9.541644025849159 5.699269788630406
Hf 4.558575662380105 7.696563634464546 5.219691096385639
