9
Energy = -69.62505905 eV
Hf 8.978266726203849 11.655653838139393 12.457781308057237
Hf 11.100077872952014 9.849115746001507 7.407322270686941
Hf 11.76120752577257 11.25519335598964 11.739841249461575
Hf 7.4171731962555825 10.023616263996209 10.873776156222988
Hf 9.159210957589634 8.50969804486842 9.105209662816353
Hf 12.64593106371593 11.506327347604602 8.979078979410437
Hf 9.824631206686558 11.199787588339559 9.685733302014674
Hf 11.871728113515884 9.044379901964987 9.90272877828798
Hf 9.821581432926944 9.129130696683621 11.83023286386439
