9
Energy = -68.06118089 eV
Hf 4.534227385139986 6.245442646442965 6.014859026939539
Hf 7.314076762912019 7.1392991641573555 7.758363893444495
Hf 5.4189504510251085 5.740610660607202 8.748870281327934
Hf 5.890350341499791 8.10435395740484 4.50051991565418
Hf 6.99121317613375 5.59112399716851 4.739248403156053
Hf 8.46797811365592 7.942862067947297 5.62521563064793
Hf 8.459240001052942 4.933889268361259 7.168824038282211
Hf 5.424353742570475 8.760612648839508 7.191241572432786
Hf 5.888704996557233 3.9309001193512283 6.641952502173254
