9
Energy = -69.7357715
Hf 4.66980111682755 5.178018792744678 4.729427810587821
Hf 4.145559938539275 6.127193630152754 7.293097761888513
Hf 4.102217540614531 7.968946635329596 5.09613574665745
Hf 6.732668836887126 7.04903428711405 4.409912258806134
Hf 6.8663095046579565 5.350457113093933 7.5958247527132015
Hf 7.414537049105259 4.316232880038075 5.102390682145196
Hf 8.787893206892456 6.696863454978927 6.193762514427469
Hf 6.27925777661579 8.06226919097196 6.962669102247269
Hf 5.146571031609262 3.395800017325591 6.7615953722760365
