9
Energy = -68.34945346 eV
Hf 9.411584704455835 8.557787737341094 9.18627447863717
Hf 9.47689997538712 6.018665854800297 10.283040549961617
Hf 8.269369146547271 8.324184542396068 6.509310507864734
Hf 9.72114315511278 6.175462046880812 7.648596733941197
Hf 7.256749365285299 5.65041357571736 6.370603848820208
Hf 7.105513251852998 6.992460432400684 8.888357055122212
Hf 5.418748165172005 7.771118664885777 6.76262615957782
Hf 6.074496929121111 10.087221221201204 5.625167869805405
Hf 6.697541025221035 9.766890300697005 8.315729749704323
