9
Energy = -68.53487417 eV
Hf 9.922522078068297 8.148707267696484 8.340671810310964
Hf 9.328086522695545 5.939021245936302 6.652334700519322
Hf 7.446116782413261 6.6571349618721465 8.52597960385176
Hf 8.338773393377581 8.578803942972709 6.243467646002189
Hf 6.955923417375325 4.352863878385493 7.147733790212717
Hf 4.257247043814879 8.224842524559229 5.621437008918058
Hf 5.861012905118197 8.721741659000386 7.682952506601616
Hf 6.618216747061289 6.555211740460489 5.5733990472662525
Hf 4.697343645402359 6.127617200709567 7.497208503142316
