9
Energy = -68.39579415 eV
Hf 11.103455916876133 8.645267569146428 9.636921844013266
Hf 9.757529717167165 6.959461615253868 11.423708607612923
Hf 9.785603589297136 8.247548762828096 7.087046220638389
Hf 9.951663174138996 6.209343204390116 8.886128070506876
Hf 9.466305881408744 10.878551588702502 8.272785808888168
Hf 7.371218774270962 7.101530452506475 8.105817558018286
Hf 8.406645953623896 8.95287382251889 9.878657712599292
Hf 7.4506717427170965 9.621954963261516 6.788916050827973
Hf 6.73746914789131 11.07899124101252 8.895215676692304
