9
Energy = -68.31383989 eV
Hf 6.084777511965916 6.986871324858485 4.720786797044134
Hf 8.616740790270857 5.777081077022735 4.537662664703088
Hf 3.8323322176525014 4.945180449793784 4.361256196136428
Hf 8.582765718469645 8.338083330234936 5.302564193314131
Hf 6.335875617315847 4.277539295507035 5.537688035347725
Hf 3.781614476521812 3.3192743981396484 6.566576758294687
Hf 1.8246361414349233 5.118964276192973 6.278180636846766
Hf 4.521616255957259 6.014704404199629 6.85066303847976
Hf 7.575343842863348 6.3780040165033265 7.000324252285827
