9
Energy = -68.73000946 eV
Hf 7.536625841709686 4.476682471185179 5.440629545397373
Hf 9.797347634023165 5.945063044601717 5.703023008637379
Hf 9.235236081332463 8.245195911812916 7.016769523688556
Hf 7.269013420510888 7.258224880345793 5.265208113436829
Hf 7.8350329628005095 5.956308728112138 7.814084376499853
Hf 6.434139530925155 8.489820620496689 7.696050092804842
Hf 5.236724481450531 5.736688059887868 6.662768722830074
Hf 3.9394693898482913 8.173763494332691 6.574411712426564
Hf 4.494038538522972 7.008408910322475 8.989148163318456
