14
Energy = -1.30107039 eV
Hg 3.813129666802288 5.524080233102755 7.950640024401333
Hg 3.7877880692214085 7.262308303730633 4.708920654539395
Hg 5.524080233102755 8.7445347954394 7.300840908534151
Hg 5.524080233102755 3.7271442012998186 1.4906536065598843
Hg 5.524080233102755 2.3036256707661162 7.300840908534151
Hg 7.260372396984107 3.785852162474878 4.708920654539395
Hg 8.517235191497953 5.524080233102755 2.0128368497677203
Hg 5.524080233102755 7.321016264905684 1.4906536065598843
Hg 7.235030799403225 5.524080233102755 7.950640024401333
Hg 7.260372396984107 7.262308303730633 4.708920654539395
Hg 3.7877880692214085 3.785852162474878 4.708920654539395
Hg 2.5309252747075575 5.524080233102755 2.0128368497677203
Hg 5.524080233102755 3.7788698678796004 10.495749140354373
Hg 5.524080233102755 7.269290598325921 10.495749140354373
