12
Energy = -0.8976192 eV
Hg 11.325908769641241 5.985351930855545 5.967548739832436
Hg 11.038653507189798 9.950526499493371 8.910665197469498
Hg 10.25914723549926 4.640931353130171 8.893054020218521
Hg 10.253832812333382 9.203898149728168 5.701151856095058
Hg 9.753548365009783 7.365019755165456 10.761129861624566
Hg 8.102178619800116 4.646001505117222 6.240089317029696
Hg 6.474619662266304 7.652862699866054 11.282907375648318
Hg 6.530383721788825 11.047655987892895 12.007155949167435
Hg 8.836526321557175 12.376452846560982 9.717970887299943
Hg 7.042041575405767 7.866975643345895 5.4314905854936475
Hg 4.924497321769681 8.568790038778825 8.10912852357833
Hg 5.515348927825253 11.883633857627377 8.649127444448375
