13
Energy = -0.89560413 eV
Hg 9.859746761444955 3.3482567656881668 6.867087425599594
Hg 8.865571629619437 3.245366531330764 10.220581496757358
Hg 11.712985361211995 4.931227753806705 9.294274992609981
Hg 6.373788958290062 5.536175437593964 9.524024052838069
Hg 7.376604821364082 5.657145464945425 6.206099978429242
Hg 8.015625434108479 8.07605038711862 11.047672296478739
Hg 6.124288536673523 10.54793799748596 9.639842852383527
Hg 7.2091810754875585 10.67714948929407 6.2759984734944645
Hg 9.565852593634322 8.225361889253838 6.0438632866167765
Hg 10.861465931528722 8.248838544685125 9.188640226870902
Hg 8.273946422289104 13.203355278806331 10.357460511138003
Hg 9.433779336200297 13.234051020605595 7.103739940930015
Hg 6.764462306039288 15.107257345760345 7.997605218767853
