15
Energy = -1.03865597 eV
Hg 7.229813758553028 6.133823256161549 3.554452544905094
Hg 10.536351479511627 6.9025655345302495 4.295612261350078
Hg 6.41254757695966 3.8225919696149884 6.126150528845506
Hg 5.341012500381285 8.737371437105324 4.847367075839918
Hg 8.229365016857473 10.593149857533952 5.106882766396164
Hg 12.105511702218864 4.064166356345973 5.86944408748351
Hg 3.337299849435623 11.058859472597987 6.65125059030598
Hg 10.282096741508067 8.774591144804495 7.183183904422951
Hg 11.849350245861345 6.1384477905348325 8.74645798337341
Hg 6.1299838930373225 6.157657803304601 8.717631998885429
Hg 2.5294192824908364 8.733264937385107 9.233596165877186
Hg 8.974302299336477 4.91460089901384 10.291831617243018
Hg 9.757042976311245 10.029355336199563 10.281214180685206
Hg 4.391813227722989 10.277744756730675 11.82889583045823
Hg 7.187446520966939 7.955166519289756 11.559385535081539
