14
Energy = -1.05771379 eV
Hg 12.365960717340537 6.042285007627236 8.552660371129297
Hg 10.023666845477802 4.568279066336049 10.592283609534165
Hg 8.716574115490905 7.424297640655539 5.299964663198342
Hg 11.205423660941262 8.913289875089847 7.1419429569861705
Hg 7.532539516590517 10.408351092660743 4.124644167177592
Hg 6.193405479348046 6.330775719185372 7.306895736236721
Hg 12.40777159285483 6.639672757997467 11.924024903673976
Hg 7.098303470675128 6.319357333346 10.666582061482908
Hg 4.109533477062946 10.223541636555256 4.301940380732141
Hg 10.98878198753859 9.750441797019326 12.463266923558882
Hg 9.902366549154491 11.046184664065567 9.480327653981888
Hg 4.1002671280998495 9.028967109179124 7.511720549877195
Hg 5.867809878159745 11.871537414651751 6.748881329068398
Hg 7.690795359322144 9.544422179779406 11.623882651723834
