15
Energy = -1.48295828 eV
Hg 8.524611141624835 5.8702909543260136 11.168516914207556
Hg 5.119430153071349 4.621477788937997 11.022086258404281
Hg 7.155371752068497 4.77974812561418 8.172117913881895
Hg 3.5768532609014643 5.286990013581752 7.811165475688887
Hg 10.874917521724322 5.126883026659464 8.533279565861429
Hg 9.253099748721585 5.41159537451122 5.388071146413085
Hg 5.545951191802043 7.693115831487161 9.469265920972378
Hg 8.90679178988359 7.884784200843191 8.173081514681108
Hg 5.898462432562832 6.891742661170081 5.584838901639102
Hg 11.70374989485354 7.8836399707409415 6.097312078106731
Hg 3.2510571901318284 8.752492283789284 6.679336566975981
Hg 8.656014724913213 8.881536333687762 4.532329098725711
Hg 6.422099572018342 10.139117720495157 6.965398562003018
Hg 9.944739409605715 10.979795418720078 6.952876367781381
Hg 5.207732770548385 9.650198185263795 3.7649230831872944
