11
Energy = -0.60106099 eV
Hg 7.4996064580739334 13.789037398447444 11.166370917640775
Hg 5.637036904254049 10.586999263251702 6.7080528480847335
Hg 10.874622978468825 7.221366117653059 11.133784767551965
Hg 6.720568400507149 5.91568645141527 10.0832556144293
Hg 6.357473003805731 7.047937770952306 6.72300491993827
Hg 12.933259214217756 7.48795041672045 6.138154616781176
Hg 13.494174561113399 5.887939821127587 9.099355428508249
Hg 11.921721231305744 10.352210809565312 12.451417716345803
Hg 9.586777660398228 6.419737163321674 5.657766951590316
Hg 10.621076151722727 12.69769843505482 10.103190044363007
Hg 4.817523671214272 12.150491381856932 9.809468268887235
