15
Energy = -1.38832534 eV
Hg 10.329676071175399 11.507179973604753 5.684778658530953
Hg 12.677172684399444 9.035807402437703 5.15526091405149
Hg 5.201843874746741 5.758176033303763 6.7223027115680285
Hg 7.2747897619663515 11.791003746952136 7.264333235696606
Hg 7.442330109619478 8.490999357752605 7.806793815110756
Hg 10.571898136131903 7.673225268535834 7.419952454772805
Hg 8.290817122184407 5.201320249642522 8.291697160957149
Hg 10.335955279939961 12.408945384569131 9.036463859090675
Hg 4.694900151306276 9.805291957941522 9.31229347950788
Hg 12.828259764962345 9.90202945336376 8.545854741587785
Hg 11.09618580884443 10.200336316849802 11.569535188040945
Hg 7.735531987842139 4.492391420891595 11.819874462366661
Hg 7.787753728850432 10.56830487963622 10.54919516334246
Hg 9.415570632619124 7.347981148898876 10.619953772698638
Hg 6.454039456557692 7.953731976765633 12.33843495382349
