15
Energy = -1.52050558 eV
Hg 6.663096242284398 3.7068678108839173 8.89263996690028
Hg 5.129329687178349 6.920257084152131 8.415513643921132
Hg 10.376462860289774 4.162775484123335 8.585602896777917
Hg 8.115010924364713 5.674331924576257 6.423526830457962
Hg 8.433317511764512 6.7264161259905135 9.72065847201397
Hg 6.581109055763917 9.543579527387774 10.33631961414874
Hg 11.078545542658272 7.373589255119723 7.406428786439977
Hg 2.566132877180604 7.386507255934017 6.100062936900127
Hg 11.235702815508443 10.628400886928182 6.429009616337923
Hg 10.162835044594727 9.81622209663393 9.859591083739712
Hg 4.751972407969585 4.553923769051533 5.900486626095794
Hg 4.382359018997909 10.174512540398732 7.407927045037918
Hg 9.277035984389956 8.30349458824753 4.406501714765153
Hg 7.9213983840657605 9.611492555081462 7.2294912634544115
Hg 5.814259772944582 7.877927894552093 5.054518175340877
