11
Energy = -1.00013034 eV
Hg 6.558375119160633 5.864371019380196 5.115738304768439
Hg 9.035617579575556 7.086654089035561 7.398522451691473
Hg 2.8191655311397126 5.005219421113108 3.734532892272598
Hg 3.8055497412551023 8.27947852143607 4.549844736001903
Hg 4.45898207907106 2.9941903617712184 6.273193353734841
Hg 5.789942413070226 3.200266930692897 3.0129938859701353
Hg 7.889709211793537 2.685370223024429 5.8687277252647245
Hg 6.475777473221498 4.969179579391745 8.488432413016708
Hg 5.751740390380925 8.270880770401192 7.507337896085696
Hg 3.027692752848446 6.058093612444925 7.124053957543735
Hg 5.343149231987692 6.541996717005148 1.882324184961527
