10
Energy = -0.77580185 eV
Hg 8.975770374000207 4.262011141096393 9.380070920513289
Hg 11.691764022008211 5.973501602611679 8.2855283856624
Hg 6.354364566148664 5.86987457600377 8.012847415297616
Hg 7.433301211023445 7.757681147606576 5.440410360129232
Hg 10.634840124742045 8.51161078575515 6.162620108740846
Hg 6.1434353448991414 10.850996484847196 6.486513413859585
Hg 10.37184000183679 9.304709693258854 9.429126905726715
Hg 7.440494478561731 7.71234812168573 10.67103066274037
Hg 5.541672330945937 10.621044741847536 9.902538309637276
Hg 8.291723183889282 12.263943912038908 8.821408632741518
