10
Energy = -0.71959163 eV
Hg 5.643508914226061 8.81269575772372 8.177075426166338
Hg 6.5267900266393895 5.645120581597481 9.197828599400143
Hg 9.5651574186668 9.307876030067845 11.972465244867132
Hg 6.914726132474001 10.954534923914302 10.553950276300215
Hg 9.33073808883806 6.02772813611295 11.141069131024725
Hg 10.104257113918306 11.674747576070407 9.528079099080387
Hg 9.626895267071813 5.068155981970047 7.841581178285099
Hg 10.410367474223568 10.732005096127713 6.28065356194673
Hg 10.16453331727528 7.400031498864891 5.433102411593451
Hg 7.400574478256045 9.425126971448163 5.281976756935754
