14
Energy = -1.03381655 eV
Hg 12.277815252298636 4.938588756135559 8.624446476666064
Hg 10.60398369961168 7.6880403229254455 9.833346937472475
Hg 10.107142720650435 3.830602365729364 6.185203915944498
Hg 10.1876998022469 8.808485294181311 6.615939984896075
Hg 10.422761109597234 2.081234347298152 9.105840590448524
Hg 9.737834973261844 12.243064712291243 6.951213656002321
Hg 7.646984581388995 6.19201852440695 10.623999812784616
Hg 7.455844756581919 3.613747899916416 8.365694083641788
Hg 8.380341693213088 12.894064836515645 10.081335750767897
Hg 6.592471198203481 11.924032278383862 5.510668209741428
Hg 6.793460853676608 8.47711418631254 5.995722368408538
Hg 5.296499019168311 8.09124639554569 9.02057215848099
Hg 5.694831346732225 10.957701155275025 10.822311995453413
Hg 5.288694183603703 13.342272865980027 8.454094838096273
