12
Energy = -1.0668169 eV
Hg 4.995388199426868 1.685440518875454 3.659777339083616
Hg 1.6495719801445647 2.4399144335211207 4.31225754307619
Hg 6.307161554588772 5.070888649742772 8.5157070449455
Hg 2.4943019571596254 1.291418548017144 1.1578984036723883
Hg 3.472012740483427 4.5480952584091625 2.4558858651255053
Hg 6.775404631749761 1.8932864786472399 6.795906344732086
Hg 7.704060585317098 4.8194632552072925 5.237652879406578
Hg 1.518913562637806 6.069103197985693 4.994601924383513
Hg 5.115713254879477 7.191167279571939 5.746032694757333
Hg 3.725622687934413 8.037033833213895 2.716265703134229
Hg 7.334623858115906 7.803513849530511 3.1930157167041666
Hg 4.006298077628286 3.964028738313692 6.214328676877051
