12
Energy = -0.8217725 eV
Hg 6.010413589554913 9.482923836912288 10.077799988654242
Hg 9.822962222491322 13.11884077078475 9.201955071026928
Hg 7.154900678317586 11.626167085931115 7.744238419320543
Hg 10.895587852415709 10.889904257774866 11.70423075361165
Hg 4.930799258717949 6.990004392010536 7.869660302417965
Hg 8.82445452562905 8.225766655371338 11.455878078651136
Hg 10.25939631381116 10.658128294789597 6.783443540924937
Hg 7.04997347069783 7.032890919485634 5.107375018039217
Hg 6.807819326842802 4.1474015876381545 8.569991227342713
Hg 11.37163706611096 8.45683034956861 9.254497141633403
Hg 6.778927872572555 3.564527491624633 5.158237426937291
Hg 9.477500062259233 5.072746055362921 6.594966671949671
