13
Energy = -1.19149852 eV
Hg 3.2660442075632696 5.452379176394156 4.0543410084122105
Hg 3.697515720920044 10.208757710648 6.082013945021543
Hg 6.528623220678365 4.755534647920078 3.3808898065857065
Hg 5.1014562084184245 4.044210320872515 6.550917692837434
Hg 5.872211790061873 7.504392645217947 5.471708594020404
Hg 8.812674341230329 7.481424685326859 3.673624757334165
Hg 6.0919893839045525 6.299225833366222 8.940407914630304
Hg 9.772821758545666 4.401965644967229 4.8744211058095095
Hg 7.47240318334419 1.862442840322408 5.183254210453188
Hg 1.3716743025300502 7.561665345968989 5.98629146315449
Hg 8.301121358703428 3.655231052049368 8.057839002386865
Hg 3.1289417854739985 8.037398041892807 8.905721855100001
Hg 8.884626518012581 7.037476475719317 7.140672680152517
