12
Energy = -0.95104607 eV
Hg 0.019060299498325148 6.282144385305937 3.1114704244462326
Hg 5.23416716780269 7.864980772048045 3.9102430715074115
Hg 7.010015102074132 1.8101418372986933 5.085961227231739
Hg 1.014164937256992 1.6160841575099234 3.923263171777633
Hg 4.256225468525605 2.086691236420597 3.086125648586438
Hg 4.084200760485874 5.28329918161492 1.021426151835418
Hg 1.600483814089425 3.4057476041635386 6.8800774498020685
Hg 4.223710863669216 7.864980772048047 3.6019814905212084
Hg 5.332085604164091 4.664589760891119 6.488621370702959
Hg 2.842875325857266 4.905471070652626 4.118360920907049
Hg 6.824492161170359 2.855838822929221 1.0348133500703034
Hg 0.6723366007541638 3.3934621981806266 0.8729188284196137
