10
Energy = -0.69809335 eV
Hg 4.571463492330691 10.050961483224373 8.412790067418273
Hg 7.345398985702056 11.915453917824784 7.5340495449017215
Hg 5.655733172916422 9.976936518430348 5.210458486487366
Hg 5.420975031615648 7.016181533536861 6.99097927256939
Hg 10.419435849896082 10.654468687837852 8.393106332192383
Hg 10.193592090492999 9.324876305118709 11.55492167288623
Hg 11.081210784814264 7.645591273127612 6.961086687999528
Hg 12.19858459803278 6.83152259837888 10.226093533511204
Hg 8.456640591275736 5.677107457137486 7.851837463853932
Hg 8.942223079164577 6.1852342418540145 11.21607454529424
