11
Energy = -1.13360124 eV
Hg 8.886611663809175 12.406553270794294 8.56884066690301
Hg 11.380099844008106 9.930411748751698 8.585638074922905
Hg 8.080168192398688 6.954294805953361 8.316207887037368
Hg 7.513779730789377 8.876440227818787 10.23181115870056
Hg 9.987732240852166 8.054047172957283 6.724994500049167
Hg 12.111095437119962 8.876440227818787 11.02202925842284
Hg 9.744647418972212 8.047916087994192 9.203456225336797
Hg 8.872426734988206 9.18021165990193 8.282657235839082
Hg 9.169613576047253 8.853260223243765 12.582099084631208
Hg 6.998164680875393 11.298984255775661 9.159097106604033
Hg 9.149041028925124 10.46600850191854 10.267735984481629
