13
Energy = -0.60219286 eV
Hg 11.220800473076633 7.329753403201272 3.5358950379413554
Hg 13.066736723090035 5.537245166296005 8.606026814373772
Hg 11.330943718439725 10.730127733485938 3.9597138976570414
Hg 12.284611413966724 7.872253891210461 11.043751981690562
Hg 10.336415062711582 5.652025799759398 6.455942523361411
Hg 7.993020673125404 11.84400962732485 4.224018184303016
Hg 8.716448465684996 12.83808373711528 9.811382853475873
Hg 10.763214925214678 6.1027499511574845 13.619928597683238
Hg 8.323409865823187 14.253672400598651 6.660620622579948
Hg 5.659201273297581 12.799805315116235 11.450233295100837
Hg 7.486041468746869 5.360629842678392 12.761737399354491
Hg 5.305088821846319 7.794564503359321 13.94207423637072
Hg 4.245122408281431 9.645547346831991 11.199149981007626
