10
Energy = -0.69347924 eV
Hg 10.651078489985377 4.9839489325739486 8.009695136137353
Hg 7.577739766432218 4.0062862126923084 9.369538930426998
Hg 10.931110836935705 8.309252419217838 8.514108905204054
Hg 6.110328703680307 6.220410778669711 7.109358962420227
Hg 9.0621356169955 7.488992093303532 5.886024573956139
Hg 7.1798522787059635 10.30955422850439 5.804838143852531
Hg 9.250317901597068 13.352774930281637 7.13971791209911
Hg 6.1415406594148605 6.861950469408429 10.419362305047146
Hg 8.631486373103579 9.186520251089064 10.775258546315241
Hg 6.904746878728875 11.515215563085045 9.071990764425522
