12
Energy = -0.92325059 eV
Hg 7.570407637125627 4.495947796991874 9.866707524794332
Hg 6.006534647718582 6.907794265050157 8.053632914948842
Hg 9.256532559335653 6.341921305362605 12.166486336326285
Hg 6.54400843242587 9.529920544189592 10.16360234976545
Hg 10.87352839911378 5.142272409892864 9.247093225185209
Hg 8.619671265540472 7.8458618283743995 6.110475397145155
Hg 9.733256165892634 9.516493099694863 10.989436578274523
Hg 6.251450674752907 10.161795406399053 6.83205235435094
Hg 11.178420195626218 8.359229988949233 8.129401055472286
Hg 9.740527011621168 12.748642281413563 9.892297465150207
Hg 8.29267861957285 12.874487386338371 6.802872348938975
Hg 11.435685850762841 11.582676590039325 7.018947641824581
