14
Energy = -0.93974897 eV
Hg 8.300758203128805 11.213591074928031 13.008794223468556
Hg 9.711684453203913 8.547861303253793 11.39109128252047
Hg 10.171441030494373 13.236183021984637 10.931890233139303
Hg 10.510909970030614 10.496369944008489 8.683346088582205
Hg 6.745446724796152 13.054385680063273 10.516724878086901
Hg 6.713092978479662 7.050356182641475 10.857237334417944
Hg 7.1989356571171985 4.4196297273281715 8.57646180378857
Hg 7.37080353761086 11.361199777387245 7.61172579692766
Hg 5.183174487570465 8.88792294519754 8.380972810145344
Hg 5.704168503649691 6.2648533152431565 6.099655754178094
Hg 10.475341833978552 4.462608998298099 7.722582937785677
Hg 11.224576375637461 7.2836236688704625 5.911206532818962
Hg 10.235526020662832 4.378291804545324 4.302898082691736
Hg 8.290864668446687 7.202793634135077 4.129994620896241
