14
Energy = -0.95926182 eV
Hg 11.198435806031235 7.381491593599601 9.330204853905927
Hg 10.750282315866654 10.548377958256761 10.487510497563049
Hg 12.358036026082235 12.074911126213532 7.818717067367047
Hg 10.08633738439589 7.301485043633234 6.106227036464506
Hg 8.722164445824898 5.8908463538536475 11.211253022444062
Hg 7.4062978598746225 3.385035376754616 9.223007851023908
Hg 9.286273573712736 12.940834312791953 6.359903477909907
Hg 7.812155275443955 11.951763305686775 9.326354789143899
Hg 11.176591426971328 10.39109919375029 5.101669435241507
Hg 5.606936476011776 4.750863727776552 6.661627742794129
Hg 6.724688268780488 7.880123631697055 5.809912669378732
Hg 5.758125395096377 7.665745340950495 11.213110141697342
Hg 5.432363497594394 9.61618159051055 8.444963254597448
Hg 4.274707592440986 4.869340774867777 9.793679073547734
