14
Energy = -1.28887286 eV
Hg 5.386802790807314 5.89260963724388 3.9738917141942784
Hg 7.589125589452673 7.797622064704581 5.796575001960049
Hg 3.939285964281724 6.5356134962426315 8.593630415900574
Hg 2.5460214517207382 7.252402531506844 5.552988344552273
Hg 7.019710811773053 5.281080065075659 7.98280256699224
Hg 6.06240773379038 1.9175969756556022 7.590444771632654
Hg 8.351448106889743 4.377930778526521 5.001598656100064
Hg 5.509176464239141 4.996693634817147 0.6539610377630756
Hg 2.614564068200895 6.670482175108166 2.06118280332621
Hg 4.8132372169541915 9.385808445102969 4.21508602972126
Hg 3.2464741197800104 0.7459351428609925 5.533703822424603
Hg 3.562603153659572 3.9687750677964555 6.305697869890468
Hg 3.197772349587916 3.320843357427068 2.778971402032122
Hg 6.06401668058593 2.00958244227459 4.091302702321752
