13
Energy = -1.28593449 eV
Hg 5.881273062189065 7.915554388348246 6.106210483085448
Hg 8.189617729570182 8.698302840634481 8.69473173079923
Hg 6.3600733822239555 8.717229933704465 2.7312172714443106
Hg 8.728497232018139 5.6064288712020565 7.131730697676652
Hg 9.158725999999996 8.616247052158224 5.076718392294553
Hg 5.84279149619303 5.84279149619303 8.985491630667159
Hg 5.804309930197001 3.77002860403781 6.106210483085448
Hg 4.05881420775721 6.049757256836816 3.744790231132762
Hg 7.626768784628849 5.635825735549244 3.744790231132762
Hg 2.526856992386059 3.0693359402278344 5.076718392294553
Hg 2.9570857603679195 6.079154121184001 7.131730697676652
Hg 5.325509610162107 2.968353058681592 2.7312172714443106
Hg 3.495965262815878 2.9872801517515817 8.69473173079923
