10
Energy = -0.75361968 eV
Hg 9.596599146561683 7.024510417061158 8.320256120911163
Hg 6.425105561523531 8.075738541717385 9.37770934588261
Hg 9.863063179606696 9.074023527441875 5.178572358948684
Hg 6.225219275249695 8.831168574391947 5.763251057421788
Hg 8.049313080195601 6.2560654664281525 12.020436099925531
Hg 6.459882133517306 12.280143065259155 6.763755043799159
Hg 9.90847321193552 4.078017194112753 10.166162307678919
Hg 7.771260971330153 11.210460435981162 9.91179327457343
Hg 11.45750307206555 6.993660828225699 11.247620824839615
Hg 9.889020872644856 11.764022641211199 7.292817989247862
