12
Energy = -0.89591888 eV
Hg 12.620799479383457 9.316526677607435 7.7573563429046555
Hg 13.14941890916617 6.490730819896073 9.556144569211975
Hg 8.542804043087314 8.997772037895384 11.290219404989585
Hg 10.077959349607628 5.986146158088887 11.0455384095367
Hg 9.801187979346029 10.875785116608421 8.773507800768499
Hg 11.878797624146628 6.288910548077674 6.253715530094905
Hg 7.522237821802178 8.801248800201929 7.286711060221084
Hg 8.808784708987185 5.721491139031858 7.77309552863652
Hg 5.418038961024162 9.367864469352789 9.981799070131945
Hg 4.737733068409954 9.325533365357177 5.204398357660394
Hg 3.027854426756379 7.8412808633915665 7.816358517658234
Hg 3.4279790618518096 11.33718309348146 7.7796894416337565
