10
Energy = -0.48637826 eV
Hg 7.508353731857664 9.21577644865956 5.923586115511763
Hg 7.9132731824693865 6.955237288219747 3.44049254627109
Hg 10.770431585974194 4.153038655904034 6.752830768665963
Hg 4.179961031765762 9.72516713147561 6.269540262873915
Hg 7.679097084929469 4.21325564712217 5.341825126659581
Hg 3.761473581398283 7.480786409202677 8.730007931148188
Hg 11.429885664694584 7.316911644820144 7.596937774170889
Hg 7.976290384720648 10.347013195293366 10.419113586616183
Hg 4.9794878477709466 9.176963281878104 11.38831929765649
Hg 10.412787273134779 8.026891666140452 10.748387959141384
