15
Energy = -1.12528925 eV
Hg 8.566677690399647 8.581691764491074 3.6739208269950314
Hg 6.514594484026731 5.781249751254286 4.213532066929762
Hg 8.60946963274811 3.3602449047705205 3.1281948670473843
Hg 11.157684047730966 7.556990638371093 5.730405257938099
Hg 6.53280780213871 8.32504795332713 6.5361020409459165
Hg 6.739385834211813 2.865840656083323 5.996509855394933
Hg 9.675215414650603 4.495164315553147 6.235776263161185
Hg 8.318260968786038 11.414377948327767 7.282996443635168
Hg 3.6756793735695243 9.860753305850107 8.063663332536935
Hg 5.476971907667866 12.72926967071958 9.104786669484914
Hg 9.865411317556646 6.772380784604169 8.827517608295754
Hg 10.372158598652849 10.114961733615285 9.875968656637943
Hg 4.954044869401809 5.473409176849225 10.123649450234932
Hg 3.1378626368034483 8.327070500997728 11.175701092782955
Hg 8.061388871105487 5.999160344636134 11.688889017430359
