15
Energy = -1.09329748 eV
Hg 11.269195256617405 4.839378552013049 4.489584765233122
Hg 13.58596208699348 5.363000148844355 7.0422693724626555
Hg 10.702274225221709 3.669605156130956 7.612215187345219
Hg 10.326380432682608 8.18827754460251 4.673402065115393
Hg 12.54600659668561 8.69482178574435 7.288596244929127
Hg 7.289274767158695 7.797525925583752 6.124354354836289
Hg 8.252588444151769 6.223673124937881 8.98401918948466
Hg 4.100559268894604 11.584036186673085 7.9977543484904965
Hg 7.332599961444717 11.11997254444106 6.982810799982693
Hg 5.66537598536716 7.295444776256325 11.336586978985242
Hg 3.0148110309847986 8.832315086172205 9.710867382991717
Hg 10.721703496067603 8.310053580956902 10.10555612292613
Hg 3.964089145256379 11.771680624235831 11.378294178123674
Hg 6.919393354001292 10.294786547648142 12.429752003305044
Hg 9.059015717578424 11.287030622164682 9.957155318851674
