13
Energy = -0.67858981 eV
Hg 13.72648135666496 5.150915934032983 7.030300244918406
Hg 10.248025552603218 4.5603713101748005 6.926092059845021
Hg 14.409925865354559 7.91258438246003 5.08928397515022
Hg 9.262004179897554 4.02915835209399 10.19136143536736
Hg 14.512237776788394 10.791557733722334 7.043115262280792
Hg 7.753870993865959 6.778914223107344 11.732212889313436
Hg 4.300011737429877 6.48395815100835 11.371493329451715
Hg 11.385456211756368 12.159890242484353 6.551993012281563
Hg 9.497851553389243 10.398133355906193 8.947554377704478
Hg 3.1550350440293897 8.710673679605163 8.989126651222978
Hg 8.277591358060848 12.75790591374865 11.17447543100525
Hg 2.7855378809587865 11.698453154225882 10.744313444459147
Hg 5.321279065946991 13.784617528910754 9.648793894085417
