12
Energy = -0.92969223 eV
Hg 6.972473767684458 11.275733262644009 9.014449361908579
Hg 14.590398633789716 8.188218052252566 12.548254813788299
Hg 10.161715177320872 11.793303865814998 10.266468257524055
Hg 7.654087986698766 10.757424706131742 4.195365815513218
Hg 12.414231473988979 7.815516943991094 9.870783510662402
Hg 12.026790033499525 10.46562085380774 12.790297957275024
Hg 9.785026271315227 11.016061778186593 6.945376761460775
Hg 9.151554039380635 8.690206482605216 9.304286289013058
Hg 4.748604784877037 11.25560396515252 6.223758446510393
Hg 9.978125446288791 5.3953988379162245 9.267525518401044
Hg 8.718629202673986 9.528405968361684 12.711610919684475
Hg 7.254932767809298 6.646072563756094 11.439440108941426
