15
Energy = -0.95407036 eV
Hg 7.234525336055814 5.926685565422415 3.01763963354411
Hg 10.132481096307846 7.248815733034674 4.607856682791297
Hg 9.61099904737068 10.667085118828576 3.8073091049896965
Hg 5.928372702768151 5.382963345974772 6.183830576280742
Hg 5.316673811682338 11.984151682684589 6.181312646665073
Hg 4.353459720453256 8.579640442889252 6.70141437722391
Hg 8.592675758914925 11.72658020473909 6.9955326820107695
Hg 7.472774202174287 2.081859703157521 6.665375797539097
Hg 10.395143246134397 7.793069881336552 8.033753036272767
Hg 2.9943525284787516 9.109826174201553 9.885970502740621
Hg 9.090988400666836 2.7514780625005866 9.649066690969404
Hg 10.413951902942648 9.101541690217877 11.240733425720514
Hg 11.738538881129113 4.621584769070642 8.562229508579435
Hg 5.368535634265158 10.813819254009116 11.725283678402159
Hg 7.430303873545371 8.284674514822038 12.816467799159826
