11
Energy = -0.84163676 eV
Hg 11.980857953799942 7.629127497373594 10.206885052610433
Hg 10.28846374837457 10.69019121269701 10.002935891433355
Hg 9.71031940221821 7.654257323025227 5.457112663017044
Hg 12.678053936814218 6.9919817107794895 6.97521704406268
Hg 9.301484524024465 10.783649348420868 6.710092910276084
Hg 7.698803202094155 9.134705424910951 11.698517569047437
Hg 8.890471229950892 6.0531773663402495 10.657034897710787
Hg 5.8673081257691555 10.793027197265145 6.741424988550362
Hg 4.885849343432486 9.70601844483532 9.844225455102771
Hg 7.781090533084944 5.671202020644056 7.426595772023021
Hg 4.884960657082123 7.4990757813256765 7.21778036711028
