10
Energy = -0.71665791 eV
Hg 8.64306399791949 12.06238561839624 9.166169274488798
Hg 11.531982477550596 10.435371697098073 9.691099652290616
Hg 11.529317497605012 7.869849533366032 7.3904578050254015
Hg 6.838220610255868 10.704601652380397 6.574328031177657
Hg 5.957946568520757 10.184527588296222 9.958478056257675
Hg 8.885707140057782 8.152054883805407 5.254679352069541
Hg 10.591630516720487 7.345187651757218 10.73697725546775
Hg 7.2485208357910365 7.207673352083895 10.99966300451988
Hg 6.028153806726401 4.7225496011662855 8.896363367443417
Hg 7.068988571162062 5.22738093356841 5.517179013752049
