10
Energy = -0.91530461 eV
Hg 5.858704588844423 3.7594868718633037 7.132852713405451
Hg 5.788223314408606 9.24555266791066 5.351887696934563
Hg 7.613022792349478 6.894377481879831 7.127326579450913
Hg 4.024512992522894 6.848531067381787 7.127692829972612
Hg 7.591715603818985 6.870042097450654 3.666732924000354
Hg 5.831756613441419 5.836431237010974 9.813001338734432
Hg 4.044139748128486 6.8264171508538976 3.668077701542066
Hg 5.855077128557742 3.775969475013687 3.6745067626971286
Hg 2.8935122964527604 4.085023058840842 5.369565104356287
Hg 8.810873634216211 4.159887632328116 5.365473848811138
