14
Energy = -1.30432758 eV
Hg 5.724798930084539 8.027706675222275 2.2724273933916073
Hg 7.576241611626245 2.856704223944468 5.3969293419400515
Hg 5.724798930084539 3.4218911849468 2.2724273933916073
Hg 5.724798930084539 5.724798930084539 10.705751533222529
Hg 3.87335624854283 2.856704223944468 5.3969293419400515
Hg 5.724798930084539 2.813986298624919 8.515425054695429
Hg 5.724798930084539 5.724798930084539 4.799753170909829
Hg 3.801121179312448 5.724798930084539 7.778463716896066
Hg 2.8581379084654133 5.724798930084539 2.9606655166389824
Hg 7.648476680856631 5.724798930084539 7.778463716896066
Hg 8.591459951703662 5.724798930084539 2.9606655166389824
Hg 3.87335624854283 8.592893636224613 5.3969293419400515
Hg 5.724798930084539 8.635611561544156 8.515425054695429
Hg 7.576241611626245 8.592893636224613 5.3969293419400515
