15
Energy = -1.5055342 eV
Hg 3.5548334893518616 5.347002299167185 4.271145537670895
Hg 3.72692461080807 7.549482533337626 8.97787794106716
Hg 6.543072369314553 3.702200828351098 4.026891874260544
Hg 5.394682694098421 4.746498723642683 7.274388061149175
Hg 6.601203951519461 7.212435118449503 4.662034190088714
Hg 9.259768723084786 5.8645514371085525 2.920446216496287
Hg 7.098549512508986 7.656443453706811 8.055741040176446
Hg 9.79888647044941 3.5065712625660446 5.375121575411451
Hg 7.28926066038904 1.8651732504370402 7.062314448196335
Hg 1.8927321077633965 7.970240637480234 5.947695423391501
Hg 8.792381159242645 4.621475341155566 8.622542161324347
Hg 1.9584807286135941 4.901549485071589 7.5098942232075725
Hg 9.968486941260602 6.9821783471404855 6.164012482114183
Hg 4.866238516246523 9.878104133004703 6.481303272167878
Hg 3.8830370706310418 8.824631385128598 3.2771304303041946
