13
Energy = -1.0636182 eV
Hg 11.986484912542096 8.200625554042537 8.48655097273142
Hg 11.190220021671186 12.52035516466492 11.18615291092432
Hg 10.941815418825827 10.604444176469519 6.328323000154337
Hg 9.924489662288998 5.508604966154099 7.649780832837855
Hg 10.609688073756349 9.21932810399221 11.426497306494422
Hg 11.18707835098294 13.577455428836311 7.942533391825963
Hg 8.198932720944658 6.05251861069828 10.41184568342199
Hg 7.927086081917682 7.158973396457692 5.533170369576891
Hg 7.6743162079653615 10.316260925594362 6.895828135012381
Hg 7.4209638517521315 9.310941939135049 10.130061790787762
Hg 5.042306297637615 4.706806033458611 9.572423971112249
Hg 4.780007358350647 5.804053846446038 6.336891970346891
Hg 4.0058688779348435 7.9540091722923645 9.022456903574277
