13
Energy = -0.61383377 eV
Hg 12.520927864144745 7.014017271863862 12.58030837571316
Hg 14.025069215899126 11.301445301874825 9.17962961135792
Hg 11.576338706825085 10.075908325461283 11.196370740235672
Hg 11.445820860685208 4.601932907546481 10.327798669155234
Hg 13.536698551030607 9.680213736594586 6.022238227085162
Hg 8.143085202112056 3.714971717328959 10.848962419626295
Hg 10.207011755573578 8.998823860829829 5.835750525550189
Hg 6.291886280821371 5.288422148183604 8.332254999539753
Hg 8.50679650674064 11.665138683799755 4.360182716005667
Hg 7.275246505225741 13.60657769867698 6.963603207589845
Hg 3.7588590919313924 7.146699560598138 9.787462541208004
Hg 4.652169305032815 10.392332760496533 10.623843573783944
Hg 4.145738369183584 12.42909522984415 7.84326846955064
