15
Energy = -1.60676636
Hg 9.781430500000019 13.364453499999971 6.965117500000071
Hg 11.347655500000055 14.542246499999887 9.760595500000079
Hg 8.41407249999999 7.484514500000051 12.412624500000009
Hg 11.219159499999963 6.443709500000075 10.912280499999966
Hg 8.554835500000104 7.056857500000031 9.045587500000003
Hg 11.304157499999992 9.008090499999986 13.454593499999952
Hg 11.616783499999977 8.189984499999953 7.8909485
Hg 8.577091500000007 10.91261049999995 13.022561499999998
Hg 6.75693649999999 9.935345500000103 10.191599500000054
Hg 13.43281650000009 9.378315500000124 10.505069500000014
Hg 8.785662499999988 10.213994500000023 7.325333499999924
Hg 11.73187149999999 12.071394500000055 12.036066499999933
Hg 8.587174500000012 12.77829749999996 10.191599500000056
Hg 12.162354499999926 11.475058499999966 8.317982500000062
Hg 10.226728500000046 9.863822499999975 10.246808500000007
