14
Energy = -1.36802308 eV
Hg 5.747902082532017 5.743223572978802 5.327071269537698
Hg 3.9150321547290043 4.6939880830166185 8.232573502142358
Hg 7.580772010335027 4.6939880830166185 8.232573502142358
Hg 5.747902082532017 7.892990217021578 8.236538729785337
Hg 5.747902082532017 5.745804045146005 10.824042017653456
Hg 7.518243304232596 8.787431762208607 5.384498731116471
Hg 3.9775608608314386 8.787431762208607 5.384498731116471
Hg 3.977474464701236 6.766428130983046 2.435740077351846
Hg 5.747902082532017 3.701395929582058 2.433320182717492
Hg 7.518329700362797 6.766428130983046 2.435740077351846
Hg 9.269554554551718 5.756003798507197 5.385372689843058
Hg 2.2262496105123155 5.756003798507197 5.385372689843058
Hg 7.497564290881893 2.6897558171558424 5.386643063469577
Hg 3.9982398741821417 2.6897558171558424 5.386643063469577
