14
Energy = -1.0061554 eV
Hg 3.1237498243306203 7.458950875687918 7.948946835112874
Hg 9.655852849918805 11.69492630446913 7.681487876613842
Hg 5.798274433249224 8.313704291641212 9.855377125330353
Hg 5.51705602381405 9.711731711991376 6.781259281064087
Hg 11.176406006942827 8.781189908712701 6.890607511804811
Hg 9.22871139402755 11.60982459928043 11.143355047933868
Hg 13.109100512139264 11.334465675726221 8.016506356039141
Hg 12.690973324829116 11.382387892023319 11.509154836532067
Hg 10.69803174246953 8.748207823511619 12.205458234234946
Hg 4.332333742568653 5.118017016572983 5.604282139393063
Hg 6.805119158612028 7.344919665876192 4.565833976207597
Hg 7.745556615168338 5.546570461281326 9.680615327991568
Hg 11.027840891867253 6.679185910335417 9.542300747033083
Hg 7.569842823416882 4.617612705153985 6.427596975485038
