10
Energy = -0.89509005 eV
Hg 7.217985574626278 4.744223345339608 6.202955202062068
Hg 2.286682520206343 4.742359605443748 6.214210638122663
Hg 4.748505129732785 7.207345346158588 6.212496955011196
Hg 4.751139506614299 2.276000042266209 6.203720544282256
Hg 6.4833674536314865 6.49345551996839 3.2889146095394546
Hg 6.481852639553763 3.011856385362762 3.280732944961766
Hg 2.9997437311207604 6.491170186433141 3.2910667337279786
Hg 3.00045707769465 3.0069201148977296 3.2899873044516026
Hg 4.760119268749063 4.73507592236154 8.771733654535176
Hg 4.734843927415316 4.756290361113025 0.7088779648425719
