15
Energy = -1.1332653 eV
Hg 1.7456532386410624 8.991429147889592 7.659727341887259
Hg 3.393618344419136 7.708341499513741 10.3885339535639
Hg 5.87238467761398 9.937207657909983 11.104696391263435
Hg 6.24498908898238 11.612674494172204 8.15678969038625
Hg 4.068260767857228 6.504545663735141 7.246968627904663
Hg 4.626782695507943 9.604518721960133 5.890845326493559
Hg 8.625173595296221 7.891757739624079 11.310071453082571
Hg 8.942249034716422 5.84035380413657 8.562826346246059
Hg 10.684993557294074 10.416530334785168 10.393901844377229
Hg 9.554199631702723 11.068616605279107 7.216225668331161
Hg 9.228304312360876 7.957038403111773 5.881158549518125
Hg 13.412119785738339 8.30107293497057 10.377960328046436
Hg 12.16788082104261 5.181590867152911 9.561719391213309
Hg 12.44092096195579 8.000359421116157 4.878744976328913
Hg 14.275910990883741 6.800649489840682 7.3854157327963526
