14
Energy = -1.37358541 eV
Hg 6.101312789853386 6.101312789853386 8.638482
Hg 6.101312789853386 8.638482 6.101312789853386
Hg 3.5641435797067706 6.101312789853386 6.101312789853386
Hg 6.101312789853386 6.101312789853386 3.5641435797067706
Hg 8.638482 6.101312789853386 6.101312789853386
Hg 6.101312789853386 3.5641435797067706 6.101312789853386
Hg 3.653177451283275 3.653177451283275 8.5494481284235
Hg 8.5494481284235 8.5494481284235 3.653177451283275
Hg 8.5494481284235 3.653177451283275 3.653177451283275
Hg 8.5494481284235 8.5494481284235 8.5494481284235
Hg 3.653177451283275 8.5494481284235 8.5494481284235
Hg 3.653177451283275 8.5494481284235 3.653177451283275
Hg 3.653177451283275 3.653177451283275 3.653177451283275
Hg 8.5494481284235 3.653177451283275 8.5494481284235
