10
Energy = -0.73370165 eV
Hg 8.071496352500345 8.668060661326626 6.36901212503375
Hg 7.972147775290567 10.379265279757771 9.304400825707047
Hg 7.724878820202612 5.576104480816283 7.989449649108591
Hg 10.414164114433508 8.24686779327032 10.90395579183304
Hg 12.215084574939706 11.167573191407804 11.726446579194613
Hg 4.555368684548571 8.004061923756955 6.104604128141943
Hg 13.053653108241473 9.533642990253087 8.744596226763138
Hg 5.070748316316749 4.615426696670837 5.8145762667105325
Hg 10.903297986526834 12.227694675717858 8.505125768683664
Hg 4.483919599581593 6.120202625657848 9.039069830293974
