14
Energy = -0.95411833 eV
Hg 10.297824135717978 8.03298773458688 14.760928676899697
Hg 10.407385991112653 10.112094886558916 9.875221103763176
Hg 10.990132123537803 8.135716517327989 7.067255910908378
Hg 7.566050329523528 6.8771369722767925 13.009568187095095
Hg 10.605344554172762 5.300941823588878 12.73723282169081
Hg 9.77302131722863 10.301218788386377 4.695098362293046
Hg 12.284145703265944 8.186735924339544 11.977531544066817
Hg 7.966480677963116 8.073737169520502 2.852916521712756
Hg 6.970532635589807 11.990939074213083 5.731932004353699
Hg 7.269189913279153 8.709411587588605 10.159037455790378
Hg 8.27731754807731 6.1885656417602135 7.994410628937035
Hg 5.507775240443034 10.625682420388499 2.8991259345528144
Hg 6.064667974759016 6.660353251594277 5.359859926285572
Hg 4.520977176889793 9.626684203251104 6.068893879946414
