12
Energy = -1.27848644 eV
Hg 9.59620033219051 9.45671441220052 9.252985484419586
Hg 10.62124361756728 7.951323497282948 11.928493323836454
Hg 12.522462565015113 10.367648816443667 10.616126527167532
Hg 12.226239322805757 7.417826179606406 9.006743323332312
Hg 9.058439108701096 6.320846704982946 9.533094794583278
Hg 9.302688240117588 11.154069783589954 11.999759900044111
Hg 7.099638710255476 11.451867853044094 9.533094794583278
Hg 10.10079214557894 12.824374389399432 9.270453501361455
Hg 7.389114740364493 8.51509015942446 11.41152724012104
Hg 9.577414910850326 7.9406570080192065 6.302074440547746
Hg 8.476264183502115 11.164989212748473 6.555240367578277
Hg 6.837837227555478 8.51552198325795 7.9439341979207105
