11
Energy = -0.79584922 eV
Hg 9.840396229232853 9.164944896208713 4.001809441150081
Hg 8.004613979373833 10.961082642193302 6.223533075103237
Hg 6.129982332241573 8.195054633248372 6.8383104099371055
Hg 12.478889157283657 9.265285012071262 6.167468978249308
Hg 8.439476147323543 5.885058895237466 7.789223333163827
Hg 10.552976755077015 10.928445773859915 8.591613314099366
Hg 4.563051614867526 9.107977697860584 9.7373955729281
Hg 11.17688304587682 7.621241511534275 8.903313802363542
Hg 4.146013582628318 6.059595631644568 11.22720667155587
Hg 7.473767443071008 5.229224235750284 11.001004789760145
Hg 6.519141148106041 8.218648195754461 12.407304170170104
