10
Energy = -0.4654499 eV
Hg 7.754462856961308 6.144224805128139 3.136477572501467
Hg 8.783567322836111 9.148575890217899 4.302599725215614
Hg 4.678949366907917 5.732970139696863 4.371128351023996
Hg 11.731127459188958 8.521630155113318 5.775222346338391
Hg 5.144453653172634 4.548691522388189 7.505199813034854
Hg 3.4984607029379897 6.722960548369403 9.459812695138503
Hg 11.333821287284994 7.1466223890476215 8.811037029370533
Hg 5.203602436887195 9.582612309915003 9.846414123912863
Hg 10.459333514513734 9.750258013095676 10.774078687835159
Hg 7.5603210830930045 8.849553910811743 12.166129339412464
