13
Energy = -1.24759601 eV
Hg 5.9374418150614305 9.148946241734851 8.706653487102484
Hg 3.4550493705650016 3.297919180136867 5.6927819426849355
Hg 4.386304282717057 6.238576564427551 7.525746075688577
Hg 4.386304282717057 6.238576564427551 3.859817809681297
Hg 5.9374418150614305 9.148946241734851 2.6789103982673863
Hg 7.011225372290217 7.77155165685175 5.6927819426849355
Hg 6.887101914516222 4.134569617629401 5.6927819426849355
Hg 7.688049186552826 5.945799943695356 2.751205563180607
Hg 7.688049186552826 5.945799943695356 8.634358322189268
Hg 5.426061384774914 3.003520407579896 2.7456505798028474
Hg 5.893538453700778 0.7688892888786673 5.6927819426849355
Hg 3.883537012596093 9.359549403508796 5.6927819426849355
Hg 5.426061384774914 3.003520407579896 8.639913305567024
