13
Energy = -0.64793604 eV
Hg 10.722146114258406 4.239106727007743 7.33646317439714
Hg 7.58990130118811 5.74513440725985 7.117160595163871
Hg 12.616460543323308 5.391353376642948 12.482588653501004
Hg 12.745852006343668 6.397112932809652 9.15592092419122
Hg 7.188055192397463 6.897594555090848 3.8553381339847546
Hg 9.814447815079193 6.929772161834995 13.890993106017726
Hg 8.027338068102083 10.23786451238296 3.4853209583509
Hg 10.642111915563083 10.028125283078847 15.039518249630918
Hg 8.863107567828651 10.275054148007955 9.833415171587284
Hg 10.833407496833315 11.981093325424345 11.996618647411964
Hg 5.125746792089316 11.995276474930984 4.283478992764532
Hg 5.621722568717323 11.635491463807762 9.809724601837699
Hg 5.831463271197379 13.821267263370741 7.140122802231783
