11
Energy = -0.84372307 eV
Hg 10.907790438347702 12.263250384012192 8.251328658187605
Hg 10.65074678301499 10.650330211658948 5.095627435274563
Hg 7.782538729864371 11.975353835156978 6.6655521850374875
Hg 11.178967145378383 9.076570935378362 9.617444876027308
Hg 10.67372617685075 7.462611682963925 6.648616556499003
Hg 6.142986165479378 9.325947853386413 8.02283249233502
Hg 7.431682273702732 6.885183899311114 6.135927004986337
Hg 8.008540808778584 9.106865729571902 10.8781646532997
Hg 7.48210528594731 4.285266351911684 8.480360569950772
Hg 7.740975708020456 5.850303095130649 11.472560406739005
Hg 4.552201272482431 5.339684962123782 10.118826236222537
