13
Energy = -0.92223422 eV
Hg 6.111395896112603 9.636104686786384 10.185931521364333
Hg 8.364696933094162 8.537964435026764 12.482425564996387
Hg 8.419051833832448 11.743245980970807 8.732830159284962
Hg 7.341406236058004 11.646435768338375 5.49222522123179
Hg 6.75612620216745 5.673971130104819 13.269924182694073
Hg 5.803675360686374 6.951812401919282 8.072469308246644
Hg 10.210430499636542 11.42753824399708 3.6295097515805854
Hg 6.101833038793405 4.293291395734243 10.255087799981423
Hg 11.355965365146997 9.975124796054722 8.647323895073368
Hg 8.293525330838266 8.629538865772595 4.179441341604694
Hg 8.749717291876934 5.264055651573169 8.27658108717653
Hg 10.675373225561039 7.081753253962676 10.444254204971603
Hg 11.47475349330675 8.798457958654957 5.436871529174853
