15
Energy = -0.99242346 eV
Hg 7.400820195344677 3.122444315744836 2.3906740030727316
Hg 8.93994486760189 6.12200429339168 3.1114704567083327
Hg 7.42867177584985 10.582760547671032 8.202674782883436
Hg 4.928474188702761 3.58791228122596 4.824939099791872
Hg 12.206688081942332 5.391869681818105 4.163525483113765
Hg 10.454682054654612 11.446220566185666 6.923710649165037
Hg 7.152116037049005 7.167260450701741 8.174525437234287
Hg 9.660312464257744 5.863037377578338 6.40477919245862
Hg 7.159907192278285 3.823598157205015 7.426749025260918
Hg 7.930298733350806 13.149132353678866 10.401176317249343
Hg 11.96550890555909 8.306823919908977 6.982945327489781
Hg 8.377800078041266 11.385228262924796 13.403549399272535
Hg 4.407886514206258 9.101479064033319 8.948288697702264
Hg 4.420513707951178 7.656415560052269 12.126280376030415
Hg 4.938640457374343 10.666078422044151 13.886977006731126
