14
Energy = -1.37066849 eV
Hg 10.372480000000001 5.290317177491829 5.290317177491829
Hg 3.468980551911228 5.290317177491829 7.0519523670892985
Hg 7.111653803072429 5.290317177491829 7.0519523670892985
Hg 5.290317177491829 8.410528035091517 7.090121878425341
Hg 8.346057664346082 8.119697810592944 5.290317177491829
Hg 5.290317177491829 2.1701063198921435 7.090121878425341
Hg 7.111653803072429 5.290317177491829 3.5286819878943594
Hg 3.468980551911228 5.290317177491829 3.5286819878943594
Hg 5.290317177491829 8.410528035091517 3.490512476558318
Hg 5.290317177491829 2.1701063198921435 3.490512476558318
Hg 8.346057664346082 2.460936544390715 5.290317177491829
Hg 2.2345766906375815 2.460936544390715 5.290317177491829
Hg 2.2345766906375815 8.119697810592944 5.290317177491829
Hg 0.20815435498366144 5.290317177491829 5.290317177491829
