13
Energy = -0.63697733 eV
Hg 13.114191565076883 4.96510891468234 9.354514736847257
Hg 12.478248634531884 9.66259417128754 12.172747465000326
Hg 12.995152118742878 8.421324502036077 8.989578368296852
Hg 9.833821336080284 3.8193293971401427 9.411608425896029
Hg 8.994721989953062 9.977933412294322 12.464829376624389
Hg 8.873404572159126 2.4306736734318046 6.390337958837533
Hg 8.197184022911683 13.310379145597377 12.883838415007839
Hg 6.537784527533082 8.794974063590017 7.800940656127493
Hg 7.748169082804946 4.953884190388439 4.267434598406832
Hg 8.05818036250694 15.028894337581894 9.863784327099953
Hg 6.353597537226214 11.778278893295045 5.8990498408166685
Hg 5.014538150499369 6.35727113593238 5.892892185936047
Hg 5.1699695003154105 14.029168527533086 8.202740315986278
