14
Energy = -1.32102304 eV
Hg 3.886831365401437 5.606429266096431 8.007623918781453
Hg 3.8684045127755273 7.35216708809659 4.790319708292616
Hg 5.606429266096431 8.85405640139552 7.387397175497934
Hg 5.606429266096431 2.5746848643396167 2.053035429771768
Hg 5.606429266096431 2.3588021307973395 7.387397175497934
Hg 7.344454019417335 3.860691444096274 4.790319708292616
Hg 7.367686705243687 5.606429266096431 1.6276583306041161
Hg 5.606429266096431 8.638173667853241 2.053035429771768
Hg 7.326027166791422 5.606429266096431 8.007623918781453
Hg 7.344454019417335 7.35216708809659 4.790319708292616
Hg 3.8684045127755273 3.860691444096274 4.790319708292616
Hg 3.845171826949182 5.606429266096431 1.6276583306041161
Hg 5.606429266096431 3.859497373155254 10.588650798411255
Hg 5.606429266096431 7.353361159037608 10.588650798411255
