14
Energy = -1.00000789 eV
Hg 11.21831912602396 9.120693860669206 6.907570963159541
Hg 11.181294869526555 5.1047553777352865 10.99803533757251
Hg 11.972081623161598 8.385339143434338 10.16952090843419
Hg 9.175421766546041 6.716360515506754 5.593704541382501
Hg 9.30999647036675 11.83949490984246 7.6662147686670625
Hg 7.294647316469573 11.92918674563702 4.887707030872561
Hg 7.968235566250037 4.245666150096959 10.295954681087185
Hg 7.245174308565323 8.734093206825927 3.5951550727142463
Hg 4.598989931632476 9.883762537296224 5.551957620236769
Hg 8.535554776336348 6.265054989054819 12.97124410112721
Hg 6.566482532950338 5.7307425045426905 7.535040329860918
Hg 7.015772970190678 10.934739546157678 10.014346687111162
Hg 9.33593955898917 9.53909515333105 12.118895710006953
Hg 4.999769169162723 8.5220416644626 8.67848703890559
