15
Energy = -0.94835679 eV
Hg 6.247899229427644 4.937722121838381 1.455390872014004
Hg 5.695761080641791 10.498967553003975 2.8021043306902134
Hg 4.659152951052551 7.117921839417007 3.6105970851093847
Hg 8.097404816959912 3.629080849391947 4.140245915033345
Hg 8.909721520168462 10.488076447987059 4.186717021998393
Hg 10.761137684931425 5.741023591523572 4.945470614875086
Hg 9.431297545807217 8.158974401472987 7.07157777686088
Hg 4.126125052307479 9.729865672274352 9.180383228732929
Hg 10.490846050609687 5.815753580054415 9.665971482291061
Hg 5.47063910611761 4.404751934840348 9.445660114799804
Hg 9.170402919302042 11.02996208116256 9.68684246482036
Hg 6.2321257422438805 11.311856849362208 11.577617400334189
Hg 3.5802890618481555 6.813010449518832 11.055741220283577
Hg 8.348432470319965 3.8811381410458896 11.571880132462145
Hg 11.00151474482319 8.664644463668072 11.826550316255934
