10
Energy = -0.49177953 eV
Hg 10.57925282811398 8.250052318530289 6.32966218327326
Hg 5.529844650586178 10.646955060878197 10.899711324542478
Hg 9.609804599919665 2.6907935436348636 5.465287781149083
Hg 10.095739038391413 12.570615303383887 9.705878271763254
Hg 6.439633748833415 4.080828195193661 5.988763287451014
Hg 5.282994843629537 9.149471429481563 7.673460188302998
Hg 10.796406043996868 9.686313132037403 11.46442196832923
Hg 9.617211056831602 11.663418733787674 6.332961130880105
Hg 7.6611096647575865 8.44037247461431 12.545430258996474
Hg 7.865551862926334 6.739553124805868 7.738800412490542
