25
Energy = -2.81063585 Dir = /p/work1/plile1/GA_structures/Hg/25/all_candidates/819/
Hg 5.950993544980272 6.4604893269622 10.196874512421937
Hg 4.0058722262094 3.2714844081738694 10.955095107811392
Hg 3.5100598895925583 6.685508389168698 1.3656350970775002
Hg 5.144980308778179 1.1314012278545431 2.2270417134176705
Hg 7.000639951334589 7.785347660571863 2.194818561442462
Hg 6.230874040910971 4.358089123085222 1.9457809569687647
Hg 2.782850856646354 3.5471506913516517 3.279049166386763
Hg 9.135179115783572 4.825573854642767 3.5157100886005246
Hg 3.822079521688942 9.410527452800277 3.527462324335212
Hg 6.2068844920035655 10.221158545307725 4.6236769612224045
Hg 8.637890980385697 1.3945916074606153 4.027565356079931
Hg 4.896936133278292 6.212292230548469 4.562952460376434
Hg 6.681480397121249 9.152928577260504 5.408653052849634
Hg 5.913687014461803 2.6025418253632218 5.391833057521407
Hg 9.688255635394663 7.544154255379938 5.429984712646071
Hg 2.4385866946487837 7.814446944834134 6.229038455552383
Hg 0.2679217429565007 4.616246012853493 6.745579602427842
Hg 3.591355358035195 4.370261911698448 7.010359525074187
Hg 7.250879536726124 5.427435665301175 7.0315869648572145
Hg 8.079499585257073 8.613321626675221 8.384833816139073
Hg 4.062859722156027 1.4027460523272042 8.618225285297038
Hg 1.114700584668408 7.0213505180467575 9.172009935091376
Hg 4.847687141660602 7.524125421288503 8.730173023807474
Hg 1.8795765849755268 3.778334359058057 9.950913139505952
Hg 5.17667957482324 4.34856132389089 10.196874512421939
