20
Energy = -2.15793758 Dir = /p/work1/plile1/GA_structures/Hg/20/all_candidates/3963/
Hg 8.29672990590444 3.213000439805867 1.0367436324357062
Hg 5.014165933415441 6.396512658714751 1.0628036890882024
Hg 2.4396748571059033 3.208269734150411 1.0780419494944418
Hg 6.954030218087882 9.135664508471613 1.589506939128663
Hg 5.5370166407423245 3.492246450012978 2.9598013387890063
Hg 7.9871491455305055 6.139799125478623 2.950670510704389
Hg 2.143874897819409 6.109180203448543 3.1301443698371525
Hg 3.182388992536864 1.331788079646305 4.231081043362218
Hg 8.802037447461174 3.1970666030675057 4.537515548724391
Hg 5.055654372809616 7.7701941781116455 4.507445614500572
Hg 6.1346066557566195 1.3408790555216998 5.878110259144511
Hg 1.3176114625133781 3.4642844960680295 6.096251403713342
Hg 7.433730766686614 5.860818394930336 6.433839583598488
Hg 1.882418270449357 6.698811801726392 6.433483246804182
Hg 2.9297272767454183 9.902151450472514 6.655302989095768
Hg 4.507361405355009 4.239890207420481 7.428224949615342
Hg 8.562794142354136 2.426150879581728 8.012348951782707
Hg 4.8009242247948825 7.538675750921379 8.22792942898883
Hg 1.6045146778360444 4.553439569754552 9.326504597301707
Hg 6.748607022210406 5.316194728809659 9.759268270005524
