25
Energy = -2.80940394 Dir = /p/work1/plile1/GA_structures/Hg/25/all_candidates/380/
Hg 4.923532203055418 3.0465706246993958 0.23648064571135402
Hg 4.646175732189295 6.331672933634528 0.8586067668743728
Hg 1.9437532749657023 4.414758490232846 1.7446086652593802
Hg 5.210620939749428 9.73981623570446 1.4371345196318792
Hg 7.855796143203112 4.657300636413808 1.7337853543665585
Hg 10.919673754568116 6.972494644042936 2.2594733969668837
Hg 7.8163274306598 1.7641795142093117 3.6118101683335477
Hg 4.855619324841609 4.1266666155760365 3.6429511381300888
Hg 10.545001762942869 3.3644436522428047 3.3270252555549544
Hg 2.7972719474771837 8.103243873581157 3.1158568297314067
Hg 10.545001762942869 3.885882693950233 3.8723976854982607
Hg 6.558999534613711 7.355261630393602 3.3585612899980615
Hg 1.035908507361199 5.702186117497625 4.940266268560145
Hg 6.534184217048725 7.9024832995014895 6.531881244290368
Hg 3.327642840636891 8.920677879347798 6.471819550302898
Hg 2.8019059283596297 2.3252785673009417 5.995725387757239
Hg 7.820898161763245 4.648835573906992 5.982860752825165
Hg 9.493341811723905 1.5047867625601186 6.562892604095194
Hg 6.064653198261183 1.4609638018116815 6.523014359177007
Hg 3.8821972154886946 5.5544865856974415 6.70959965037486
Hg 9.467991639744064 7.046152777576328 7.887781617331965
Hg 3.6020317446683885 11.355019746703809 8.383940970925778
Hg 6.28417700237328 5.969196955116043 9.225538387067827
Hg 4.655177450966367 3.041236570287417 9.08656925687317
Hg 2.828775960606223 5.750509491297176 9.97097009072332
