25
Energy = -2.86675551 Dir = /p/work1/plile1/GA_structures/Hg/25/all_candidates/855/
Hg 3.1263886842997617 6.821246108970706 10.84923398255932
Hg 3.9394249638086474 3.406415982771171 0.3948002776101801
Hg 6.058865751326407 6.037457633577036 0.9955774470183397
Hg 2.025258589448346 0.8886547021608532 1.4967659177119446
Hg 7.649859189911621 2.8846998061210516 1.7987890350426732
Hg 9.232259513603882 6.054459802204639 2.3066399351363973
Hg 2.808675134613565 5.753134180021311 2.5188894615518103
Hg 4.745026842454524 2.0542038277875942 3.4833812115165275
Hg 5.020840936123147 7.993032568918125 3.645196251201597
Hg 6.610714535804221 5.164320454980071 4.459821622405563
Hg 1.5130708790033176 2.872291148499584 4.169924601165368
Hg 0.12765890458518508 5.83131163173904 4.709753874849086
Hg 3.343825332575656 5.778811011803358 5.746169856295553
Hg 9.785636080979055 7.121964458317535 5.523052346769717
Hg 4.177678120624582 10.07693531927021 6.054351602163366
Hg 7.333720795646291 2.0940111552192455 6.043674544016918
Hg 5.27728404336859 10.843868938837867 6.318818344240185
Hg 3.388728068940766 2.0679716205414134 6.857241714842851
Hg 7.1062007021052205 8.216373199815605 7.385195957839924
Hg 5.4889597195038045 4.668397188644407 7.955305080123485
Hg 8.753045048780917 4.737792044776947 7.890975027225894
Hg 3.918214984001728 7.710913777531824 8.479833460613145
Hg 2.0946308322436065 4.71483024303383 8.732552754417311
Hg 5.278444156918528 10.843868938837863 9.06660510403046
Hg 5.824423008246388 1.4843130951150547 9.238729429148734
