25
Energy = -2.91136357 Dir = /p/work1/plile1/GA_structures/Hg/25/all_candidates/1449/
Hg 6.771413908250704 6.591166793762543 11.082287120577464
Hg 0.7030153380178469 7.329207071564337 0.9327629117527018
Hg 3.584418022796406 5.212228637430336 0.8028598453336626
Hg 6.552156411447565 3.564913573753406 0.9771152424804802
Hg 8.89331978831399 2.545659924147632 3.3694911347305125
Hg 6.785985087645935 6.556056519979358 3.0574162715278366
Hg 5.910680934401391 0.9234346456562135 3.0985012399527023
Hg 1.1969047064149385 4.937415826650687 3.3489091677124
Hg 3.3302785401321024 7.6256803388748535 3.105929021241236
Hg 2.264089137164943 1.5244041779785442 3.5832907489574364
Hg 4.648378656987534 3.922453102737144 3.963219341828403
Hg 4.914289088365345 9.708354941311551 5.221421977665722
Hg 4.405308617919238 1.2072878268217064 6.257778210748598
Hg 5.281102756196591 6.2723807470531865 6.271889332583401
Hg 8.372750794479277 5.005740834596082 5.68688595765944
Hg 2.249263568587136 7.59500464613238 6.512000501650366
Hg 8.106798351004615 8.382753476937319 6.020722844024694
Hg 10.801996792858299 5.769722052494401 6.2424488504867135
Hg 10.8019967928583 2.7966634476614236 6.261387104530661
Hg 2.052724773482627 3.8892054035646044 6.5030717400715625
Hg 2.0135346894870882 1.4627642703399395 8.888272682225981
Hg 7.598036255276322 2.0737578263513416 7.300923172973045
Hg 5.206845343789264 8.908257705927946 8.622652924934277
Hg 4.683980067947629 3.6747839667134987 8.653715364664476
Hg 7.581223483901465 5.744194322318131 8.945539197412629
