25
Energy = -2.84278699 Dir = /p/work1/plile1/GA_structures/Hg/25/all_candidates/347/
Hg 1.7694772256129372 4.823953434452797 0.7025903216792639
Hg 8.402251249769789 5.347902235455471 1.0274735080341741
Hg 2.273234236386495 7.929992615314477 2.2709119433917153
Hg 5.662641502841773 7.159798061000827 1.9766529963813873
Hg 5.331247776866319 3.554824672719868 1.0147056455003334
Hg 2.512259214473711 1.7839339860649959 2.2896744579887303
Hg 8.748549537921054 7.4651854849940795 3.8479508690100577
Hg 3.4214903187235515 4.8851739504401674 3.8077601286361333
Hg 4.339406484527594 7.959330707519256 4.994990065563533
Hg 0.04672625356337298 4.335819880918279 3.806498304757012
Hg 5.1327448469752746 1.744120741280035 4.618720026721438
Hg 6.944105872852533 4.587467516928331 4.085468493691683
Hg 10.035590389102026 3.0571769367500634 5.029447573261789
Hg 8.682019071758587 5.642809857968443 6.864880522725784
Hg 1.527723554277188 5.870293344409781 6.693137662322624
Hg 7.175979610414597 8.726361762608121 6.689232609264837
Hg 1.9891419467995282 2.450003443918155 6.1098792584248764
Hg 7.623453452770611 2.2881912642674234 7.441904556690945
Hg 4.347328952472816 10.667344076876377 6.943011204720012
Hg 4.860490536266705 4.370061151475471 6.979030035487229
Hg 4.330454022006824 7.546750867979609 8.272986588480201
Hg 9.49380516769346 7.691016473179031 9.509713736957044
Hg 9.768271582993806 4.075370273200752 9.690366720452477
Hg 6.710493363667458 5.6271950239936945 9.750696473961915
Hg 3.303303371197867 4.842111778219907 10.014505837830802
