20
Energy = -2.16533199 Dir = /p/work1/plile1/GA_structures/Hg/20/all_candidates/2988/
Hg 7.108212635963313 6.546408654442826 3.605075070606482
Hg 8.67842663174006 9.692631166515008 4.706329765835279
Hg 3.641617927041325 3.2921416962033665 5.48463494789105
Hg 9.509073810148326 4.133934028645016 3.3739999663294564
Hg 5.222304941361753 9.21239213025523 4.430004060574049
Hg 7.073238566545841 3.8715028485678693 5.784194006551475
Hg 4.698450751276633 6.33766835259754 6.33093238096003
Hg 10.845106524334021 9.203157345446206 7.364641197179855
Hg 9.46106693192182 6.275318436360539 6.2489415420106775
Hg 4.408947473000054 9.72180052994738 7.8365217659188255
Hg 7.604960782473633 8.663292537959219 7.857966242455821
Hg 4.985305074819231 3.645083698789466 8.686349101599943
Hg 10.562467133168454 6.2717415656584174 23.348221365153115
Hg 5.229695352342834 7.1041964829413615 9.734564361520016
Hg 6.295806043395784 10.518227506817539 10.57748714696036
Hg 9.058601946804336 8.421143854014348 11.05812199407849
Hg 7.869699979469935 5.175759642680841 10.556927842836886
Hg 4.710454530519503 4.926254991797478 12.140749431394697
Hg 6.527688232114822 7.845058295285678 13.208906019168113
Hg 8.173174184314174 10.806585687830536 13.470382587830057
