25
Energy = -2.80661692 Dir = /p/work1/plile1/GA_structures/Hg/25/all_candidates/1988/
Hg 0.1465166609802275 6.594448170000232 10.307647193585412
Hg 8.625259135202354 6.541797030787232 0.20306761114970207
Hg 7.915402919338557 2.9471271672745893 0.9374606618631097
Hg 5.311062457306725 5.252016889644903 1.2189757036748767
Hg 2.8047350106161133 7.6221568194177305 1.5081889244258988
Hg 2.5524891926189723 4.186632279104128 2.846889708910941
Hg 7.913563029575401 5.25615247644724 3.3936012520241765
Hg 9.519551275360444 1.4955119825096008 3.8812930397854277
Hg 6.111036231050498 1.5209109967511398 3.3456893811734796
Hg 3.064783464244737 0.7663315346113537 4.4670813864770516
Hg 0.7119655641194178 6.617540229778294 4.704311031434671
Hg 4.438843380420631 6.876534325374357 4.3780143225017785
Hg 4.672182029411156 3.652274291629234 5.556494758744128
Hg 7.0973330896836035 9.535379588892747 5.219895344077467
Hg 8.377336796088061 3.402812145611792 6.378608680813551
Hg 0.970970539364054 3.345053603988244 6.02245370886081
Hg 6.899381725102426 6.492086933868079 6.583978202912231
Hg 2.585363758976007 5.799035018289849 7.641442842127956
Hg 6.049456592283126 0.7006424186882778 6.614020378315837
Hg 4.419309816938012 8.728922576300196 7.188446943509187
Hg 3.3474394686042084 1.8164944837558812 8.675149327650894
Hg 5.801358969252186 4.164779237873747 8.751337093172298
Hg 8.926237484944343 5.518867499264262 9.224204865912538
Hg 1.7418865005789088 8.740051240978763 9.266100439020983
Hg 4.452949185907158 6.88285533712529 10.307647193585412
