25
Energy = -2.73435845 Dir = /p/work1/plile1/GA_structures/Hg/25/all_candidates/59/
Hg 1.4063474532020075 2.421751092046519 5.681332426389916
Hg 9.088330998062167 6.986987720914922 8.85746626958761
Hg 10.7294773822626 1.3612521950008731 5.42648630301821
Hg 7.298076510858128 2.1866622076124265 5.408618386598613
Hg 8.298557896240236 8.264268716546168 2.984067564945319
Hg 9.390100680123686 3.002641180947047 2.74587159244126
Hg 6.993004638980397 6.675132972148155 5.946160053131701
Hg 6.712490889923674 9.604564228763776 8.314986734224773
Hg 3.7972200398358464 6.733138732759377 3.0050296086621375
Hg 9.93215122424145 10.213386753174458 9.188898053062427
Hg 5.676137080452702 9.646743542969437 4.879886604076927
Hg 9.65611474173241 4.308598346531074 6.9389571472803135
Hg 2.447560454311898 10.213386753174454 6.4624465884500975
Hg 0.5962024743442442 7.530382013115954 8.342231051606822
Hg 6.734284960112521 5.103677356267175 2.9850979509431395
Hg 3.899198675042601 7.786924487860822 7.2527382580180175
Hg 9.378170788918585 9.383977287932106 5.9755049756374214
Hg 2.203774707614991 9.326058063399161 4.576496146481514
Hg 4.396335585483233 4.051175432109261 5.404260389730681
Hg 1.3757685923980334 8.853067364526241 9.385212038128676
Hg 6.470547732536632 4.33312167498204 8.333464809138265
Hg 6.164103296628712 1.891528819123456 2.1850295391145065
Hg 2.751738485077095 4.806592258962123 8.557626623445925
Hg 4.316765424295641 1.6713709117937852 8.028157751278327
Hg 1.4042878520964173 5.931147067051475 5.421510314319514
