20
Energy = -2.16781473 Dir = /p/work1/plile1/GA_structures/Hg/20/all_candidates/1009/
Hg 4.759075443668893 4.719015591445549 0.20084080812535177
Hg 7.918507643217834 5.775545188230304 1.5128482376861665
Hg 7.108898901796607 2.3949143665429893 1.4984170244365942
Hg 3.6555269046471732 7.915274526503878 1.5383094906776897
Hg 1.5658732806608542 4.984108078876807 1.8244563370797275
Hg 3.660942875569834 2.0700182016272066 2.302839093569791
Hg 10.322358474858898 6.064986135173807 3.9253389494169855
Hg 7.428613474586704 0.705127579827841 4.464142027048796
Hg 1.7933194933039103 7.094537900890277 4.731912196078131
Hg 7.15143829107356 7.656297239463782 4.206661721725891
Hg 4.715521198397746 5.248592350811372 3.6306604666004367
Hg 4.211115911717645 9.568772638084612 4.699822533943435
Hg 2.3002304823240247 3.390274091947357 5.248040820694122
Hg 4.178487568336727 0.4402876540474216 5.290080555021764
Hg 7.683888120893503 4.005606275126972 4.938192708338032
Hg 4.984889282373974 7.137552336903944 6.874662859872516
Hg 5.192927649388635 3.8508379974611677 7.14017022596124
Hg 2.5849087179286965 1.5336128912587834 8.204345450405787
Hg 2.072168485643416 5.251091102468685 8.18292178420403
Hg 6.334553983352942 9.816794037048581 19.208582892855095
