25
Energy = -2.76713859 Dir = /p/work1/plile1/GA_structures/Hg/25/all_candidates/1890/
Hg 0.7145113321454399 6.545047860789955 10.445608104348134
Hg 8.39152510498768 6.763742550059574 0.4764090026605975
Hg 8.198460314967681 3.1103161476537924 0.9721122253263772
Hg 5.461910485473061 4.964814832104289 1.2447391129731753
Hg 3.33740906919592 7.593584278587838 1.5140684530905135
Hg 2.6010455014504723 4.6732260351479695 3.201792219533209
Hg 7.870091760604473 5.207731922898753 3.644047434005554
Hg 9.454125299331587 1.7839898887087624 4.169520354859803
Hg 6.185404832495237 1.5226116840964175 3.1212142201098443
Hg 3.1375219128805125 1.3459850553744022 4.679897349728021
Hg 1.0287440141346809 7.0801494682868995 5.216090911017505
Hg 4.697798896718889 7.0928516583113295 4.580090362460202
Hg 5.149766903120785 3.8818013531134 5.7519169368727034
Hg 7.327093868243922 9.949008713237134 5.7178847062784
Hg 8.686961814000872 3.8774015182128174 6.784017005175222
Hg 1.2334628075972462 3.646849845542271 6.288367578356512
Hg 7.088224289849715 6.8290264499309306 7.041768879464313
Hg 3.1026875744195084 6.019268089780592 7.8711107923124874
Hg 6.795322417359381 0.9841779682552635 6.774948983405925
Hg 4.44105604982852 9.148033898504622 7.342880969709869
Hg 3.639117679690349 2.04696312972196 8.35583805210907
Hg 6.038777427474788 4.385629530782956 9.172288113423107
Hg 9.160437115834641 5.7614669899566335 9.646353808783429
Hg 1.7845503447809068 8.903803632659217 9.461124370074268
Hg 4.947479316138387 7.356003631008133 10.445608104348132
