20
Energy = -2.23304079 Dir = /p/work1/plile1/GA_structures/Hg/20/all_candidates/3861/
Hg 4.54154246569424 6.345020204335916 1.3430120450152279
Hg 7.193808508917361 8.491710633775869 1.3299447734015355
Hg 1.3224693458763825 5.586572531229214 0.8142882912606928
Hg 7.66438218918056 5.078515894061383 1.6530423276603636
Hg 10.637985885883019 3.6990436584809374 2.4198991260150517
Hg 3.1916238594893294 3.2299830687720976 2.4824326801185044
Hg 6.156129637334075 7.181414312159833 4.251186656170944
Hg 2.4214972218410833 6.349986138653504 4.012831018359432
Hg 7.725161635934827 2.958262102029107 4.5175001191599655
Hg 9.458482693860564 6.128518793183891 4.537131258426876
Hg 2.1222395218188645 2.1337221262401713 5.608194229159453
Hg 4.792214136701254 4.307270594187557 5.584964330422535
Hg 4.000105927794513 7.700932481704216 6.845235676726726
Hg 1.584544266714999 5.30065077544371 7.167074670276053
Hg 7.449716655041521 8.451723959567834 7.160425007777834
Hg 10.637985885883019 2.656793393421174 7.729668342644189
Hg 7.954975645426146 5.075968067316803 7.440071623382433
Hg 6.019458114533008 2.382625967490078 7.990196461944188
Hg 2.6759836099333585 2.64035605437977 9.01890788063963
Hg 4.828151631736904 5.517497932626502 9.31056217049843
