25
Energy = -2.75741372 Dir = /p/work1/plile1/GA_structures/Hg/25/all_candidates/2118/
Hg 5.306878692535854 10.63048927244171 10.159949703178727
Hg 3.7417364603577683 5.6597340840444454 2.396203180422559
Hg 5.017314860348462 8.769312935540569 2.390558112834782
Hg 10.091946377879937 4.784583024387681 2.678280971478778
Hg 4.197269217090588 2.3550224927808903 2.135014196050382
Hg 7.413420390318833 2.7201007574574874 2.925331063613922
Hg 7.072245091390698 6.3540089801527815 3.4836075850588175
Hg 1.0454967836660836 7.687250222803985 3.1933688325120624
Hg 1.331975891222489 3.718713291126289 3.7636037588424864
Hg 9.590961235515298 0.7717072419828157 4.578576441565059
Hg 5.829515959087076 0.4558269758344628 4.76828694955086
Hg 10.029223021421227 7.679532685081066 4.80383716495046
Hg 8.49910566172816 4.50216950747107 5.838248366022347
Hg 1.8422389486471449 6.076988604863931 6.323279923676827
Hg 4.529934094593424 3.972052306639043 5.3096419069494
Hg 3.413885110072302 8.99685156622898 5.366265767118632
Hg 0.0384413648628429 9.033910563576836 6.385639775475853
Hg 6.092794139335527 7.159101589257692 6.8300514683440845
Hg 2.387787854955211 2.423366230888169 7.588767883558561
Hg 9.094675857692895 1.8398175471870573 7.954749492339018
Hg 5.762832968125402 1.8625606894056457 7.762173761054716
Hg 7.493166461195574 4.53985010532041 9.068668645611398
Hg 2.668523345430285 8.274402805353027 8.78902587520649
Hg 4.178357183307954 5.046529065361167 8.792139503278692
Hg 6.094709397470508 7.45055382306452 10.159949703178727
