25
Energy = -2.80155965 Dir = /p/work1/plile1/GA_structures/Hg/25/all_candidates/570/
Hg 6.744383922458492 7.236399189018371 1.0908085514008974
Hg 3.3022436904584427 6.7342478449168235 1.3878488885845124
Hg 5.136083800700499 3.8034383341665303 1.8979549904280453
Hg 10.759209982949109 4.300346403406027 2.9853586980539473
Hg 9.95689528385549 7.712354773834762 2.674941632185638
Hg 1.3708654194134897 9.178220651813312 3.252555262391612
Hg 8.070423209318744 2.107414778792449 3.2520460789305194
Hg 2.20300949947852 2.979675808761281 3.794491234713395
Hg 4.846138650838051 0.8091211788236756 3.5283677611935143
Hg 7.526788454902287 5.40955811487079 3.8340801599399317
Hg 7.2393372980217 9.202178660961344 3.7759794796631834
Hg 2.1866894591046657 6.2365371463402886 4.584153875721071
Hg 5.92888000778559 8.804631568141946 6.742803263388713
Hg 7.029036530245496 10.331839630194157 5.925872978395704
Hg 5.100286085531895 5.570113578185509 6.182361988298516
Hg 8.38451308132734 6.3411598116139665 7.034240746002123
Hg 0.02998753839214493 7.261274514404096 6.996736298771749
Hg 2.675110423421187 9.395696549179476 6.693411338710064
Hg 4.831066383629301 2.1687832935241573 6.722396818059043
Hg 8.106954648701715 2.962021845367715 6.672434775082225
Hg 1.951973623264122 4.071984457231606 7.247440539027216
Hg 6.192053744940252 7.260760914848407 9.705693262816325
Hg 4.629581695041297 4.282695915208456 9.410741660025632
Hg 2.45494625167616 7.012085114799137 9.413467101142631
Hg 8.08846959162372 4.301610643232661 9.93874089415429
