20
Energy = -2.13228317 Dir = /p/work1/plile1/GA_structures/Hg/20/all_candidates/2461/
Hg 5.17368185723786 3.3102543759687975 9.928615984326289
Hg 3.8596436997527306 5.958952194506952 0.09727385114460911
Hg 7.037622526784738 4.625946134849841 0.8864571054955521
Hg 2.212572304800528 8.645693451450562 1.4099356972880206
Hg 4.106621131986673 2.7792804005550487 1.3704915079042892
Hg 5.4571446627484494 8.1130718281417 2.452288401595229
Hg 2.9788934529201985 6.2654909910222 3.791736850488523
Hg 8.804484960955346 3.572940153286522 4.113788447741824
Hg 5.441087103993499 4.055161610761753 4.301681261975154
Hg 2.2114045280653043 3.0138281514654377 4.032722143018278
Hg 0.9453476502907131 4.951624929413403 6.509185743045223
Hg 3.582573122186305 1.1568301704680046 6.504459312686836
Hg 6.601180071612586 5.980471618904436 6.766689465012687
Hg 3.5523318139046847 7.551702028908751 7.011765318799019
Hg 6.783959812843094 2.2644702170045985 7.018466509974953
Hg 9.485604483854011 4.351369382353669 7.80040993671281
Hg 4.052461942713537 4.325997079916387 8.294987015699764
Hg 8.93245409871409 7.619554541794563 8.666268087048651
Hg 1.134952158276159 2.2225677314555417 8.668403600523174
Hg 5.463301923399009 7.052116314810428 9.928615984326287
