20
Energy = -2.16421605 Dir = /p/work1/plile1/GA_structures/Hg/20/all_candidates/3355/
Hg 5.007608463324802 3.3976686368970745 10.164928720632261
Hg 7.182429635659232 4.716465633109467 1.2914978442260991
Hg 3.923353946790472 5.273187729533928 1.5178264850011878
Hg 4.9856428155977435 2.0638481778516735 2.028629773420063
Hg 10.335008219298734 3.610300054090244 2.3109665232019436
Hg 9.273220078162897 6.622608654267527 3.3748531896300595
Hg 1.2596506751356018 6.599089845202066 3.144325080624207
Hg 6.045502300044626 7.649346889231203 3.3755373469836027
Hg 7.662343428849487 2.583906927716286 4.200923283046734
Hg 4.260222544123667 4.223696018395807 4.746970102977489
Hg 3.3984858044732476 7.6427322374447915 5.560489506553112
Hg 7.369546520440112 5.499320960884453 5.846922074036201
Hg 0.9992489394155872 4.470206478172014 5.841247235621049
Hg 6.836490211416332 8.734915450240372 6.597459702513531
Hg 6.034568983662083 2.448544512234167 7.095699204891429
Hg 4.988296054267223 6.140286467046372 8.16372278176527
Hg 2.9404791528843126 3.402025075354804 8.485133772855976
Hg 1.5746673500761204 6.859696214454058 8.45084308128442
Hg 10.977209723817879 4.1703790467962865 9.001231486130175
Hg 6.3101610685866065 3.9004035314822842 10.16492872063226
