25
Energy = -2.82333006 Dir = /p/work1/plile1/GA_structures/Hg/25/all_candidates/898/
Hg 3.5243287486596544 2.485114526523281 0.05792964067262943
Hg 6.439274859414884 4.36861716557099 0.04396417637378638
Hg 2.979516546938507 5.85622217169932 0.6059146801426611
Hg 8.619968404344583 2.4873982168217257 1.9194471898808405
Hg 7.785608956006471 6.115061613940297 2.7011792663803655
Hg 1.1620283571710788 7.783560484141346 3.0015291726451294
Hg 3.7747540637793513 0.7779700543843077 3.023710163585559
Hg 2.194764120409598 4.593266920404077 3.8189026254130534
Hg 4.511560152733178 6.9793702122306644 3.313591154464328
Hg 6.769330967080107 9.374413119845205 3.823638591793125
Hg 5.664496730773465 3.49187170454692 3.2778888346398145
Hg 10.967600707353505 5.94566390873196 3.8250413239128718
Hg 2.2495553998111286 1.94110584338142 5.953068759910227
Hg 9.14576084952802 3.313160968313381 5.15754730071154
Hg 10.967600707353501 3.813180055000988 5.667488953814011
Hg 5.162304984361731 4.326765765216552 6.421552498210244
Hg 4.061863124133653 7.797198287930446 6.5762704251786746
Hg 7.749888740553036 6.7359083855530155 6.055290451934035
Hg 6.690718681841496 1.1362341646838061 6.196091410850226
Hg 0.5615168514849357 7.980667415108688 6.473922193481684
Hg 1.9453288153021941 4.90333524363534 7.531807873630895
Hg 8.042074901405167 4.049786320735407 8.336625312302777
Hg 5.40443570346036 5.934920155608752 9.434220368478883
Hg 4.854332961857438 2.2244086640348284 9.137204107103534
Hg 2.4320427465011796 7.570609700834588 9.631984593365473
