20
Energy = -2.13860487 Dir = /p/work1/plile1/GA_structures/Hg/20/all_candidates/1750/
Hg 5.76073396842083 4.093035187958898 0.9990150574142175
Hg 2.877583123295266 6.02956569109438 1.1986974339758747
Hg 9.44581586473874 5.986994808444013 1.7635622881305055
Hg 2.5577788627227878 2.5988311792634438 2.0028995018509708
Hg 6.320604744846782 7.315242395376848 2.046922699206152
Hg 5.180841674245495 1.7564751904690843 3.8921109673592755
Hg 3.5746358122191686 8.396022815954547 3.629011383798228
Hg 0.4413643615494245 6.827139447476263 3.4213525580894593
Hg 7.635711548165779 4.134512078715783 4.074633843553842
Hg 3.6602946966664454 4.9935916691363 4.337884269889823
Hg 7.987349467198198 0.9398586921331531 5.514078761238523
Hg 6.514318895757615 6.860813431384448 5.73556045929361
Hg 9.758569477183945 3.885200787534669 6.831619703599623
Hg 0.6945061182026303 6.057952401648019 6.83113812859407
Hg 2.162856670228892 3.0216598662746397 6.58435636212878
Hg 3.8904432982345334 8.981178242084146 6.898784166619823
Hg 5.7843405272102455 3.0459556803483725 7.019081380847756
Hg 4.026235479019907 5.787674679505843 7.869315668116765
Hg 7.347556623408458 5.499221047290917 8.823627636730594
Hg 3.6444139276794654 3.055029848899882 9.792302870556568
