20
Energy = -2.13398479 Dir = /p/work1/plile1/GA_structures/Hg/20/all_candidates/770/
Hg 6.632143843529301 7.234546202942058 4.248198467716744
Hg 4.800160557216722 8.559997891940293 1.6359232713336596
Hg 4.760016077877603 2.312422849421848 3.2482821973288942
Hg 6.144543060396516 4.312040482926029 0.7793451944885972
Hg 4.562449034414049 4.292845574330062 6.38540866073816
Hg 4.266761202445247 11.194092590203685 5.823630769237428
Hg 3.4768460706771225 11.194092590203685 11.436323365006281
Hg 4.306658763842856 1.5942942060529859 8.562815057082535
Hg 8.006657469150388 2.9545192372346802 3.2485256070403667
Hg 2.4020340458132035 0.006223428656749665 2.953886534044866
Hg 6.9230686230835445 1.6676818452116375 6.177159898410373
Hg 4.046994828706791 5.583172150527586 3.0388280576622178
Hg 9.61693312777088 5.883839082939873 3.4740134387816086
Hg 3.497805640217644 8.542693790819047 5.022920748453882
Hg 1.5932301066926644 5.6286498085420815 5.575698012534771
Hg 1.9051011906802717 2.14641722981356 5.593392137617708
Hg 6.393193331061153 8.480817187412185 7.449049505637255
Hg 7.7846438089865515 5.058403855073973 6.4191680709328525
Hg 3.2176592984406893 7.220482180748062 8.250198505950491
Hg 1.8668652103589347 4.013631547812982 8.558096232815116
