20
Energy = -2.13109905 Dir = /p/work1/plile1/GA_structures/Hg/20/all_candidates/2759/
Hg 5.847387498452261 5.271478848355936 9.82200915924534
Hg 4.822423924642806 7.14128527703198 1.3137313840636158
Hg 4.524089398827693 3.4618456192928386 1.3794251667027255
Hg 7.658152117612285 5.063630700545968 1.7837411718209097
Hg 7.440316355362202 8.232592921179126 3.3837984768430345
Hg 2.9000400987554085 5.765576201933961 3.681036592886109
Hg 2.1403067003482903 2.4085176900213563 3.9815083435565644
Hg 8.466206338673912 2.617104065797092 4.001244514985902
Hg 5.276991138249403 3.6824109499284177 4.742650246797037
Hg 9.511056752542684 5.83130564436723 5.227388096338723
Hg 3.4665928787982825 8.726854176074323 5.23077249839883
Hg 6.238371759386106 6.713437053861346 6.080939203913883
Hg 1.357430017451435 4.999558129973657 6.531643601451679
Hg 6.066039528165304 0.7770769351920789 6.519311111223576
Hg 2.622043238516995 0.5147920091719616 7.115705723867835
Hg 5.835011277927079 9.78580472661055 7.427780099441945
Hg 7.437149357971863 3.7677311940937286 7.381436496336189
Hg 3.6913560169677746 7.109511628993779 8.216864982967143
Hg 3.9937796934256102 3.5053532702213244 8.177357255568243
Hg 1.359034090008884 5.277911139440382 9.82200915924534
