30
Energy = -3.54951484 Dir = /p/work1/plile1/GA_structures/Hg/30/all_candidates/2009/
Hg 3.32630180034976 3.597684551801122 10.585158033901394
Hg 5.980825068413994 2.812650609211235 0.14797702876412783
Hg 3.6024726343945392 5.409278071408712 0.9380518907434653
Hg 2.7791006466267243 2.0581257571457114 1.12861754389158
Hg 9.461783587063136 7.857089191342214 0.9320418118242068
Hg 6.797056797138541 5.841686073651228 1.9797292037180971
Hg 0.9095389324064413 5.191762236398079 3.0668278251345176
Hg 4.927721874532455 0.3696407291081658 3.107137268150106
Hg 3.2841468023459446 7.753334600460054 3.316677007820124
Hg 7.342898303530642 2.8049768341390138 3.324678114135299
Hg 1.4956881348055333 0.42598535412626226 3.894753595823149
Hg 7.612415423296251 8.702637093676394 3.608714282497554
Hg 9.664964979627 6.012212933187322 3.8736338934843655
Hg 3.5820937719155057 3.3423627515212133 4.203580315290821
Hg 11.078013528420483 2.2554437324635157 4.368172778159171
Hg 6.211707400805595 5.207354645542614 5.434945078024663
Hg 5.219365497766397 8.65102923735298 5.7938767804259514
Hg 9.406638238871784 3.902116680468453 6.531481241146657
Hg 0.6958946564950576 3.8483685122377556 6.295979867637397
Hg 7.008242526644002 1.475338355465141 6.532356095408128
Hg 4.094454540811064 12.16307620677039 6.517633397492736
Hg 3.0852341008816473 6.125818428215898 6.598191865308132
Hg 2.001257523796504 9.440481991875453 6.7845541842463115
Hg 8.157962845086534 7.305442103851544 7.230518954097927
Hg 3.8210094468610887 2.8707088162785674 7.593447230298261
Hg 7.073015710503286 10.277391632951783 8.41363098264884
Hg 6.805248777966042 4.368040483237271 8.682359523699862
Hg 4.3611393409856305 8.3454380708932 9.00272016567492
Hg 3.879843060056441 5.202388842631019 10.260353675654434
Hg 7.06692171660574 7.115093141591301 10.585158033901394
