30
Energy = -3.55911558 Dir = /p/work1/plile1/GA_structures/Hg/30/all_candidates/1809/
Hg 6.760352496798197 5.482535455878759 0.6406120114238915
Hg 0.14235906006996477 4.39647930050873 0.6394749058631197
Hg 3.5895857568851617 4.359951760991807 1.4587416076354527
Hg 2.2668499884366096 7.391882608596464 1.4839689492618484
Hg 4.429167197657159 1.2071733446140114 2.3210827654545376
Hg 7.613571083895196 2.5237571174310673 2.3411324810550727
Hg 9.238175215762958 5.463553197003081 2.8315383794842433
Hg 1.2056419943205696 2.047910612462422 3.099110726129522
Hg 5.230821703603132 6.7717373701653445 3.379424152722912
Hg 8.435518412625258 8.713235586050125 3.315143983979145
Hg 14.882936869933935 3.3069825290801464 3.619223807959005
Hg 0.25327518455359976 5.736568750951315 3.6873803926415674
Hg 11.573384785682068 7.115634104182109 4.428076270219862
Hg 3.8197373246059856 3.8289478357691076 4.75632030437954
Hg 14.882936869933932 6.551692559154222 4.690237497476667
Hg 2.5577566132096585 7.619389352877904 5.2434647298852335
Hg 5.477720284959526 9.730544237961965 4.973962124021779
Hg 7.0878108368057555 4.399592442736068 5.226712871930972
Hg 10.26764608525593 3.354463230237408 5.756628204506217
Hg 6.508511786378849 1.1880643150487586 5.998059920369641
Hg 8.726033699903189 7.355459674323928 6.29730951529772
Hg 0.656141803624722 3.3918339725559106 6.273192055596348
Hg 16.493696929115554 6.804747211196815 6.854337560615652
Hg 3.0459348544567106 0.9265966108999204 6.8045236766024075
Hg 5.3963304459969805 6.813916654043133 7.108916896443637
Hg 4.942097094877027 3.3582034634976092 8.162955604996798
Hg 8.13782887286454 4.92906793075429 8.459712425060003
Hg 2.3040286056612906 5.530825423236141 8.656923983480842
Hg 1.1929894213700207 2.49276460304874 9.519727651738195
Hg 5.217772640711168 5.7559877212951855 10.521603520322191
