30
Energy = -3.48602937 Dir = /p/work1/plile1/GA_structures/Hg/30/all_candidates/2257/
Hg 2.2316425490405165 4.925099749816179 10.261237489762514
Hg 4.0864052609397765 7.324728067531713 0.9342959960448716
Hg 7.566763423183577 3.3299987843715195 1.2095632339241187
Hg 7.0589326321687125 8.73907636025663 1.4465349488051702
Hg 9.245260083568981 6.263062472408471 1.9603369608180892
Hg 4.345582144185849 4.095065414503721 1.710124110844971
Hg 1.2572417138457705 5.727393394819068 2.5260533655331234
Hg 4.689272044320362 0.6584434938634874 2.51546523677234
Hg 4.116865496871083 10.48291584325698 2.274368642973101
Hg 6.45510789952727 6.46655418314198 3.9110093874375527
Hg 8.369942306415092 0.4332898461290549 3.0578756926672663
Hg 2.0510207925573436 2.539001404240429 3.811078391258978
Hg 9.18378227970336 3.8403765027122927 4.428096694866458
Hg 3.331992608676905 7.829929239939508 4.401381982276718
Hg 5.865222439401164 3.1121109110288665 4.435509449882386
Hg 4.687343367310758 10.769421111897948 5.735312581570123
Hg 7.037778754345128 0.3997961342741015 6.274158681198125
Hg 0.6065748982127923 2.7842364858978184 6.819961430414483
Hg 3.928019356277339 2.5046300943062034 7.039315728888253
Hg 8.112206386405074 8.382931420916682 6.235241739668971
Hg 2.5451355923574814 5.5559064114719465 6.776654810851102
Hg 7.067935134639223 5.027061796902754 7.0631802762364515
Hg 9.654513327603778 2.5228300076632886 7.59819439423266
Hg 1.9821808198794753 8.944614013109824 7.3150949043819775
Hg 5.161831034593611 7.835886950370851 7.848067076301538
Hg 6.548997859197619 2.2313525866651123 9.162302870348507
Hg 2.2580191891096053 3.6499174998080415 9.753508558304985
Hg 8.296853221719687 7.065357047192968 9.633358675884546
Hg 2.524845280387235 7.062109979988345 10.247788351882978
Hg 5.413044549359944 5.177215237319206 10.261237489762514
