30
Energy = -3.61969262 Dir = /p/work1/plile1/GA_structures/Hg/30/all_candidates/1664/
Hg 7.894100977827806 3.3373999548127906 10.770482239066592
Hg 5.749660259034364 5.489831270732759 12.37223332125386
Hg 2.4120265575075606 4.407371461864347 0.7036006988636091
Hg 6.0267958445860526 2.2794413491452667 0.9821678821316387
Hg 3.3606388577382957 7.654036993269578 0.987831814076509
Hg 8.695809030303177 4.665790346826938 1.2877085281937914
Hg 1.5058174899019379 5.23556342617869 3.961396714771744
Hg 4.957045169118567 5.502547148036999 3.1980704072697765
Hg 3.4090288986178248 2.2739353827412234 3.352933559361504
Hg 5.765362837779231 12.18704506132911 3.3649651590342087
Hg 7.088266690369234 2.807335976086553 4.191899242118607
Hg 7.6911993162600805 7.62112019168568 2.5885956728944
Hg 4.9351251320355765 9.225288014996488 3.6273895564413525
Hg 1.5423494785472094 8.917738133138384 3.880004625475877
Hg 9.980574110419772 5.227583532577695 4.427736697034296
Hg 6.9000792976909295 5.7743842719647445 6.002547146750752
Hg 7.627896201763559 9.170046455249393 5.752555854850004
Hg 6.336371857559021 1.4990038938336672 7.35126121946983
Hg 0.454930589010084 2.3322100454748127 5.715727601750145
Hg 3.45014372612032 7.341244022411429 6.2194485663041705
Hg 3.933338744902845 3.9245583703180853 6.321187642968368
Hg 9.208306314585718 3.3838754892960994 7.348149143241803
Hg 3.0945038968653398 0.700371992044522 7.092971989148018
Hg 0.43401076213958295 5.9844632542164735 7.152494894024942
Hg 9.471259523435137 7.0574018869856765 7.861364647586508
Hg 6.036668132533626 7.867144162972912 8.666030973977385
Hg 6.2939904942432054 4.413016990204499 9.24162515653808
Hg 1.3067386419653952 3.098391470798005 8.971096082427627
Hg 3.1431461085117394 5.995453817227796 9.466698088121607
Hg 12.42191615265791 5.753506727610796 10.77048223906659
