30
Energy = -3.55230992 Dir = /p/work1/plile1/GA_structures/Hg/30/all_candidates/2238/
Hg 4.892729777643793 3.855335830050427 10.568028772188782
Hg 2.0310898083566857 5.68270082220713 0.7176279219486349
Hg 6.692862551345753 6.722113203626396 1.0003024218769405
Hg 4.3358998344826025 8.513916247695821 3.072981927647239
Hg 7.733703053850665 3.593247045960081 2.0184499398608846
Hg 4.934007235071763 1.2485137152579266 2.310620161913734
Hg 4.594308876857734 4.907304455212265 3.180149028079702
Hg 7.477812368465383 9.823496775555444 2.572077302099367
Hg 0.9283026089068653 4.371473536514281 3.6108389356455417
Hg 0.8167412120645583 7.823015523010789 3.2685236413363232
Hg 7.133076891856807 6.977844899969376 4.591439759652801
Hg 8.250288873600931 0.7337570359301457 3.8730854941750676
Hg 9.562926336846537 3.8484265256314645 4.879436824484855
Hg 2.308995069544532 10.100347862461375 5.412276546155967
Hg 3.135928782298915 2.2616016468036895 4.918726374595776
Hg 10.54026882064723 6.972499627387028 5.675265159581511
Hg 2.816679580787379 6.599843199916257 5.782779794814576
Hg 10.540268820647233 1.2265345974542392 5.121746710159628
Hg 6.376461097463321 3.2968756057501962 5.594273052700232
Hg 5.907395522106867 10.113626573295642 5.865640694819096
Hg 5.41325110601414 10.569325299407822 5.928120633202939
Hg 0.9626261943608673 3.8523830725884176 7.007307275481003
Hg 8.037496014219528 8.268090008865254 7.765151414775537
Hg 5.665067196027692 5.949413587582611 7.567387228054469
Hg 3.859880686053278 8.83008914893564 8.282598988634259
Hg 9.068443935890826 4.879068998025368 8.161204634621692
Hg 4.10319947681712 2.5848039355070123 8.268529927236878
Hg 7.53339421247697 1.498932511010944 8.270831901440998
Hg 2.7914796772691153 5.684622358488648 9.271626078582807
Hg 6.468590389569921 4.123972361442898 10.356147465778239
