30
Energy = -3.56833418 Dir = /p/work1/plile1/GA_structures/Hg/30/all_candidates/3468/
Hg 3.9157254711161715 4.22688227378959 0.2750288793781369
Hg 1.8297327494206173 7.074391764699427 0.769200511967869
Hg 6.710013948334811 6.291179809634086 1.2533874933384885
Hg 6.631048484109222 2.8860198934960373 1.8327583440457889
Hg 4.9506818107932995 9.217552082787563 1.7998394681317231
Hg 3.6335926998481423 2.1318763485967773 3.1889600787033263
Hg 1.0409985121997016 4.469734268996165 3.418342149841679
Hg 9.73859122793628 6.280061423487666 2.854233379429886
Hg 3.8670690169747246 6.337509548900719 3.4170806980446797
Hg 9.441797564533198 2.6187552743729037 4.202746758067857
Hg 7.369356576973069 8.387920688575388 4.177030706316892
Hg 1.8871178898592584 9.213594813632293 3.43605611481462
Hg 6.893798153667608 4.995491689871188 4.472155214367765
Hg 6.591644551382311 0.22357920818506583 3.9188735074628207
Hg 4.693132065912787 10.266283655488593 5.236493791145129
Hg 1.8301787259338829 8.438301563660964 6.724440377679399
Hg 4.1760020744903095 4.142834326043587 6.051384846276376
Hg 4.229815271594593 0.6956711443237645 6.3122476212170815
Hg 10.576746044655371 6.038537732819898 6.072480849348393
Hg 7.618527964243323 0.7830943653283706 7.104584215398247
Hg 10.576746044655371 5.527047252219308 6.516822926997684
Hg 1.300578658677979 2.393691486187042 6.561451678377256
Hg 7.606452201523657 9.900635697429847 7.10932442117852
Hg 8.105206994139197 4.0412170812745005 7.373218566521613
Hg 5.2348028966202325 7.294997962120294 6.799058719211796
Hg 8.498524906389713 7.084658847082427 8.692796894325282
Hg 3.919265777050592 2.6093925991647664 9.125147365625308
Hg 2.4179989142922373 5.76193213584901 8.70147865213454
Hg 7.144074531436643 2.5483529699498457 10.278102214209555
Hg 5.63606148976098 5.532838822693216 9.739310287103155
