30
Energy = -3.56557834 Dir = /p/work1/plile1/GA_structures/Hg/30/all_candidates/4104/
Hg 6.2265371922089825 7.023905019555611 0.02898118595049975
Hg 4.607422909767145 4.023986230576068 0.25345487192780675
Hg 8.071651177691205 4.331876620151381 1.345701323478542
Hg 3.7896932194185746 8.620072206611566 1.9392544508699219
Hg 1.8862666243935755 5.703935640602373 1.65386086482725
Hg 2.6370564269255814 2.4419349582419048 2.4962271747880194
Hg 5.919169256377428 1.931033606653446 3.0030600236410807
Hg 5.416337286979445 5.680310184128213 3.0638487239504855
Hg 8.268880949153015 8.847153926643808 2.9977470734553573
Hg 0.8820872761373149 8.332355977947453 3.7850365188941897
Hg 9.665681793543461 5.894776821793571 4.330926837117651
Hg 9.05943652365992 2.4582171969063675 4.020589548133254
Hg 5.384899788636944 10.209003918235613 4.581502862650756
Hg 12.125204360776475 3.51900722502217 4.869157621953261
Hg 12.125204360776475 5.147506466086796 4.565349903094458
Hg 0.30395553998208347 1.9106907132836977 5.0954718103043115
Hg 3.241826190838129 0.5577907128791132 5.941023771505945
Hg 4.020879014991186 3.8160580744539363 5.615281011144241
Hg 6.753890488125355 5.728719765851671 6.158424886606643
Hg 6.481838020979064 1.400986736486931 6.430133050508876
Hg 3.7736462694788737 7.294507301411976 5.615407675330896
Hg 7.817093925777491 9.106121468602451 6.693894291016422
Hg 1.092619138791487 6.2127389076853206 7.475086692726982
Hg 9.444832973031128 3.2555580080558766 7.253482495230231
Hg 1.444989214274404 2.7187711595319968 8.24276713926897
Hg 9.412706908213721 6.494555754808259 8.306388986134687
Hg 6.489278341062613 3.7498780081306915 8.893212316705371
Hg 6.1629689737296705 7.320431935925675 9.169681226167162
Hg 3.507716422950509 5.122319402764463 9.418917065504626
Hg 0.059555224099377434 4.871123670985136 10.481456217125022
