30
Energy = -3.53026056 Dir = /p/work1/plile1/GA_structures/Hg/30/all_candidates/4820/
Hg 4.732458612810662 3.4152677058168965 0.47327250922743114
Hg 8.241195319107675 2.1053152669289377 0.7054586830045919
Hg 14.11843118565573 4.22615213677067 0.7539579458725147
Hg 7.460436385488578 5.560423848900437 0.9847339035728269
Hg 2.857086079509907 6.0839207308273755 1.4987457002766231
Hg 5.485780767758782 8.490138802713163 2.040670040696972
Hg 2.340950047885805 9.823804016878908 3.1427338182187405
Hg 14.116868025865664 7.1676554988622865 3.0887271860579673
Hg 3.3582792058988864 1.53212967200425 3.1352211187035914
Hg 8.811832116126931 8.211340441993714 3.102042381400811
Hg 9.796474651587975 3.95510627394666 3.405242282034655
Hg 6.3560007016745175 2.8772265952835965 3.385861642261052
Hg 1.281133280899487 4.197176742697762 3.929563391452671
Hg 6.586853847104593 6.121644299948679 4.206591780440946
Hg 3.400369316776043 6.8740416403983415 4.750524753881997
Hg 7.429695229897368 9.823804016878906 5.012789971076144
Hg 8.22420071308443 2.0451067098159856 6.068968824549081
Hg 0.7530589154066025 8.70679029177596 6.099950438214708
Hg 2.304163630514395 2.070545720850484 6.380805176865545
Hg 0.16609294238388772 5.277086476773286 6.9364324805851645
Hg 8.485322022523428 5.62926965808261 6.890423547405338
Hg 4.4197387352355095 9.598425835487113 6.331603685704081
Hg 4.969245984579516 4.188166494640147 6.337311671930076
Hg 5.299820452999439 1.0409510166963691 7.711016500656571
Hg 7.453669845913717 8.963474415593488 7.697168526610599
Hg 2.901058191044731 6.9032440119394565 8.222455834337426
Hg 7.959914476233069 3.1404388467355133 9.297368995278138
Hg 6.097448746330634 6.100004902869753 9.267062401205974
Hg 9.566595664174493 6.633601758839797 9.872951961532445
Hg 3.6708907143631837 3.6703369101451426 9.490458520298954
