30
Energy = -3.53803254 Dir = /p/work1/plile1/GA_structures/Hg/30/all_candidates/3715/
Hg 5.372269557645298 2.967978957387187 11.293973667007723
Hg 8.877474170212855 4.574968848452515 12.059207391536859
Hg 2.7158603175158973 6.469976444688644 0.040729710039346494
Hg 5.921400843152371 5.416112765634686 0.6274090482406156
Hg 3.472969242827122 3.266561120472325 1.3250303628214881
Hg 6.675121964628937 1.8827408040401468 1.3591351728146308
Hg 8.358536419934689 7.547686318200177 1.300243191563475
Hg 0.2852335824048818 2.3829342685115944 2.1487434814170694
Hg 8.829775052018295 4.371831133743362 2.5444124438312
Hg 1.396195353425534 5.403242064248222 3.03875724216537
Hg 4.588803255185966 7.221885049682418 3.274264504923132
Hg 3.5010689936167774 0.5470139284748178 3.2546284345692733
Hg 5.666101645578147 3.522805450250482 4.308346066289213
Hg 8.600963177126294 1.3736266648186477 4.094069142488806
Hg 8.359883685319081 7.276702560231499 4.589535794237143
Hg 5.877360711479452 9.398478218566355 5.659924914767234
Hg 0.31139517615475454 7.264389942093499 5.672394221519579
Hg 2.9763508720802943 5.1076837681290606 5.928137091449172
Hg 3.524625258335661 1.6666130345594863 6.459056817898746
Hg 6.156153160597676 6.063895602478819 6.675893877971188
Hg 12.69224252137622 3.803542062430916 6.456520297713225
Hg 9.308007019138273 4.299905454868642 6.175326048644129
Hg 7.000996344799547 1.648980173608871 7.2429945284150445
Hg 2.973182182475182 8.631998918542745 7.557569433878668
Hg 4.7950012299817235 3.7776725909594786 8.88364822397012
Hg 1.6135086804422079 2.6682672993764047 9.37992951866009
Hg 5.420760237075175 7.26661543070678 9.67190869375278
Hg 7.871623018655276 4.855040354559289 9.406422282198077
Hg 2.1160934802079274 5.95267718760083 9.370121093538408
Hg 2.9239762294607745 8.641733983058291 11.293973667007725
