5
Energy = -0.27384695 eV
Hg 9.909218391828448 9.924555868097876 6.715583481183889
Hg 11.503284011163979 7.264403680782512 8.346307013011273
Hg 8.589604812689283 8.58903557758406 9.66188305806444
Hg 6.535159087773393 6.2282863087278395 8.086303014798736
Hg 3.9641607713202545 8.609135052297129 7.556605871970998
