5
Energy = -0.24041123 eV
Hg 11.154810791503001 6.526669504202739 9.282973428883652
Hg 10.368698148378215 6.832992573153664 5.847599274993006
Hg 9.196267971892818 9.184005839191554 8.13974154366165
Hg 4.433728007020228 10.701623231544078 9.391162104899085
Hg 6.136558400440831 7.661551403010141 8.583413206842721
