5
Energy = -0.31136192 eV
Hg 7.312703633446109 5.816012410445762 6.306379590074693
Hg 3.922120740678935 5.563067453248188 5.4732606839654885
Hg 5.254644830135752 3.3967668718147563 7.663834193860671
Hg 4.98713451133213 3.4373261375690243 2.8978037741501574
Hg 3.103894162669699 6.367353456098438 2.2385554875760407
