5
Energy = -0.38882080
Hg 10.072283500000024 9.256684499999894 8.683142499999931
Hg 6.654330500000068 7.463780499999848 8.036773500000017
Hg 8.722852499999918 9.050240499999934 7.587756499999967
Hg 8.873166499999979 7.449200499999969 8.683142499999931
Hg 8.138404499999876 7.9357454999999915 9.470222500000014
