5
Energy = -0.22538892 eV
Hg 12.275446159363657 7.37861404927833 7.656640512156546
Hg 10.520531268911041 10.240770951384873 8.962378117035582
Hg 7.082760461575352 9.879834768245976 8.664323562827692
Hg 5.875830975356185 7.401553863499702 6.499694539175758
Hg 5.990120847700358 6.833544044890022 9.950574596056187
