55
Energy = -7.68660293 eV
Hg 6.075937330982771 6.070976889852411 6.067647648768642
Hg 6.041712639307618 6.076760579083013 9.516576990766017
Hg 6.08575773127926 6.077800003900765 12.821079182188157
Hg 8.713882046313175 4.216696510438268 11.174892228290028
Hg 8.519038051705703 4.227348805160489 7.711318174778758
Hg 8.485140096154884 7.914332604986122 7.689291178738656
Hg 5.063228529299676 9.004126433100629 7.5209765716086725
Hg 2.944832890935681 6.075072457652066 7.449609307054314
Hg 5.0734029586513545 3.151330265709448 7.592616899542625
Hg 7.089977884701481 3.1463469273897364 4.640663593385835
Hg 9.209814822297558 6.074814228451811 4.704215225477731
Hg 7.0857688744551774 9.003643062104175 4.5883149422967495
Hg 3.6412849257205275 7.9275259171103425 4.449760161357326
Hg 3.669410209672241 4.241414493702251 4.466530103081029
Hg 6.1149698930482606 6.074710974854905 2.634615645506565
Hg 11.100088259899257 2.3902316522815736 9.035255803920048
Hg 10.909997966579782 9.775100837358435 9.038156651907627
Hg 4.229142245695284 11.923522769597396 9.01688726703213
Hg 13.447530904979343 6.07481835901586 9.034291036946158
Hg 4.227850827260693 0.22298497332267578 9.023610538019796
Hg 7.9230559053363425 0.23552516819342503 3.117879722946156
Hg 12.199548245774183 6.068811642839423 3.126433477848089
Hg 7.920490560969413 11.926604380815135 3.1062415693058485
Hg 1.0554375821927455 9.776008927017925 3.128485604946619
Hg 1.2501113777244457 2.366963429325762 3.1191425898722276
Hg 6.069629360493986 6.074444916796183 12.821079182188157
Hg 8.722694151866694 7.934015578488701 11.179161028279013
Hg 5.03058622423994 9.013859512021089 11.146874587771322
Hg 2.8822440738339488 6.08429047612526 11.147112985769022
Hg 5.0291338243260135 3.1419154678832153 11.162281904840766
Hg 11.15682396242097 6.075560127851736 9.249162790683586
Hg 7.663194392119329 1.2731804408170015 9.294622145516508
Hg 9.55163709201678 1.267421504799183 6.0785141924683215
Hg 11.712228063994633 4.211575087185542 6.0902942826735815
Hg 7.624136398420305 10.88338007174264 9.292808134589176
Hg 11.712637133830828 7.9505987045221636 6.081223037827127
Hg 9.543721199241316 10.890893917620167 6.066675834137238
Hg 2.0302114832169877 9.00200513133225 9.280571000856513
Hg 6.083055002721218 11.991374219823117 6.068560208319295
Hg 2.600378923252437 10.886050033670223 6.07026125495846
Hg 2.0267634988890446 3.1523433371309384 9.28175289293574
Hg 0.44367442653556544 7.940558922351966 6.067626491166049
Hg 0.4457669710428428 4.207472921560925 6.061046364946195
Hg 2.610260811999379 1.2654054687650158 6.083357472661213
Hg 6.074221092477208 0.16940480894756463 6.075448618382445
Hg 10.119229444624567 3.1513469776950567 2.8740648784101914
Hg 4.520723381948749 1.2717851279748154 2.8616454552611197
Hg 7.125268986699529 3.145585761892319 1.009976367224523
Hg 10.118097788786464 9.003293153265645 2.8734282506590065
Hg 9.271172486284389 6.076302673494428 1.0072111472294851
Hg 4.494751187272825 10.878268447204949 2.8613433421328236
Hg 7.122691665392417 9.011148502827755 1.002785407250133
Hg 0.9945073556839787 6.077131868237076 2.90408804338575
Hg 3.4287530980388756 7.935013170092798 0.9773741333827728
Hg 3.4338965768237286 4.219906187235229 0.9746592679404534
