6
Energy = -0.36929651 eV
Hg 2.0688137221186516 6.051211946337138 4.9932668951403505
Hg 3.3960297878224757 0.9408531027139589 4.450565198513522
Hg 6.314892733658037 6.330378497964697 7.359240634389626
Hg 4.684708822571936 3.895526164453247 5.636759639265161
Hg 7.452654161392816 5.258577623418055 4.176647591558513
Hg 4.4670955440706805 6.280750851707585 2.3575873500012956
