6
Energy = -0.39104482 eV
Hg 11.033509505150342 9.319683044761282 6.747436928416292
Hg 8.284132986634981 10.896153758402766 7.846471100040658
Hg 10.497593160291245 6.0401858416550676 7.789141131227601
Hg 7.223665163403893 9.355251514801024 10.742169999101066
Hg 7.53870042232503 6.234172589422668 9.337239591162925
Hg 5.669329129029093 8.645023146612129 7.787991175041016
