6
Energy = -0.3758505 eV
Hg 5.310075953264238 6.63932638177291 6.692172919440532
Hg 7.569691993569672 4.1528208429827185 4.3712287068812214
Hg 0.8531359458716937 2.654810958177752 3.655947823183941
Hg 2.8097116219913487 5.272810312841874 2.3305651425766696
Hg 4.787109415722844 2.4034059606582767 2.26380769928677
Hg 3.5843762480024295 3.7966535136777817 5.606147001766758
