6
Energy = -0.40227145 eV
Hg 8.950070037619092 9.53115009141526 7.1284052742274495
Hg 8.96407300051283 6.101396131759028 6.570759903298614
Hg 7.3702493408199095 3.1347256788023325 5.789963783027591
Hg 6.119022423117048 8.176697627680086 5.5242051728717705
Hg 5.7618144744729145 5.54609033505965 7.679471551570317
Hg 4.20795128554944 8.700389725070211 8.435438449198768
