6
Energy = -0.34950622 eV
Hg 11.715953031977119 10.196606966182925 8.304322601670048
Hg 8.936089700445809 11.514927004374082 9.963489435250372
Hg 6.157001512809956 10.1951267062723 8.304795794104137
Hg 5.643638485318532 6.92305553921799 9.166797079525388
Hg 8.934706952461745 7.868003923534666 8.712752520804475
Hg 12.231831386809173 6.9219951174450305 9.167063638468036
