6
Energy = -0.3840578 eV
Hg 8.835530294947715 6.976389677649599 4.6040091737490885
Hg 5.95600615589648 7.142496831508256 6.692725451135176
Hg 8.919439586718834 9.33116103896498 7.691111090539345
Hg 9.603817168389192 5.814113436844411 7.936429110830122
Hg 6.945395117575532 6.711813889468501 10.101228325986277
Hg 5.881349265450081 10.165562714541958 9.116034436737952
