6
Energy = -0.4162462 eV
Hg 3.1239839985165423 5.701912105344202 4.9101991780458185
Hg 5.722933781055837 3.1012601635863106 5.678336372121028
Hg 6.426947512882619 5.672758618798713 3.3636032455308698
Hg 4.936993425192248 5.681606624275261 8.022588812312845
Hg 5.659016762807969 8.26219044132781 5.670079613485023
Hg 8.22369868632052 5.673846416821948 6.448766741900818
