7
Energy = -0.33241811 eV
Hg 6.058102102790509 9.659223914224903 7.062914105785705
Hg 7.58083779668286 9.187551883723073 11.833273793718945
Hg 12.229217318197572 8.592139685541822 8.657444542230813
Hg 13.616724388575232 11.776825349751917 8.908849125549432
Hg 10.690694019826728 7.585408801237554 11.761908735156211
Hg 5.754086807637824 7.2924434997879874 9.663984380253305
Hg 6.531348153605054 8.097600000546565 3.895317191431806
