7
Energy = -0.34312622 eV
Hg 8.009593921680372 11.303904149132839 12.579081404756023
Hg 9.369950209915514 8.77818244168179 6.325611692627012
Hg 9.269714002372865 5.3497006075510765 5.720275508174177
Hg 12.821006875853655 9.790978475804321 5.985104682732385
Hg 9.264252389225879 8.016054731452302 12.133649328494284
Hg 6.019672559971764 11.28929032251809 9.554586937359582
Hg 8.319691516631819 6.764593236679651 8.919592572417399
