7
Energy = -0.44595415 eV
Hg 9.879710983150119 4.754807156510131 8.611850561616942
Hg 10.290197160568516 6.973943274556366 11.58538225890323
Hg 10.735611024637421 8.18741519333506 8.51458838351823
Hg 7.466714026075214 8.991928908838197 8.972365417925722
Hg 8.07621773254813 9.377678655456743 5.702623038333817
Hg 5.104618521197731 8.004776459218213 6.761048221351503
Hg 5.884458152074588 11.518230285443469 7.255637966786108
