7
Energy = -0.43054973 eV
Hg 5.022455005553808 7.863235921979818 5.510669779597338
Hg 6.840969197019325 10.525662091328321 7.06586366981684
Hg 8.343825815146747 7.336220051336322 6.495768000870276
Hg 7.02222461931838 5.513747202184121 3.9031272832938386
Hg 9.29628029535414 9.176883446039813 9.307333812199253
Hg 5.839798047907382 5.8476917970102695 8.164469637049685
Hg 8.396308830186284 4.106016458663324 9.805798103653744
