7
Energy = -0.45056202 eV
Hg 11.469438941418186 9.33152724760458 12.007606249316039
Hg 8.68869676072328 7.162259354673382 10.66744457015931
Hg 12.037234894336303 6.585759254382923 9.96167569534382
Hg 7.141350454011728 7.08562170248756 7.446130490319847
Hg 6.105081396246389 10.206994627880801 8.16014073902154
Hg 8.408804027790634 9.677241293054465 5.613942214216809
Hg 5.121841157230464 8.852635650480787 5.138178788268048
