7
Energy = -0.49590769 eV
Hg 5.417132979793486 5.957027626786397 3.584226520681448
Hg 3.539422408337584 3.573005023764547 2.0061127321767835
Hg 0.7811948678741293 4.363769886037856 4.0900450692550026
Hg 2.036605155574129 5.392759119143318 7.231966072576889
Hg 7.030771983629068 3.3074134074544177 2.2952577368755627
Hg 7.2546870877758876 5.417894411513255 6.718811272853813
Hg 4.9983391753965885 3.061462925569968 5.133325897166054
