7
Energy = -0.57259759
Hg 8.979146499999953 8.979180500000016 10.665997499999982
Hg 8.979387499999946 8.979180500000016 7.292613500000019
Hg 9.945884500000094 11.958489500000036 8.97924850000001
Hg 6.448353499999933 10.822441499999968 8.979248500000011
Hg 6.4483734999999776 7.136140500000013 8.979248500000011
Hg 9.945913500000113 6.0001304999999405 8.97924850000001
Hg 12.10820650000006 8.979197500000112 8.979405500000027
