7
Energy = -0.33712082 eV
Hg 7.816249116437255 12.076680860252367 7.500028901038492
Hg 11.177611104188172 11.772159162735987 8.761970944818367
Hg 7.160708976330334 9.01011188411248 5.751793838403972
Hg 7.982354258593108 8.359830680749976 11.639633096709032
Hg 10.901732865875228 10.29601605644149 11.94891590966261
Hg 9.806605145592723 6.8594794748485315 6.774074014851547
Hg 8.913482838345598 5.4857312167946075 9.864268019325007
