7
Energy = -0.29449733 eV
Hg 10.563345027869584 8.440683715174522 11.62920706139082
Hg 7.758313699699318 5.177111970708021 7.607716235755104
Hg 6.913575296909562 8.38015170689584 5.914287474043371
Hg 12.96758233283609 11.068740972756771 7.310745729557354
Hg 7.0670750698218185 8.589008174898767 11.56846236551526
Hg 11.494834655888294 11.621763957447664 10.548227497338127
Hg 6.305976320327197 10.595385515873746 8.683622633202859
