7
Energy = -0.3090567 eV
Hg 5.520169609913737 5.458204419348106 7.313004274982091
Hg 5.547041231886574 8.943271431692368 7.088999593507919
Hg 12.00803022009752 9.827476843095413 10.422526056928305
Hg 10.18859839706075 11.949350244013942 8.344198733990298
Hg 7.669135384239658 4.426030263560504 9.919427684385676
Hg 8.687027867808647 9.884170092524897 5.951178834349549
Hg 12.02154398241297 11.598907404533103 13.431578948603775
