8
Energy = -0.4600106 eV
Hg 6.694225117267058 11.956346473179718 7.490739705407615
Hg 6.43206814651805 8.81115075590371 9.080736466391567
Hg 8.540850005933338 4.355193728188619 8.770203365521882
Hg 6.934650125556971 5.430589565700378 11.709262647300609
Hg 8.438493241848537 7.249207480662146 6.69915410434769
Hg 10.081792841914025 12.49721175896904 8.019813203669832
Hg 10.613428695376177 9.87968286520835 5.833839077041836
Hg 10.881505270612859 10.925558896162048 11.141559461233658
