8
Energy = -0.39431403 eV
Hg 6.498113298669376 12.025481550293378 10.72450618265733
Hg 4.613735214813605 6.791730415396502 9.385553224990764
Hg 4.523739215956097 10.138903185315419 8.304158729548154
Hg 11.242607524982715 9.26040064271693 10.758821891511884
Hg 9.891048330975341 6.335392334298992 9.566698611194331
Hg 9.366223183689387 11.450689991155027 8.82084341229436
Hg 13.067959913730567 8.875662077492322 5.804971019760263
Hg 11.421302399471493 5.716011118667366 6.4918046617481755
