8
Energy = -0.63589749 eV
Hg 5.370985206096512 4.11599958009381 2.0531423423365203
Hg 5.419254656381571 3.4245410472128115 5.362100482662388
Hg 3.938874316140805 3.9877327916637335 8.366021625683507
Hg 7.371578378863881 3.496169157685107 8.140716033227719
Hg 5.863212394789651 7.036421503729923 3.6752127098308964
Hg 4.562787070349162 9.239847626910759 5.910073938541285
Hg 5.979119677580679 6.476119226822667 7.280085568291582
Hg 7.993170609358985 8.722152211018404 5.711630166038165
