8
Energy = -0.46447468 eV
Hg 11.946132501776688 10.428754538163064 8.279476993999932
Hg 12.118599378282019 7.0030919344806595 9.260705001548992
Hg 8.72861582176391 11.64231488267596 7.504336913181008
Hg 6.000653406495072 10.437617328250274 9.227660933064923
Hg 6.547139892127443 9.469860310867148 5.918974783490941
Hg 6.780835981113163 6.049611502423771 6.999171544820523
Hg 9.041407782977974 5.346797282943095 9.508266584679662
Hg 6.083294754012258 7.003489345647322 10.245623932925566
