8
Energy = -0.66532261 eV
Hg 2.629923 3.2232559999999997 5.35725
Hg 2.87134 3.2239099999999996 1.9117969999999997
Hg 1.8191979999999992 6.229158999999999 3.609804
Hg 5.374051 1.4596719999999994 3.61243
Hg 5.372365 4.990182999999999 3.613304
Hg -0.2729940000000002 3.2221979999999997 3.438925
Hg 1.8227089999999997 0.21692299999999945 3.6093379999999997
Hg 6.174872 3.2261629999999997 0.6386159999999997
