8
Energy = -0.6220968 eV
Hg 13.201165690153232 7.211468150615969 8.023815549827589
Hg 10.414182190374394 9.33152839925628 7.268545384875039
Hg 8.547447256751322 9.789067397211447 10.316673042498465
Hg 9.910742928725613 6.684898161830778 9.346050149319904
Hg 5.929111214911729 10.912084251375692 8.292667279499456
Hg 8.548539955061921 6.674813554680056 6.179316593407598
Hg 5.397818171583939 8.277871309759085 10.410669972940156
Hg 5.407458244219837 7.736589406497322 6.983875580777091
