8
Energy = -0.56682558 eV
Hg 10.160902673021422 8.834690035803222 9.854210794968635
Hg 7.493649644092105 9.094187557692143 12.209072794831387
Hg 8.518200302580027 11.954191546693743 10.434192714176705
Hg 11.369646929135103 6.351585739879814 7.02480393713923
Hg 5.421225016525138 10.420986007312747 9.617271283092053
Hg 8.24938338219238 5.033482199694571 6.457200602172129
Hg 9.34756128451704 7.782789384938778 4.5757459930845
Hg 7.525074347026309 8.302981705153579 7.511590977161556
