8
Energy = -0.50101706 eV
Hg 7.218935522096287 5.379740101359317 1.9406433873811741
Hg 3.3051873542368813 4.300945506556303 7.163059491439875
Hg 2.0147165316454076 5.608883476593534 1.2219183226758963
Hg 5.938813141884492 5.187624117584279 5.133305754438888
Hg 3.8000544668401797 2.760584233298408 4.063874445492362
Hg 0.06597291267304148 5.4018682511970475 7.505668615147435
Hg 6.944944795633152 1.9534282101788771 5.412765486231109
Hg 3.8200178036257437 2.5079427182491703 0.657635240625109
