8
Energy = -0.49462427 eV
Hg 10.58494543082304 6.14267155013057 8.877735538166258
Hg 7.861491782022273 7.691522100654527 4.705659816776366
Hg 10.60304458927654 8.640098783391212 6.482511519316485
Hg 10.853949477326339 8.869822462292099 11.122353203963202
Hg 5.16855688574578 8.3929000916017 6.7714739195421485
Hg 9.537185628975548 11.057912125659412 8.616624350618569
Hg 7.938364933218905 6.882350507471209 10.941350164595518
Hg 6.535398923375636 9.777222684839105 9.585153753251491
