8
Energy = -0.64395036 eV
Hg 9.53249781483159 7.1446891151991725 4.7204760334841165
Hg 9.53009585955487 6.526442039324917 8.20906147765992
Hg 6.333224715835546 6.070696838814829 5.510384083656666
Hg 8.724494592720859 9.59883559751182 7.140211248993821
Hg 5.1963335700638895 7.1962019963526584 8.46927562052126
Hg 5.507738476855072 9.556980227402908 5.778149373487555
Hg 6.865878543878743 4.171815546900587 8.48912242046984
Hg 7.66665465838802 8.490232112032594 10.408733289278372
