8
Energy = -0.56911569 eV
Hg 11.001828724474265 9.455535865399407 9.398649084308559
Hg 9.64074254584786 10.42669734440599 6.2598238561109225
Hg 10.665224806646663 7.055682726202776 7.027867952306172
Hg 8.127669931856232 9.409139424047215 11.252091567862538
Hg 6.575727391786976 8.46666668829407 6.149064378456324
Hg 7.055367128063367 6.22303363112592 11.012362615175554
Hg 6.848287524980066 10.954171716582781 8.424989572163788
Hg 7.605724861067413 5.614890295755404 7.760650981001675
