8
Energy = -0.55402478 eV
Hg 11.179775929851985 6.881890662502415 8.106749411937564
Hg 10.714742975619167 9.314871163322122 10.745611078925233
Hg 8.33268874234831 5.161264172677994 7.2998788485465775
Hg 7.5418322794874735 9.399842569350053 12.052918299084483
Hg 10.709686596124927 10.196492982213435 7.5265749217979945
Hg 5.960589090116117 7.573358188243779 6.755968968686389
Hg 5.631103107577834 9.942246562949862 9.240545935173664
Hg 7.530018654007386 10.645165071300807 6.518406987626582
