9
Energy = -0.84220749
Hg 10.340054500000031 11.1352855 7.763308500000107
Hg 9.359785499999967 9.035748499999919 9.409284500000075
Hg 6.609123500000012 8.790838500000103 9.682288499999961
Hg 10.235492500000023 8.485847500000007 7.080421500000024
Hg 8.17994950000001 9.515463500000001 7.466505500000064
Hg 10.862096500000044 6.849240500000081 9.341527499999884
Hg 8.514964499999984 7.103757499999996 9.071787499999967
Hg 8.917014499999945 7.6502315000000936 11.587481499999937
Hg 8.383428500000125 11.907979499999914 9.071787499999967
