9
Energy = -0.6934294 eV
Hg 6.481631422701653 4.47192639607379 6.674419883223257
Hg 4.167168100071723 3.3746926824808843 8.90094771505382
Hg 5.077961611886118 4.993488597515683 3.130529893571159
Hg 4.901392600701214 1.9135941040382782 4.988313299004053
Hg 3.1086862880534425 4.734957277688481 5.986404173797015
Hg 1.7092252718400556 4.3807297878925056 2.841465745408852
Hg 8.245327465953324 5.967430611951112 4.11760308838165
Hg 2.709060874977209 7.519864489799344 3.9110807840325608
Hg 4.162922692808215 3.4612515400357733 0.060024300437006364
