9
Energy = -0.57248139 eV
Hg 5.208764388602953 6.982381265221163 7.115473221996548
Hg 5.661129467653391 3.674827803795059 8.05042297192708
Hg 5.5589900874176035 6.069281218539852 10.43264481955762
Hg 8.621113486542145 7.326053775308371 6.654069074943494
Hg 8.63146680204852 5.006197349514328 9.233177567096858
Hg 8.914354228698514 10.20471934872135 8.828602272352548
Hg 12.27399764024709 10.809193865944144 8.54657374935774
Hg 10.625027245007157 13.458173218216617 9.893241021093356
Hg 10.083557346324673 12.581704211044611 6.6524132350779395
