9
Energy = -0.5097573 eV
Hg 8.720558342739807 8.733037807638002 6.510143067567718
Hg 11.593972257416556 11.375341386462472 4.92251214928991
Hg 10.283047639524654 7.884853612513159 12.037555065478799
Hg 6.025025685371969 6.810562445392938 7.382637884631087
Hg 13.482414644919256 9.167326864438627 6.836214458463591
Hg 5.249386821945401 7.118885891942973 10.994972271886558
Hg 11.091120469666487 7.111082993275791 8.471931500683338
Hg 8.906687421715548 11.099159426659304 12.092112975788035
Hg 5.283826523929591 10.582420473467776 11.617855823848002
