9
Energy = -0.5057897 eV
Hg 8.438585237145016 12.949221054783191 10.814801438004643
Hg 10.812348955790869 5.479740403315656 9.219727553334804
Hg 12.942831906624022 7.785175576148824 7.614816547967717
Hg 8.389655931866223 4.67449046224174 6.814691372581704
Hg 5.234462222163741 6.262477325091681 7.602424895871532
Hg 13.20906281154361 10.539330043892726 9.74853509180907
Hg 5.499010595715231 8.117723846808124 10.55606019337263
Hg 11.062949853407245 12.945778389179816 8.420135005814878
Hg 5.7132125123418005 11.350060182042766 9.46736903565039
