9
Energy = -0.517647 eV
Hg 4.533105759142586 8.548548116272544 4.274934097932232
Hg 6.666176897879883 6.16482935055987 8.531358314491207
Hg 9.85653107032804 13.073803936958452 8.54488477430724
Hg 7.4460433405544295 8.800933623035629 6.383006273968517
Hg 9.859176751597188 4.823811114509892 9.079468601681397
Hg 10.918987222236808 11.754882547069274 11.71951908225429
Hg 6.658540049360193 11.753685885533065 8.00152072132169
Hg 11.169817995433096 6.391551335151416 12.002666747425437
Hg 13.08628918664718 9.100877635229837 11.195722742093391
