9
Energy = -0.62067101 eV
Hg 5.897484338162123 8.541745185446809 6.050448799522793
Hg 10.471884755964485 10.189084274352263 8.551061595011838
Hg 10.50844101605463 6.788232257857602 8.26314974180446
Hg 9.963440793130012 6.91414868840347 11.807027764155718
Hg 8.79615278092445 10.148693124362046 11.532576130081509
Hg 7.1543963616305115 6.154708908376061 8.193822082438063
Hg 8.051429494618855 11.210044453254872 6.317411534953636
Hg 8.602918728896244 8.774630337966986 4.0692066257796435
Hg 6.606527529716828 7.509163356047004 11.293048491780016
