9
Energy = -0.64370421 eV
Hg 10.201954767596023 4.496272768621803 11.137896111076246
Hg 12.090865099955371 7.0653870350394214 9.974102497032751
Hg 10.36148492124051 5.1163481956865855 7.78030956350891
Hg 8.871164490917476 7.7031441314137234 11.049530905970105
Hg 7.207412601155708 7.1816595377443795 8.037598862758577
Hg 8.591701738435779 9.64891595447905 6.015433218759951
Hg 5.094310984894461 10.196683758591476 8.728732110376711
Hg 7.59549239611012 12.377646234298926 7.88439216130992
Hg 5.521302151509723 11.175675019604046 5.4743502993018565
