15
Energy = -31.42605756 Dir = /p/work1/plile1/GA_structures/In/15/all_candidates/769/
In 3.1028627098418564 5.527554689946759 2.5637011250813995
In 6.0873708484511075 4.304882453986016 1.958344042308099
In 5.082891153904213 7.640578777421501 3.3997508949027306
In 7.8439180387962 6.36407909575111 3.2472285534622367
In 2.731631808565873 2.734451283232181 3.6299745017994796
In 5.54625341838221 1.6040511650373968 3.187475855397768
In 1.9092909086904604 8.252906454187926 4.115821968694996
In 5.377737229440764 4.565919085612783 4.914038026862581
In 6.394816534216474 1.6121502482664012 5.994046399783497
In 2.2809284545651414 5.539628974148702 5.58226163544775
In 7.492776278093383 6.333284842404492 6.205956055205798
In 3.4975863501981794 2.800359132028619 6.608534211316939
In 4.481367651144561 7.538270921359903 6.330042362880073
In 7.310631808713068 3.7378752718815536 7.772708582901644
In 4.583671019294302 5.167741817032225 8.213849996252584
