11
Energy = -20.00392247 eV
In 10.149931414493265 4.409352493381379 5.6070379437431805
In 8.712695194179554 7.108920748523129 5.165011075442086
In 7.79348019289185 5.4813902423759755 7.432767118455847
In 7.413681959703955 5.203546192563295 10.538637066954076
In 7.228098681021728 9.721957983232944 4.335484562911401
In 7.777719783786025 8.049046492275288 9.271684273565008
In 8.815501639706518 9.632550557885558 7.018153053407094
In 4.994029427879466 6.314670869613123 8.938412475897936
In 5.9304628364597205 8.049825926180855 6.602459711119558
In 2.880611064735301 7.519170683634247 6.970536528299482
In 10.199035091476278 10.033460118625825 9.754572748559804
