12
Energy = -23.96631833 eV
In 8.003465311069432 4.639170356667816 2.771921564685848
In 4.991528695746442 4.095440455163224 3.3668726017862016
In 4.913412059301401 7.066780688013065 3.199304832373392
In 2.1406632501656784 6.626427954954308 4.747501602908429
In 7.00609209209799 3.607394300701391 5.678415340056922
In 7.119391050389311 6.792146475302858 5.0828568100283675
In 4.47296959676821 5.305953554005523 6.184433035159176
In 4.176950701247273 8.80955166494628 5.7760360029760935
In 8.610632287364048 5.685219667197373 7.368388590297872
In 5.919006389489059 4.6190177910115215 8.605218945193604
In 5.8983345367026585 7.638582853161511 7.848318851109468
In 7.842758742714389 6.209518951931023 10.46593653648078
