15
Energy = -31.75190807 eV
In 11.235930782099935 6.535789538799773 5.221690706581464
In 12.12764812124974 10.450113067603024 9.650458991957548
In 11.639289703676132 7.769546396931504 8.132959686029722
In 10.808486868812086 10.629258559723036 6.773060280497396
In 10.00928773412333 6.3493901539339594 10.2602224374307
In 9.715341602191618 4.994053031762796 7.363009307930689
In 9.542811107738968 12.386311653144062 9.323698976062735
In 10.783946024926044 8.963336040047894 11.89219037788214
In 8.751876215202632 8.182101099643274 6.346296182004688
In 7.641290640078368 8.128584792225636 11.5284217495871
In 7.65704654683053 11.043752018688071 7.0307373260617725
In 7.991205809699055 11.180391465476125 11.55426531701791
In 7.32895167441491 6.733953058865309 8.589848946930344
In 9.196840663392008 9.304738139719118 9.19220625383236
In 6.044525566644932 9.573220662887268 9.091102188680681
