15
Energy = -31.34691194 eV
In 11.354103803585202 6.317118435757357 9.653536989518178
In 9.328986124442785 7.692154268305687 11.390824910608542
In 9.865294513592225 9.825347048518436 9.241493166647135
In 6.729272555553771 9.110579082979056 11.124663399528613
In 10.647561394977139 7.921199744455955 6.809469040568916
In 10.134335799220118 11.161370876534754 6.414703324682437
In 8.034674627540902 7.475232167262424 8.50579368559438
In 9.478986984175547 4.722035409133501 8.008135808686001
In 7.079323612133743 10.76062324766875 8.558316105914784
In 7.871655932707564 9.37976761411461 5.8513727340110995
In 5.162097065027569 7.503676435748755 9.044458982805324
In 8.244149233356199 6.247373347867433 5.51947897020961
In 4.625715260587437 10.117533497695312 6.882763417051728
In 5.4460779174684335 7.4899319608750226 5.7165798799172824
In 6.342444333410222 4.894845033417276 7.670190163073351
