10
Energy = -19.80291927 eV
In 9.289008590467644 7.772058769227248 7.404890497501553
In 6.243358668668796 5.142513392996264 6.183700614031929
In 9.18658185660804 4.879324400960814 6.611213406244197
In 8.163197492045486 5.484054299325832 9.415256498964519
In 9.216273607709148 10.489300401950832 8.37557561455529
In 8.357477255325444 8.03754170329984 10.844004247033968
In 6.248056524044751 7.540118288102144 7.997508800673758
In 7.3221116636281955 7.7003795915605835 4.9493784847885305
In 7.2094275983949 10.39405689601965 6.0799384707250335
In 6.43797461257953 9.986435120071452 9.510168672853622
