10
Energy = -19.10339322 eV
In 4.2696413969134515 6.800977651398901 6.562689159951081
In 6.966397974533438 5.533985840293042 7.3307626543089865
In 5.811694145809183 8.261398304729306 8.87082315884841
In 10.862943030847546 5.262963798895203 8.536390768242502
In 8.286471531013802 6.849690582696256 9.62369892501977
In 11.064406206554095 8.33009604150752 8.676020529827868
In 8.344519164553637 9.538764445046311 7.8891135222916855
In 6.837276851900811 8.341202115987361 5.587297059351685
In 9.342650321625669 6.95098605359675 6.27098809706222
In 4.109542926188042 9.930597465472479 6.574816170615238
