12
Energy = -24.40653781 eV
In 5.139488132089838 5.561655717989095 1.9211401491332905
In 4.2110224044684355 7.950215507668107 3.6556551559488466
In 6.729354054065452 3.8925963793655582 3.9840525144659478
In 7.076195109290981 7.022743817942217 4.541577934412828
In 9.252770208694011 5.015527684060499 5.435036345141643
In 4.252303497638462 5.368517939553075 5.198779654561628
In 3.7773714615286362 8.634486323375457 6.530731059857427
In 6.562893082155231 7.526459337679279 7.256567836110667
In 3.8802372253390924 5.97706459586776 8.14493179254877
In 6.301908377547293 4.264395524735823 6.989406207129541
In 6.202311336737836 5.394569179286168 10.096581299499423
In 8.722998992072272 5.500621874104332 8.354393932817208
