15
Energy = -31.5832404 Dir = /p/work1/plile1/GA_structures/In/15/all_candidates/614/
In 5.209932185934852 4.117005014224445 2.204277209491414
In 4.302603146916027 7.021041032489881 2.799549439611482
In 2.147395701392735 6.413908829741475 4.822591719536268
In 7.146059773168446 7.146193347055574 3.996564215685126
In 2.4980286366058264 3.564245873346335 3.6397598496776555
In 7.860889707390788 4.178963336720666 3.8731470938387473
In 6.0862383630062515 1.339415416092468 3.3695474212191385
In 5.1853811083907235 9.472195815643081 4.849513328628096
In 7.0389125326697135 3.1920945720834943 6.566519694386215
In 5.043118635576132 5.053711059673646 5.17452475434491
In 4.271137985093227 7.510674444227133 6.909068512050001
In 7.452666667666947 6.4202016735068 6.972335421165989
In 4.339261475149327 1.9210765798656653 5.750593931462958
In 2.6316029517451662 4.257706469875293 7.003942621298163
In 5.173461670431512 4.778257076591433 8.454755328741484
