12
Energy = -23.91924272 eV
In 8.371582232791917 8.2422755278936 5.1292433599864555
In 2.947844251941587 7.074396989049363 6.038691305600175
In 3.828999683357807 4.185854193911946 7.028911691845521
In 7.403465469218534 5.86313015522411 3.288247447299872
In 9.091740947546555 5.3533231434927995 6.196181931718914
In 6.468039553267974 3.962912912731109 5.482325398485031
In 4.169217436956784 5.128232041762306 3.849423663091364
In 6.833063891367089 4.31183938842254 8.48522006164402
In 5.946881762278265 6.895445650943231 6.299406643263862
In 4.637671421311845 6.537144945194045 9.000089195887544
In 5.204021624487476 8.108978634040797 3.6247008600720214
In 8.006071551844759 7.245066725451838 8.486158990096392
