12
Energy = -23.19678666 eV
In 5.216657526597638 5.967477334373141 7.954696924051031
In 7.48866347022341 5.157086420050194 6.049263879275372
In 4.888638597581772 6.483009065398544 4.857668873706008
In 8.461670665756419 7.137625113851952 4.023820414345953
In 9.294317081126119 8.627753650441875 6.678944568639508
In 7.032644373518305 9.436388150693224 8.596830886122964
In 6.041560529588401 7.458046543970746 10.61255540098516
In 9.636599885495363 8.106886931301322 9.774320852060972
In 6.425127656570825 8.936891958592728 5.623155864632097
In 4.085454807137069 8.727607043163795 7.720884048927344
In 10.430025822706106 5.869012466701502 6.921636583881307
In 8.084245794634933 5.660075092418624 9.023450461438077
