14
Energy = -29.70085014 eV
In 6.227803969634043 9.416370559178606 9.327136692229994
In 3.927611320217581 9.691844093616451 6.683746107582098
In 6.982281975807951 5.226692132412824 9.852961651228336
In 8.6274408268546 7.7257022883533155 10.599126230910976
In 10.289010180401332 5.62208126386828 8.686271299124979
In 9.152202489946198 5.385454393887852 5.613123589265709
In 10.454729338186635 8.356643761345062 6.541345454710272
In 9.4224893427921 9.97378979627874 8.786452319943562
In 8.263413094922512 8.026879402380036 4.40142786847152
In 4.74443408433388 6.952130203977899 8.47441526555391
In 7.803096468065389 7.330402521980382 7.651478323447748
In 6.693027366026825 4.440666920076097 7.001420154053416
In 7.092618308993114 10.092861484021748 6.449716761665861
In 5.5518962652877715 7.126217613474923 5.55711489516494
