14
Energy = -26.88525808 eV
In 4.057897321446775 9.446671916498607 6.5005313148008295
In 7.13886129083418 9.00470748858925 6.0377792136736295
In 9.490505459328125 11.006376961315828 6.365979342551866
In 5.1785307743060764 6.633607475947664 6.211815354216493
In 10.099488160150168 8.06183649451887 5.994085999887396
In 6.478142669558913 3.908392571475883 5.710476383553287
In 5.494906233559251 8.281188980101147 8.92662210860799
In 8.242143154163175 10.36913696290744 9.059452746749566
In 6.423704956010032 9.839260191593725 11.420127521400097
In 9.193477917204568 5.019855470527972 6.574614303518669
In 7.113010744958672 6.780468247129668 11.10188268616527
In 8.90404773675795 7.428119640679751 8.712287398115514
In 6.731941002525446 5.014524677629943 8.59576639514011
In 11.84438411235694 5.666558200765961 5.330204803791645
