10
Energy = -19.32965374 eV
In 5.300461766798532 4.631162727595268 5.4987524776195125
In 6.887470910646386 6.260021797334338 3.7355823132758985
In 3.6335374527768014 6.969026526446476 3.651361672723505
In 8.619644280824971 4.790339622983394 5.911534141038391
In 5.687758601034196 8.48555340545735 5.5110097190545515
In 9.109850399706525 7.851552232604385 5.322330730555446
In 3.3451504227940085 6.778207951075379 6.788796968857642
In 7.03409375561545 3.460344627914722 8.062697089968513
In 6.7148269745158995 6.754496481423723 7.5460386572144165
In 4.397419632207145 4.749508824084605 8.702110426612062
