11
Energy = -21.68429316 eV
In 4.3126935280833525 4.230923250764419 8.622716794300887
In 3.725010830927663 7.8585631369459605 6.214098589726041
In 6.155634465917138 8.482413336667268 3.9202069629006844
In 6.146065412852468 6.178607026469059 7.449208042048194
In 5.617459628189935 5.529839745984213 4.480720797612238
In 8.506743213490124 6.338427162340258 3.9692510784353443
In 9.001430767614645 7.024070017487204 6.839380546460207
In 6.731260801409102 9.107081578748094 6.79207816049347
In 5.347563231205901 2.898147495593981 6.042874442032514
In 8.085895950768327 3.8861667511806477 6.295618984116687
In 2.9598747121937143 5.055393312025984 5.963477601417491
