15
Energy = -31.00676141 eV
In 7.342145859905057 8.904962159831719 9.768916535510701
In 8.344774343270332 10.029719332793883 5.46228679516023
In 7.138972522967199 4.075851469201326 6.627917673949449
In 6.713975876486089 7.536896657561453 7.086418682422143
In 9.865856292721855 7.112337965369988 10.468260135540287
In 10.586203697346798 12.658362190746915 11.228240559442712
In 11.455280880130182 9.959405090850856 9.767803268472873
In 9.307372325859964 9.629128932149591 11.944859961940665
In 9.840823336991987 5.308152237273322 8.079893560693598
In 7.085791537803669 5.709391127427018 9.428349627105503
In 5.995810742883349 10.539766811319554 7.419744896915074
In 8.894489666089429 6.343929646536515 5.248820366395021
In 9.159054867181299 11.1843229619148 8.275216727913634
In 7.53923425470729 11.910213456108009 10.816228519304584
In 9.90176845086302 8.269114616122563 7.548597344441072
