14
Energy = -28.80624489 eV
In 11.609484476446033 6.9882087244695565 6.242269046411464
In 10.142784690076871 9.48409549890851 4.604827928229637
In 9.481578590167027 6.465902718969887 3.910640626198372
In 8.973011253660104 5.987866887729243 7.072234560864781
In 9.907415475273432 9.119250917544006 7.65669039488277
In 7.508266534164847 8.497003948592116 5.508141057620402
In 6.7930806770657135 5.45909246293377 4.777747072280695
In 6.96739127917344 5.961469212125008 9.109721965980292
In 7.7523907819450235 9.053556768009036 9.596064126526025
In 5.096705844199554 8.066386319968377 10.592470871580133
In 4.717892204951126 5.477157631929667 6.816805023933925
In 5.405086967583725 8.560311201818557 7.448142714223914
In 4.286998949011599 5.016638383147305 9.874585116775691
In 2.8452402531616174 7.454561001858455 8.389595823083585
