10
Energy = -19.0595593 eV
In 8.80389826201877 9.315202573923479 7.4088098040667445
In 7.530123140645501 6.401788783082378 8.636000970856916
In 9.841645365698843 6.411801355269661 6.693663188820838
In 7.14505293038403 2.9548160520957687 8.303275967736322
In 6.337021638625099 9.352591290117992 9.16685636894493
In 7.955922748712098 5.18560720286404 4.954458611580232
In 4.878582846395873 10.565833668344942 6.842309642458823
In 4.9963641465967665 7.442912571104679 7.086380522738233
In 5.586141981001523 4.669300952367079 6.5211872757025375
In 6.971293902095256 8.28511177684594 4.91041766386169
