12
Energy = -23.98395193 eV
In 4.695695595978961 5.267091817512343 3.6231237917812966
In 5.4341544248505365 4.175790876644405 6.304896096365157
In 4.429694128297138 4.951336550755192 9.06908413668839
In 7.555953032931113 3.938881332115926 3.718832446496766
In 8.358206364692911 5.617099522105058 6.218123669349263
In 7.408835157663825 4.734322630550425 8.939879580194969
In 4.482872977151514 8.361895890456418 3.7787998448510716
In 5.45571915449719 7.186178383804927 6.467393884159404
In 4.622609191852421 7.972084513005347 9.253848025775802
In 7.364651525542195 7.127169585112851 3.8217388667303775
In 8.52933122437638 8.963317841854323 6.076956172223216
In 7.647337818198515 7.689891499468501 8.712384234063965
