12
Energy = -24.4803727 eV
In 9.606471828760531 8.204669711817775 4.639198901834947
In 8.195390016338298 6.016126899697634 6.641994112396215
In 9.986144344730834 10.13922193717267 7.032460238569276
In 7.744119016593063 11.357515530882626 8.812760116946768
In 9.631471659714268 4.9837108742280005 9.426387364487569
In 5.257302846504228 5.755991706314712 7.229805530694275
In 5.879607919474479 8.971245878121032 9.824765152948967
In 10.907964200277474 7.191497894997001 7.487116378075681
In 6.724787611024102 6.084907066204968 9.873356071588821
In 4.296178304968122 8.508442538665483 7.357663123043316
In 8.86037585120754 8.275586216138244 9.28835343323499
In 7.185840885515905 8.801162535019603 6.635244903513184
