14
Energy = -28.9372393 eV
In 11.024248202084049 10.723756677740417 9.968373217918922
In 5.498962832312693 9.1061697354634 10.021621444233856
In 8.325297866329377 9.471247365044979 11.480506536968816
In 9.867489820142447 7.727355635709414 9.483003872640547
In 10.707758184265591 9.605470435272665 7.06839531827575
In 8.001843318713725 10.529815667256026 8.637848949607886
In 7.053609384053126 6.440965936833802 10.507375095726557
In 5.102827919719352 9.77691598063138 6.999124458078369
In 9.93024213237529 6.698327439935934 6.509730963246237
In 7.196255535371506 7.66110621870159 7.785332384288384
In 8.059002335699258 9.928546319845417 5.61305790491826
In 9.194978131139278 4.810412353817713 8.830578693901087
In 6.797242510931713 4.793564638338953 6.959173145720287
In 7.256905898948942 7.116483371409048 4.701234376894169
