14
Energy = -28.45513559 eV
In 7.124343625568778 3.951547204494094 1.5783540215859149
In 4.485295520893233 5.348533508500688 2.7937573725989826
In 7.637034953746444 6.360766679782848 3.608819587732995
In 5.813446017688949 8.057563848496946 1.6323761677579463
In 6.545023384216265 3.6023463314361543 4.767703975830591
In 5.063595284933707 7.857542390555171 4.805374734457482
In 3.756501862031105 4.976980961865853 5.545841020341844
In 5.602955073240929 8.536770265694022 8.10028514330512
In 6.848299567596559 6.0926054423244 6.474209404246566
In 4.877341709975477 2.3820122344429704 7.174539267604931
In 7.504813317258879 3.491134992762477 8.139569595396297
In 2.893996838486824 7.637358901148473 7.157578148585215
In 7.19503435050291 6.286684560699311 9.606142970647742
In 4.458833114880506 5.224667298817281 8.421963210928899
