14
Energy = -28.83533149 eV
In 10.638211997303717 9.193700045369154 8.583632225660503
In 10.17734488164324 6.238149023570324 6.923789617232631
In 11.312810990016253 8.824347344009272 5.605060599683513
In 8.818414409748334 6.5083301529874555 9.529942519120887
In 8.169221895814285 8.65962304351522 6.089241532161931
In 7.058969941800355 5.739966547339651 7.1583498907637075
In 7.6278409698627625 9.290466276941592 8.938261245961073
In 5.635383379516395 7.006563970432592 9.6875736010672
In 4.382165568089875 4.478743398604261 8.599989890957305
In 8.599603854297179 5.616307549298514 4.324285734018626
In 5.137487884731793 8.645559028485302 7.064023375239466
In 2.623218391531356 7.361963641005405 8.352776884106936
In 4.3842086584561235 5.769349575382121 5.885820977433137
In 6.244999856991332 7.483689917688666 4.102799767638658
