10
Energy = -19.41101134 eV
In 9.150782341070293 5.841119368720499 7.3898670721850825
In 8.627587186183192 8.037253936939313 5.054557580320548
In 8.032599462629218 5.027420183349945 4.618783920773945
In 6.811941196178598 7.864691314260335 7.558528516724434
In 6.256967299998137 4.693548009766851 7.291697760207567
In 3.8772539941943895 6.881080043056685 7.290160371647204
In 5.652877208965109 7.210685592553085 4.612442033943365
In 5.094101836731433 4.043562567579107 4.3492357900012575
In 2.7565081596774132 6.069250488609687 4.520444969476166
In 3.2801113709025658 3.8721175881999788 6.855011077755654
