14
Energy = -28.44024491 eV
In 3.363357433181167 4.447939232297587 2.481298091411422
In 3.3787256005589272 7.406221030178565 2.470356237613595
In 3.790044216803309 4.382786522468134 5.428668058494113
In 3.8053485637314726 7.489105614974751 5.417347565524038
In 4.373590905164377 4.441834670530639 8.41294383332394
In 4.390077211366832 7.443370416028428 8.401181104999557
In 6.292775584393498 4.437409699680663 3.3870671623079662
In 6.30691914939375 7.3866411817808695 3.376550872354411
In 6.8347155784712195 4.390214956999243 6.491804116104593
In 6.851473664155991 7.45303441139546 6.47949814397294
In 7.368042165038421 4.436487724366604 9.383152575371918
In 7.3852191444764275 7.420450630874824 9.370614413912664
In 9.962024839047041 5.906155731571564 7.312535290631277
In 8.841901579909594 5.902563812544443 4.531198712777528
