15
Energy = -30.88077215 eV
In 8.352417649597868 8.175558911860527 5.350676358091258
In 7.499655470399594 5.164510149138811 5.299430290362019
In 5.211059716425624 12.306621887539269 5.218242166535109
In 5.408640370278041 9.216962856414149 5.3290717581572995
In 8.146075699389662 11.353125264276793 5.557145481953543
In 8.928874597733794 9.763070511713691 7.9249037642053395
In 10.295695332455931 6.01129770923364 6.4440341347875885
In 9.991254614397647 3.651333485071776 8.285096811392533
In 5.842024735378551 10.474482722656987 8.078199643289501
In 7.058876116755996 8.84961544345733 10.363987029614433
In 6.177026497923628 7.3702327927856555 7.565075551581913
In 9.104587680583952 4.588731999710752 11.008812704607626
In 9.159139463575247 6.982182869796978 9.00289202407905
In 6.981284551821931 4.595153166650448 8.199347654741302
In 6.387649693261691 6.041382419671638 10.917346816581016
