13
Energy = -26.85199559 eV
In 8.558563380109632 10.991889273239094 8.637846648509198
In 6.52056947952927 9.370564786999818 10.17484467175513
In 7.752303024531247 10.538224304793658 5.687572057577354
In 8.87443466721364 7.5393431071688335 10.462004294342732
In 5.362100982653954 9.011868358846874 7.389737585235587
In 11.03136356479608 9.065518673531098 8.565519535010267
In 10.86876717561392 6.209467410520971 7.326221213744934
In 8.35603834892419 8.044405749442346 7.397306432977919
In 8.906683297762896 4.855947745222111 9.160289652354908
In 6.605515206165384 7.774351594682098 4.693103451333706
In 6.17071356909644 6.325242823671354 8.928334860004234
In 4.487009321085458 6.145064273842512 6.396660405146108
In 7.812627574367132 5.392698236194938 6.184733338861146
