15
Energy = -31.51018684 eV
In 3.368025676249481 4.665928767839482 7.69755527914235
In 5.867757924650952 7.407017465760324 4.406405914582765
In 6.5340505888435905 5.250591415600552 8.835694646864633
In 8.783284864151359 8.50334304708989 4.654701162823137
In 8.600939027965234 5.163951216795245 5.35604200478377
In 6.070500058193416 4.557082679058549 3.1425414419276434
In 9.030252416474822 3.855410361264298 7.999191332047314
In 6.078550922702184 8.61221852303057 9.208429736907963
In 8.284322513406893 7.315323887852319 7.468649296705178
In 5.955396814182416 3.9258996305920846 6.170550431870195
In 6.59466545558769 9.928862453369215 6.402952729216452
In 3.379536524560047 5.249373652888286 4.609042768913407
In 4.4309313500967775 7.469164295266629 6.811697064743633
In 8.250987170471113 6.508120722813816 2.479077654898204
In 3.870345868721128 6.687258433066537 9.857015086861171
