15
Energy = -31.40194837 Dir = /p/work1/plile1/GA_structures/In/15/all_candidates/102/
In 6.301784330336182 3.9496032021481633 1.9618982558530003
In 3.9969033411091606 5.883596094952363 1.5147507762793613
In 5.3304135507867105 5.8225509672664995 4.3156924436987
In 3.3628769078846963 8.372152895222243 3.146366280877083
In 4.255507748324679 2.483515010751619 3.5923038698821492
In 2.35969511937873 4.846120988725848 3.9714758414614586
In 7.694888537212869 4.086310210442016 4.722562470915691
In 1.7080376718208594 3.995616521635181 6.933975224228204
In 6.513565933046148 1.1562163492137933 5.464672718475235
In 7.771835684941422 6.895580628379422 5.991140182919018
In 5.412803270671552 8.737003142205173 5.369587216586219
In 4.558819361171736 3.464139374143369 6.435431832252353
In 3.145182514177103 6.75967736292723 6.37487267252206
In 7.386022146917298 3.1371810834745797 7.812419986807026
In 5.665795926007185 5.874868212298701 7.856982271028409
