12
Energy = -23.79552166 eV
In 7.517428127352703 8.566925851914103 6.5893344276550545
In 10.48932259012082 11.972795970136115 13.939966082404128
In 11.816483514745173 11.071696462583033 9.358837296120875
In 12.704672796300288 12.974660490640673 11.854936861891776
In 10.531370567057053 9.416290549465938 7.104071493418905
In 8.095448755688043 7.756461691731843 9.793803370547728
In 11.104116590940949 8.056388642375623 9.861889940807973
In 9.632595364784816 6.332600448299092 7.483144365571256
In 12.022900492916817 9.807838032849372 12.220968507624006
In 8.423057724532502 10.710082464033656 8.85676725788708
In 9.01998537849113 9.907191323535134 11.841135196398932
In 9.752511039703553 12.736101897054287 10.798274060773867
