10
Energy = -19.17418835 eV
In 8.005731264052224 6.1743712146537 5.84670909374613
In 6.478743615700785 8.020932242273203 4.116411159537568
In 8.11761662741845 8.590535192946291 7.687462538552143
In 7.558228021394356 10.829850397441417 5.580475120332984
In 8.786111269291156 3.67774311875879 7.247763584709216
In 5.366732208008382 3.6451994390385676 6.219472949093427
In 5.190410961214488 8.955679001081656 6.77236203588048
In 6.420234866006032 3.5957351804639712 9.058260748350898
In 4.465992687883966 6.210389719907642 5.375163326024532
In 5.929298881939421 6.40319424696135 8.168546164294337
