15
Energy = -31.59775839 eV
In 9.120064140651676 5.4909707582480305 9.637448142219068
In 10.669052887014526 8.27201425361447 9.446089842591288
In 6.100888565424461 5.939777957890602 10.56795308191341
In 7.634688372465814 8.801812855236246 10.486134150920364
In 9.00568607889599 4.339696979071685 6.79720026177756
In 8.939363374913505 10.103497258441351 7.322675554380475
In 7.696095315912745 7.424153981752494 7.885963101105648
In 10.262592661066158 7.230959272861909 6.346328353914907
In 4.776545554787758 7.979933980507459 8.345504859647628
In 6.163794611059697 10.828772246834202 8.715106735047195
In 6.281411600409993 9.21924988466527 5.854718500070764
In 5.957514349576809 5.0319826847513225 7.403307616792898
In 9.163799260208169 9.32053920779395 4.135721954353903
In 7.417011554185865 6.563390275113815 4.944848067159467
In 4.084572793683383 6.726329523473088 5.384080898361399
