11
Energy = -21.7970839 eV
In 7.104382756244764 8.694158202896329 5.419802033712446
In 6.5636424320481055 8.019607248719135 2.232353971634745
In 8.857334310756425 6.516794089752444 4.451100420549432
In 6.162165194375229 2.634519008379831 8.1588348684869
In 4.580951952255875 3.7979187635084064 5.6912966816560635
In 3.095919676259645 5.57213141823992 7.420753056959547
In 6.414114857864768 5.059795673727392 3.500421894514477
In 7.195598023036952 5.264863581769059 6.677975365914256
In 4.516224692374719 7.06187212857148 4.5898141592899195
In 5.373405805444944 5.135275730943124 9.547441857959068
In 5.4066639245549375 7.513467489979823 7.580609314539203
