10
Energy = -18.39964306 eV
In 6.624215862099601 5.6961407677864315 9.063307102167597
In 8.423763559421294 5.474704925639183 5.224025207209143
In 5.67928931783786 6.215794481427261 6.303197301381775
In 9.377288031406746 4.920657115293023 8.025341409396214
In 3.490728347413234 7.049743725311632 8.821633609350316
In 5.895898011675063 8.902127672637741 8.343324233320496
In 8.856117418732136 7.830296350268432 8.76971559733869
In 7.869384087090046 8.386980761583494 5.926301808407831
In 10.766879619426302 9.531852920484038 6.804013406979733
In 8.24201681508017 11.090570636387104 7.970186416279413
