15
Energy = -31.65263357 Dir = /p/work1/plile1/GA_structures/In/15/all_candidates/246/
In 2.611003595695431 3.201186664845239 1.9446381488796813
In 5.180722980302577 4.9750540554314915 1.4966715289303225
In 5.483795673445125 2.4369822571199595 3.246713338506807
In 7.759308935836065 4.9938030878370405 3.4059826315642856
In 4.688606505810887 7.633330540186328 2.936220965728208
In 2.0999538537981923 6.030605941800246 3.236937094843669
In 2.6890882070925346 0.7566593746878534 3.6183117619075653
In 4.818670806838396 5.08566697425764 4.6772106209534865
In 6.179533516641666 8.067839935426397 5.383853947324394
In 2.1496390550170887 3.5998201213675576 5.14067860950345
In 4.3012949627253745 1.4366281527433171 6.0463218834436825
In 6.9913128171147925 3.1028494123996433 5.879472653936733
In 2.6648067919945966 6.787627787109477 6.306458998963776
In 6.520092081543519 5.85308971739007 7.193939627370685
In 3.9782296325856232 4.15491539383998 7.602647604585359
