15
Energy = -31.45491465 Dir = /p/work1/plile1/GA_structures/In/15/all_candidates/656/
In 3.5584452773414808 4.621091178866925 1.5362681649327083
In 6.613112614436541 3.426576429606869 2.5902547911573683
In 4.184701989039965 7.507467642710431 3.2446903760284185
In 6.784397340364852 6.360393998205407 2.3767000981462836
In 2.157555539201983 3.3333124265159504 4.390238692665478
In 4.491438656519074 1.676588218658334 3.6529772935697644
In 1.760308525079686 6.259902551637065 4.422056058228589
In 4.8998643304385725 4.900556607814976 4.893109385334102
In 7.863958600598006 6.673544800817395 5.218290124312479
In 7.766293393301254 3.737068423609325 5.579774701109397
In 5.345505931028171 7.794899116827716 6.234953962786915
In 5.602703842530278 1.9209457947829922 6.488229088245032
In 2.8928372230893507 6.525715434506447 7.250357702126574
In 3.3381561340648815 3.6098236696373323 7.363404160370303
In 6.247668292120001 5.159061394957403 8.265643090140568
