14
Energy = -29.28101407 eV
In 1.0117157029693573 4.444207259583034 3.795974126236103
In 7.238978392871085 4.0820851849940745 4.614601516716513
In 5.527854641511567 2.6655785154491145 6.762415049854288
In 6.164970573897082 4.579164074971172 1.4739654153286654
In 2.713591178930768 3.9514963774599394 6.707318799814657
In 4.631923213683858 0.4060029173710212 4.734303540739766
In 5.096499409658532 5.8568971233250755 6.05030194167837
In 6.350296143598748 1.7601386583045355 2.717188498608888
In 6.560374951026399 6.880556253143426 3.5604937398052763
In 4.168064852101018 3.6643158240558837 3.8856187613536552
In 4.277784724194063 8.645056297530385 4.438231588533729
In 3.4165942943239793 5.974194898355416 2.283080583167323
In 1.9362005015223365 1.653629659825369 4.751550774902076
In 2.204118497205927 6.735688082202025 5.524162119408668
