14
Energy = -28.2589933 eV
In 2.886293525888733 8.656063668108406 4.6840349478695
In 5.750299148259324 9.10278006780657 4.9247193227058395
In 8.630329912333377 8.723814098059043 4.792522388215168
In 2.5214025840640044 5.7554323895552875 4.734087776554094
In 5.8007265136001305 5.690245093378123 4.348414061095916
In 9.060263899031202 5.8299970988595975 4.853350943994741
In 2.972904859249495 2.8895020700612655 4.633406913641085
In 5.831051309314172 2.569624409140903 4.584679240260645
In 8.678881751202523 2.9563960602004262 4.738557495342852
In 4.306729868078577 4.139147264566632 7.248715887734014
In 4.2291430687607505 7.215111285750404 7.136848691111872
In 7.2319523553762854 7.249209303371694 7.1928466531292905
In 7.223648928065295 4.172932604348009 7.303401591936018
In 5.700385864015882 5.87375859001314 9.64842808962832
