12
Energy = -24.14193665 eV
In 9.873573613298968 7.191805737087601 5.2085471363877005
In 10.032904337417804 5.761622540809937 8.273941195015675
In 5.274927616342008 9.636181794810932 7.125826179856737
In 9.182382431340729 8.563486951933955 7.91878575755824
In 7.855720218041154 9.424795979766733 4.880861250772219
In 7.93871489287688 11.257301235614827 7.360075632930446
In 6.941004284644695 5.267096595602916 8.985800023470444
In 4.661249207195516 7.206531083098508 9.109484329166127
In 8.302365244071675 4.643007413573053 5.901516334528874
In 8.746341630550045 7.119133424390359 10.857493928253769
In 6.708814985978877 7.114395697458588 6.583481978658185
In 6.952262680265904 9.302628955628808 9.873664039391866
