12
Energy = -24.21906977 eV
In 8.262370001360685 9.727787394051216 13.076834637531066
In 7.92717532186782 10.870099278168356 9.974352378780328
In 13.296529517273067 10.469477309143244 10.377727821786804
In 9.425649174557927 12.496560822205153 12.413939251037453
In 12.622629201839475 11.497604552431445 6.823796626967545
In 10.900420978266316 12.295255307849166 9.68863768172804
In 9.751515500819332 10.462687080744914 7.6137206101600166
In 9.197875150604736 7.6607325623540765 8.996107109774446
In 6.765044405563943 8.329202223427666 10.639757914925735
In 10.570044696478751 9.396563604403536 11.105829696803404
In 12.095612512304973 8.611791047378887 8.299447454784287
In 9.014485003663996 6.814618244511039 12.204640818979613
