15
Energy = -31.16463377 eV
In 8.100450021435273 3.6491036430886297 5.4549583372990185
In 4.471150149055629 8.310455845767681 4.020495042533052
In 7.04672932166994 4.799707176043158 2.9091200062733513
In 3.4027220814396064 3.45364509304267 7.68798704850187
In 4.020752815730548 5.518511520736944 2.792445827481513
In 7.956123849002306 7.5158195788567985 4.029735731002384
In 5.038134646787297 3.3682411623071657 5.010730311061195
In 8.77824434799995 6.371350391555629 6.6422920546062265
In 4.059079859670517 6.092883768017531 8.993175729351254
In 2.4685333286664264 5.087874152476827 5.300819606963393
In 6.390460988126116 2.772993064980569 7.846700392752794
In 5.721908225554594 6.123831694236899 6.137365637351242
In 6.167041045535819 7.672969565585745 1.431961662534989
In 3.1078959316402432 7.783325365203928 6.629920479331858
In 7.211696124263647 5.420210714677357 9.053215598588828
