12
Energy = -24.15919905 eV
In 4.857165348206862 6.3525716948859925 4.838459819676918
In 3.3102383529646966 7.56801271305756 7.002946090106256
In 6.240722192511397 8.955700122579525 6.645278911602931
In 7.76857173842729 6.418095733060242 5.412176386675437
In 4.272928232492617 8.761840655692556 9.500945678651435
In 6.019427545358181 6.128940893687682 8.095696394331172
In 9.03682021681784 8.923648794059135 7.000868072921365
In 8.803649712313485 6.082943397305095 8.479872191063494
In 10.727137272595142 6.262242915756835 5.675620455087805
In 7.239735915580467 8.664766885910895 9.674748300979097
In 10.16128561247629 8.684758771093218 10.210398340522714
In 11.786711734532137 7.462715901458644 8.121452348174948
