14
Energy = -28.97884188 eV
In 5.931699875342986 6.06630616770797 5.203008900160027
In 9.050195955492894 5.6975898317454945 5.945969629901092
In 2.7322120126407974 5.622487833833863 5.320798759574826
In 7.75779279685478 8.395946861932343 6.0960824988614
In 4.666894070358058 8.72093558910466 6.068216669145253
In 7.468747499598059 2.9965410163708524 5.788308930811421
In 4.607710094577922 3.378187219999137 6.323258598125541
In 6.275667999151415 8.172537313970004 8.81872391304495
In 9.033954175539643 6.9649567461210715 9.299518390437889
In 6.798459008229076 5.05011653833236 8.052552630981742
In 3.9677350176546953 6.258134158781052 7.9601861730408965
In 3.8439655282564047 7.698376969668154 3.3394412875737776
In 7.617323163808623 4.650382211868768 3.184390734603208
In 4.405609897284996 4.4854674309858895 2.7575090150335115
