12
Energy = -23.60337457 eV
In 10.116698242744196 6.254070251486507 7.237153047458082
In 9.189641856817515 8.489635236163654 5.311036480699776
In 9.763762705031894 9.147740054911036 8.288296671591617
In 7.879661246934984 5.624438836641928 5.16849227244503
In 8.854060481799557 6.735801609840457 10.056199807449058
In 7.636195343381211 4.632585969584945 8.116521485086807
In 7.139461354051967 9.2997087594983 9.856901358936845
In 7.378099940180292 10.502882638035206 6.829272552605495
In 6.188647100472091 8.170119249720114 4.84378030840513
In 5.76433401601178 6.3919111548017336 9.796719413226448
In 5.1388418776648725 5.644416896762236 6.628806928490835
In 5.10255480895987 8.550089877145414 7.675884412165086
