11
Energy = -21.3629377 eV
In 4.087546692076204 4.64540272692319 4.496001454814321
In 5.279886625953227 8.113104504525348 7.3297949931617215
In 7.0088572687782 4.247246577929063 3.125981243735805
In 5.600377111248112 4.976242899215346 7.160774063229236
In 6.289831375337356 6.797779483926674 4.638569975161144
In 7.813935160489163 6.598874348762796 8.806667828233394
In 6.366897092483046 2.541864028107037 5.484443685257863
In 3.275220084208662 7.855480512592094 4.723075156803229
In 8.433825638636645 5.011621280505801 5.94778883043397
In 2.628870023027758 6.162817336893821 7.073438281234049
In 8.455168316063737 8.289981994215232 6.4538798762376395
