13
Energy = -26.82348426 eV
In 4.493820995816315 6.4065041915243075 8.2128553953592
In 4.485308365710184 6.156364770635798 3.0456815654485156
In 4.414930942108263 8.234121080268803 5.563439077545962
In 5.910427966718202 5.358867330699821 5.491896292388431
In 7.187615260931763 7.81944492563123 7.170045193469538
In 2.368510515088794 6.031620679154255 6.083900896968668
In 3.2459627888346474 3.6411376364926147 4.4296158895188125
In 7.249164234945309 5.309331954424521 8.874206579747582
In 7.573402619857343 5.993128863642052 2.6529364798670434
In 8.835742604428154 5.545027742163756 5.480670582903191
In 7.120966371047504 8.554806742599695 4.220631727043091
In 7.79008444239127 3.0125691826603838 6.959207501330689
In 4.685848811416671 3.2988605954589696 7.176698513765609
