15
Energy = -30.71664267 eV
In 11.238314112349913 9.545014815645875 5.9761066928828805
In 10.87972291882299 9.069177710147487 8.820040922647882
In 8.444064060174993 9.794151265249155 5.161737636077547
In 9.935216656972617 6.815627974474893 6.2288478912449525
In 5.525324760115701 9.79479022231333 4.884344376494875
In 10.072167656236328 8.170537371649427 11.547337078750749
In 7.822677231406663 9.533331917100792 8.143795432838097
In 8.188183312669779 4.525211745603923 5.392936145039993
In 9.218240129038076 6.38919150674904 9.025729474829754
In 7.139640604621786 8.111467751889995 10.93772916007132
In 6.4948042834863795 6.984804871247271 5.439881588028512
In 4.708474269232952 9.324036511216203 7.621257308538016
In 7.593625035265385 4.020413137542136 8.1681879616408
In 4.206323544941458 8.227451164930084 10.357636237684469
In 5.953259198327473 6.520657880964084 8.265612471360987
