15
Energy = -30.83173976 eV
In 10.37180641144905 8.986802001053542 3.2780276954554752
In 7.743472088981735 10.115676105087381 4.650121446338132
In 8.208520619438595 7.0719588878314 4.422416463352787
In 10.69821971184685 7.955190143376623 6.238761761136147
In 10.363308614737944 11.08392782550927 6.140506330284205
In 5.6632999165990405 8.27186009257775 6.021121664601873
In 6.147860291457897 5.190042549664032 5.867396003208599
In 3.4607191522385987 6.418751027060013 7.36214656529205
In 8.208746289343923 9.41744938000048 7.626871052058575
In 4.050728466020267 3.419616096238569 7.115917423178112
In 6.575541690945926 4.387018621112302 8.867338899916467
In 6.146340987142114 7.478217114568979 8.997231505289683
In 8.625150480661487 6.227882061686391 7.505908213853883
In 4.199431471727324 2.70656801404255 10.103340705428868
In 4.0386540959880035 5.770840368769282 10.304694559184522
