13
Energy = -26.15717402 eV
In 11.118379630480542 8.597027411494699 7.666398261387245
In 11.524769434534749 5.760213258580528 6.670940016204999
In 8.99973119094047 9.102556841764518 5.495326969276408
In 8.37774648367975 8.738686156887736 8.86515734831047
In 8.886054595584044 5.879542170089821 8.209560232903204
In 8.689327631139843 6.160356520629791 5.131203986552696
In 6.36158107712177 8.092656133997684 6.678639157196356
In 6.213064483567274 5.0474440732193395 7.148077103355279
In 5.890858136070013 6.7275561237100865 9.977882311446669
In 5.203642762883015 9.54553148796305 9.24713351234522
In 5.573879031117998 6.166395595596833 4.2426300257859815
In 3.430479967960808 8.672632113124818 6.879680584604479
In 3.53397877627719 5.9589548382884185 8.001253091912371
