10
Energy = -19.6419692 eV
In 6.1753484183922565 6.615867050731816 4.8448542800534895
In 9.893211712211688 8.068254436063679 6.229731965985358
In 3.4256548565875446 6.988628693663837 6.322892179980622
In 5.73560599729982 3.699607090803327 4.873947681814976
In 7.268674656534317 9.303551027403678 5.535918634498132
In 8.582540559387512 5.41026195321002 6.447680256379811
In 6.925918654500533 7.324837007498009 8.107169177885599
In 7.134295514111677 3.0404758232223914 7.512081393655476
In 5.055089186472314 5.154807617449573 7.927583144642255
In 4.803660444502472 9.393709299953938 7.198141285105246
