14
Energy = -28.7412991 eV
In 7.361148645336165 4.95589996017434 8.054897166990548
In 4.802107435486522 4.755121575265561 9.522679679792477
In 5.535741289046262 6.758690672662442 11.666679427551097
In 10.410944948859543 8.820555846063352 9.37560247950292
In 8.215564570755598 6.9098283957860245 10.136200909003353
In 9.990512412837338 6.457413168500396 7.216628450767937
In 4.82329396159282 6.715790585050711 6.971028837762545
In 7.53764645682112 6.7033896875615575 5.437715928190662
In 5.3287201033017775 9.304570684618378 5.264833551457414
In 10.867674181317412 7.3494830716736725 4.47403469235702
In 5.062122534045859 8.518772818402619 9.364009135280556
In 7.497394049140089 8.890714239965279 7.7033599490652005
In 8.287576777274076 9.221956336934579 4.092217071601693
In 9.939203136280229 9.88739314054067 6.499690064269971
