11
Energy = -22.03749765 eV
In 8.311495458150288 8.80783559104248 9.634426542187077
In 6.211523716277974 6.4266670216173685 9.654465155456705
In 5.242842659770387 9.345429200383998 8.766374044047614
In 9.085351360026449 5.87309392707808 8.6456901591906
In 10.249703703406468 8.426053790244147 7.089447558135103
In 7.195719941368001 7.887930684163396 6.842729175900764
In 4.1976619930909616 8.22464191322803 6.086318472103071
In 5.149825222047053 5.35115416844465 7.143255911696868
In 9.092611626970916 7.310118427015227 4.4546513376414865
In 8.054030910326038 4.789661887225158 6.126587005305982
In 6.059343334260595 6.456410670795022 4.2678424398573656
