12
Energy = -24.01185187 eV
In 7.73075289190592 6.701815347931124 3.1928398115910768
In 10.552182904482626 5.743502057131899 4.188513248822803
In 7.8306255521770565 4.5305632937224765 5.561549748386259
In 5.962143422964883 9.661916114995961 7.487062654332668
In 8.09903907615577 8.363600772313912 5.693304717770895
In 5.5762525981863975 6.684665738900596 5.646186087699096
In 6.536826612884607 5.303319622489681 8.208978345168463
In 4.208377775962886 7.374412275180411 8.246159680183954
In 9.698968266491255 6.158779945463468 7.190656278777851
In 4.745250680847556 9.775375906216858 10.375543772517602
In 7.9351519943844755 7.862793371794383 9.067720538596694
In 5.832413024609999 6.884209780965711 10.99164026145688
