12
Energy = -23.59416719 eV
In 9.358943314272146 10.441173259233405 6.558173476373767
In 6.301465240757551 10.965013229916583 7.360179936430981
In 8.031020725592919 8.231419254810065 8.30785005226995
In 10.047076782395434 7.328723250548176 6.069765783830054
In 7.187499202011942 8.8229182915425 4.9541179591051545
In 5.02063047992767 8.620207467812799 8.766486508540934
In 7.588586559253657 6.100351732219518 10.56709830071801
In 8.678207647861388 5.194587494328176 7.842597565763955
In 4.937311421905919 5.503016019069631 9.261244397945866
In 5.972159613156761 6.704116053826565 6.493622583499766
In 8.161862370637389 5.767943252448422 4.410204136993337
In 6.018259889379815 3.5794241869317744 7.075436584489278
