10
Energy = -19.09560785 eV
In 8.934760746993645 4.505680996209658 5.735609198690417
In 6.9985460557287364 6.492634478603525 7.16781039272525
In 6.579486143360848 2.521265589485833 5.3379932544173725
In 4.719703714023462 9.745465241624805 6.023019910846029
In 6.547153714428415 5.486125530492448 4.091523361196128
In 4.4147937522340195 4.737463121477249 6.2104834437469
In 4.091031986442313 7.2364939246207864 4.503703896296105
In 4.300303329602648 7.4626765888355475 8.01769462286715
In 7.33388510104781 8.526534144096766 5.002439765246598
In 6.411742195443548 3.617067205932005 8.241128975346399
