11
Energy = -21.4070686 eV
In 11.130441880597074 12.927223860130143 9.070244337762496
In 8.54708088591359 8.266559078584681 5.535399396780112
In 10.024611570131276 7.514070000073268 8.458891075663624
In 8.432982979192207 11.449574954144948 9.781088086875327
In 11.220147530327916 9.86548157944012 9.83684565886403
In 8.568681530471803 5.325257771405242 10.099633985727888
In 9.778749474042712 10.473349551805487 7.04441899709461
In 5.880196900178016 6.854820766809496 10.043382806956762
In 7.338342094668581 6.1860313286391415 7.279460738417936
In 7.06520234537632 9.197266063024353 8.40109420904397
In 8.584488805363614 8.511291042205972 11.020466703076103
