12
Energy = -24.37481791 eV
In 10.597294502132778 7.961803512309682 8.319984046656813
In 8.830999918334436 10.403597166510416 8.29969206140098
In 6.591433468002283 11.264152073441473 6.421727260204168
In 8.540430997926522 8.550326932188105 5.758338483149624
In 8.699226242515003 5.849909581762797 7.249914324449816
In 8.608806793310015 7.105562061005792 10.432445039971167
In 6.691670525593957 8.178216949362756 8.199649949587977
In 6.214497278761818 5.3877872974859224 9.850641841363162
In 4.744042784489485 6.221376709340498 7.304151242310008
In 6.605395394712845 3.4156334640408885 7.176361044886114
In 6.8117203886552575 5.983551194450862 4.998075623364338
In 5.51999697649921 8.713045189342376 5.166237040101459
