10
Energy = -18.44994222 eV
In 7.516326003078491 11.892696460967391 8.429909653846215
In 6.95375978336212 9.197588937454505 9.71071449429875
In 7.086014324914204 8.967430604850376 6.646508115683781
In 6.175189313000838 5.760921500610663 11.27897569197562
In 6.182023689217892 6.46671958259644 8.297535139186426
In 6.5836921202015475 6.4116291560552074 4.572199763953033
In 9.784596397021089 9.183530946924956 8.117891352083198
In 8.889850406178896 6.77162812366101 9.72485350514582
In 8.85980282179103 6.451029276773844 6.637877597854727
In 11.956561970332482 7.030895509513616 7.921492493892887
