13
Energy = -26.44152377 eV
In 5.558589460553816 6.742885819813186 3.8045034703561473
In 3.8770576045841265 6.464917555016593 8.633597822548863
In 8.564327009208942 5.624557437233817 4.68422373456565
In 5.472572341269688 4.086777916730239 7.520554400594067
In 4.381023847789075 4.1003223524452475 2.3608916224371943
In 3.4571479421328397 4.458046346850812 5.36484267707147
In 7.326695450625082 4.803240464826385 1.8433698951249717
In 8.415089036571013 4.96360457183024 7.664680260756851
In 6.369512664881447 3.5009425870032578 4.7461254614162165
In 2.4313059143434264 6.41655540015756 2.88450947735342
In 6.701569984007959 6.249303134030672 9.922682407894117
In 3.0453420775458846 7.443573390497133 5.860639613352009
In 6.209702833486869 6.955209431439213 6.519314841782168
