14
Energy = -28.27750064 eV
In 3.468581059695157 9.683066344434122 7.81324994041246
In 6.264281700270539 6.48379065692023 4.235674622656738
In 4.839297278468818 7.10777465295945 9.196618852846637
In 8.576286336330586 4.578247016934457 5.1491921470919415
In 6.392079408552173 8.930702827147437 6.482868676220891
In 3.8269788954123882 7.129039028265277 6.097402742273073
In 8.854323141332952 7.609198149633745 5.991589812745306
In 8.977986945617399 4.8851937486591845 8.371317649954506
In 10.83386017387403 7.5668555931221135 8.453195464393257
In 11.339556495481714 5.455706484845763 6.245351834314926
In 6.233061198967445 5.325941089131268 7.197457567198404
In 8.989929507165156 10.088164443236012 8.203540727558254
In 6.094180222961868 10.113957345245375 9.396837942778259
In 7.825278555600797 7.42948580354079 9.51880278256011
