15
Energy = -30.9152605 eV
In 5.331563901209631 4.29027523061719 1.989666778328324
In 5.337924757091397 7.37497792695037 2.4798585543447826
In 3.1984040990680502 8.056620835819626 4.5645432038884355
In 6.7352774504034185 5.486748727708765 4.508920850752334
In 5.891925931439315 2.4988721363926505 4.493789062254018
In 3.3209243474290564 5.047004226010116 4.440442066919203
In 6.242520634913114 8.47853545658267 5.4249297243633166
In 8.634432296002558 6.676602373762862 6.535262151784069
In 3.7391248820991683 3.023127960308777 6.622932581687601
In 6.856796632874355 3.915267635270586 7.200837613343515
In 4.667986837725188 6.189958092708446 6.923411498583725
In 7.423528560553931 9.613257410878001 7.946660472840527
In 8.229817220030863 5.256559640299598 9.488336285221424
In 9.56130041813665 7.923712336251695 9.28519708928154
In 5.9684530015716675 7.308460980986942 9.235193036955524
