13
Energy = -26.46337076 eV
In 7.281395411606152 8.21028177534801 8.906394766404642
In 8.205051211154327 10.074115862981534 6.50468742219763
In 10.253823815936025 8.039377984687064 7.31506041860673
In 4.139248571408533 8.95749518724724 9.334814071002567
In 8.256647814987883 5.622365049978056 7.763058451492679
In 5.271596585689813 5.891721453311539 8.70737698793283
In 2.694128944421934 7.149872312450951 7.274771169140375
In 5.391627837158312 8.894657361908747 6.388616782984007
In 6.141376382408761 3.4295003255937555 7.122043888881503
In 7.808400093989888 7.276662733880355 5.193013477882969
In 10.637266172417286 5.551991596933838 5.447696566142749
In 5.139356427204383 5.961161082899694 5.491673064052087
In 7.915447066574267 4.135178492486968 4.8089922881207485
