13
Energy = -26.52185905 eV
In 9.182739265000308 7.896271587046913 7.369898018103998
In 8.995527023606932 4.994466059080711 6.642466790776377
In 9.873018650856048 5.695520727852967 9.638194948424912
In 9.589286042956292 8.844994418112911 10.374157841017885
In 7.689470733114846 7.289215767445278 4.727225057146689
In 7.984588979248828 10.31414976587892 6.012870019147296
In 6.924387842902887 9.953177052855125 8.828918408810496
In 6.498401219884192 4.65446473112371 8.53578045948113
In 5.264122453630536 9.43625882556091 5.029590682161086
In 4.313252171975722 6.689933805580062 4.0974377994301365
In 6.957290617660936 7.0744030114243905 10.212229393136132
In 5.978420036881798 7.409114785193053 7.289287125430817
In 6.143676286128088 4.703524494884771 5.444584321087648
