20
Energy = -43.36663384 Dir = /p/work1/plile1/GA_structures/In/20/all_candidates/520/
In 4.612313055620985 3.379734434646958 1.9421866201860023
In 5.521115979986207 6.4429626601333885 1.0610842186601945
In 2.7908475867904228 5.69368143287219 2.624275280923816
In 7.294355919295196 4.8979540615977495 2.995899256423814
In 1.382837399692481 2.7276763435192106 2.199875031645118
In 3.528034450740036 0.7431276284322804 3.4387259644343433
In 7.868068641052313 7.03407757587644 5.229179169378044
In 5.106003300251041 7.645071716973119 3.8742761511359887
In 1.8045538260017844 7.737733459677242 4.586553413036996
In 6.8426538332356195 1.5886236639942846 2.8609660820816107
In 2.556434174772324 2.649615317018497 5.541683954458031
In 0.4731163244862437 4.574949111666391 4.5755653889175
In 8.780242811360447 3.009040784905773 4.817490941430331
In 5.648613323008433 1.7374884734077776 5.691311376237828
In 4.023397551257206 8.63194933599723 6.524715453818613
In 5.520829195100549 6.390641815834577 7.677983661162564
In 4.898379544109434 4.724693749384936 4.927458401107405
In 4.140562713697013 3.229113864520174 8.164638550439658
In 2.527857704534499 5.652977373230215 6.795382773678507
In 7.2699039750892425 4.099008506393164 7.06086962092476
