25
Energy = -55.25889711 Dir = /p/work1/plile1/GA_structures/In/25/all_candidates/514/
In 5.074465970558136 3.367070678591376 1.1858364950389775
In 6.971578565879542 5.829459332741891 0.9341281817455879
In 3.2451894695795627 5.558804648443225 2.2948241035547383
In 1.027958376642073 3.4415871492662187 3.578058565495539
In 7.731165165934763 2.282776313309216 2.6211493807781157
In 5.435531608492208 7.703240056440278 2.913501191730423
In 4.122164158918913 1.7874628579068337 3.680351294293814
In 3.6069041740356957 9.734925576664478 4.218846011963927
In 9.152760038376499 5.161320849791498 3.091320500607545
In 6.1386233953057046 4.716952852760462 3.834619120066126
In 1.515076452952126 7.118103866573209 4.2422044767167275
In 7.884041352914705 7.431164988438135 4.786654837405355
In 8.817938669600556 4.039923176608216 5.975098675387828
In 3.578884180459612 4.441273653981491 5.256438873900297
In 6.499382300021716 2.029942832681611 5.605487087957674
In 0.8836949507724791 4.942672815657453 6.572552306864618
In 6.149363993729549 5.583737159119628 6.660433379848763
In 6.035158574602981 9.124410095562833 6.582009477504041
In 2.394327471513025 1.6817834824112776 6.401497775805778
In 3.6242567656845788 7.346312569711526 6.353904794866429
In 8.700684531680787 6.998335892680364 7.989994840782837
In 7.548448212565857 3.7839082450698283 8.921659859246038
In 3.0591459113745625 5.456690057870592 8.669192900581384
In 4.735398784240356 2.9776344211630246 7.937599566927257
In 5.648459537911492 7.041109040303187 9.273238914677872
