25
Energy = -55.01249522 Dir = /p/work1/plile1/GA_structures/In/25/all_candidates/753/
In 7.324815912869705 3.122406885012828 2.133932704254401
In 9.857390667272139 8.45631887604562 2.615063367035826
In 5.399893015179661 5.634579324375064 2.9948861277950853
In 8.39669963082784 10.655994244993868 4.514463985598634
In 8.68182877937655 5.518928201247947 3.4633978658923543
In 6.749624041132788 8.262270519223897 3.21601013588294
In 2.233400762277817 4.952585357743561 3.9242238025157783
In 4.831297707460375 2.7764102335472667 3.9626511792741113
In 3.7381798860070674 7.5655590064266 4.721493238946301
In 7.573670479751174 3.371055604869418 5.42331171984046
In 9.473736566008785 7.768541182496514 5.66281275558234
In 2.3838857714001924 2.0023844204158885 5.85557878577246
In 5.349137766851054 1.703046070503975 6.985252965577572
In 4.368011600038425 4.7940641343672885 6.371862852204914
In 9.67359670510505 5.055949344229803 7.098343904432351
In 1.587568923167055 4.487525921994589 7.4846379335428255
In 5.558574774107794 9.84561179861832 5.706842884281993
In 8.094824332659948 9.609678323813604 7.667228706141874
In 6.710624652378141 6.614133636500685 6.047541418207036
In 2.1617679315602647 7.418270270199249 7.349478067931244
In 6.804533142652047 4.059757082894866 8.385017609005715
In 4.404481864158436 5.836393809190722 9.433798515729437
In 7.706735419670381 6.942670153384155 9.104028926840883
In 5.012969890206104 8.475299535176804 8.285644566631863
In 3.7211737645257768 2.8689900493719773 9.390919967727331
