25
Energy = -55.4017204 Dir = /p/work1/plile1/GA_structures/In/25/all_candidates/500/
In 6.981550633059565 6.015539024919139 1.2493524178767403
In 2.1429946653033083 7.469529776749904 1.597534886511924
In 4.040491792786774 5.078262202220668 2.0621036701536535
In 8.134643054448164 8.559801650982727 3.843346870169767
In 2.679230777609807 7.284973518667301 4.633254978483403
In 5.763319280995485 6.512413536449181 4.341145770748093
In 8.640849652303393 5.310199250100491 3.8743461483018944
In 1.0793013712456065 4.654496434477718 3.4404088898952714
In 6.231725309376813 3.3524964791318412 3.2255471747981845
In 4.971387217252502 8.522884571269387 2.1683229850472614
In 3.219159982251431 2.0316548548519977 2.766850003135634
In 8.375175147791627 2.2039066988199263 5.205230927958643
In 5.033843848748664 1.4496204293817514 5.456554223488739
In 3.620566775472147 4.25509658750466 5.138130612546525
In 4.793027312999974 9.559570175427197 5.358403522820535
In 1.8392675262320963 1.9319152392602017 6.206571446987747
In 6.3336954156167495 4.407497767129549 6.453778284786342
In 7.041479327980274 7.883514151752458 6.87652049585696
In 1.0893788791613654 5.506304950375715 6.801079603203896
In 9.13290772581431 5.723859826005826 6.818435953217168
In 4.0890795290012925 6.827952529015745 7.266653880879778
In 8.52348082051699 3.2898096707317936 8.49916929822103
In 5.8997881545185535 1.881729758900458 8.379233740823654
In 3.5431327551930143 3.8707487381593153 8.274157991997521
In 6.141287757707529 5.756986891102717 9.404630935477865
