25
Energy = -55.14829303 Dir = /p/work1/plile1/GA_structures/In/25/all_candidates/948/
In 8.160463230160287 7.52554778994993 2.6730115712740585
In 5.489811433155301 5.7646791711771215 2.048998956647234
In 7.522871259809915 3.652430681546795 1.9800062950735355
In 2.168360986507566 5.707249328180065 3.6420439222801995
In 4.319287402714773 3.6012212212228594 3.9399122147881207
In 9.770737979423469 1.7573258004157248 3.3610909541051495
In 7.137322639605002 8.713180505134583 5.366498289761373
In 4.593857209102705 8.039864211735509 3.7132520287591873
In 1.8242723265328467 8.451452486464282 5.022342649279454
In 9.740676218681049 4.957884731424964 3.7909053192608697
In 6.827708192134441 1.919483268570177 4.5639220294486575
In 6.994564403755738 5.340519463406557 4.968595545551728
In 3.925716127382122 0.9710949021820655 5.700455800284686
In 4.364160540173342 6.110593661682203 6.185690624033834
In 9.637359934592512 7.0675099063269755 6.183678957408
In 4.452273108099539 9.46312016037016 6.602998040766829
In 2.4210901315825413 3.4753234190587605 6.637118067899568
In 9.265468963117616 3.071466509630999 6.272821391515599
In 1.6050699999979205 6.2514209874506586 7.340961288406677
In 5.688056430821112 3.164698196075384 7.1688712348505845
In 1.4110936455080079 9.630154200339524 7.88511965682645
In 6.42450417746428 7.472571937297835 8.134643415749702
In 8.020231089904959 4.994435435900698 8.101969612573281
In 3.5687883963381033 7.86332786395366 9.284678814132642
In 4.576435840380663 4.943625827448533 9.340594986268018
