20
Energy = -43.62623431 Dir = /p/work1/plile1/GA_structures/In/20/all_candidates/119/
In 6.0545798699626046 0.6192679000662666 4.06167872177919
In 2.5701650262845965 2.7962051914046127 2.0754105488611185
In 4.168461638167063 7.857962326236516 2.119218970733548
In 6.101343118947053 8.991320611168137 4.194827696933226
In 6.147748080745915 1.3271540835177307 6.9262228013838
In 5.193670450019502 6.108234092842466 5.011183273849052
In 4.159626073306686 2.9355544765299326 4.569383750442139
In 8.226464692911568 5.78045615785543 6.385861971011455
In 6.582913339407731 8.282762167845224 6.993823952324219
In 5.449101860025836 4.232264963077466 7.3396484189830185
In 2.9104743483309505 8.210337395485231 5.329295529651296
In 0.9025594101932229 2.727264269027731 4.740703059575899
In 7.236992118950659 3.5108853335964505 4.46319839423445
In 8.001402650641582 6.599509324074904 3.4369177878353865
In 5.613938379139369 2.0701674085671256 1.5099308946268266
In 5.387812173859771 5.010995408888175 2.206300078270889
In 2.34672978547184 4.94743434209395 6.484358896909679
In 4.0402521461677665 7.034537201506168 8.00874971825657
In 2.377680770163638 5.64034649051845 3.52177662073837
In 2.954187660052755 1.7434444484491487 7.047612506350479
