20
Energy = -43.32990862 Dir = /p/work1/plile1/GA_structures/In/20/all_candidates/61/
In 5.139935346914517 7.282985765428533 2.30184566424341
In 2.8541119654048526 5.027168128885234 1.755698337460725
In 1.8297326225355275 2.4909789141330734 2.78917907576513
In 5.994706474156666 4.3395741811894855 1.8095442675086482
In 8.328670484598517 2.296666954159244 2.7442852170064644
In 5.000661756524043 1.575208679811533 2.505896711164487
In 2.152068121281146 6.812697071833962 4.251267702859009
In 7.576672167785591 4.956439040203645 4.3805804848214756
In 7.827873870390189 7.9844147703342525 3.7699313395748857
In 4.162591117798734 4.089467804941446 4.524759202879498
In 0.9104681532166358 4.0696722179541105 5.2930452826058785
In 5.154283498352736 6.9464142341415585 5.291334565811957
In 6.486238623135034 2.0683309165645505 5.27106694343988
In 3.2678050185190917 0.9116165530031692 4.952728516874265
In 7.8063337477593855 7.212179744749803 6.832010458882358
In 3.0543426817845916 8.55200615967349 6.7839193489172205
In 3.043054640755348 5.380406987391667 7.264170492801298
In 6.244828392895201 4.40315855730411 7.253130639698793
In 3.8422159712244772 2.361635523934376 7.465929866706157
In 5.255483098862976 7.171055548258097 8.691753634873661
