20
Energy = -43.47685987 Dir = /p/work1/plile1/GA_structures/In/20/all_candidates/835/
In 3.189186141040241 4.09097220849306 1.887033813567623
In 4.916236682255718 6.465515427213312 0.9707417000228108
In 6.034724567958319 3.7896232904816394 3.093934123646817
In 3.6278496706163885 1.1837539471062677 2.8799575251363074
In 3.439123461853945 6.5145841528561075 3.843990359625886
In 7.329197337102465 9.18193163617825 4.722858525766897
In 5.845239724972251 1.4894127615958468 4.93621568565971
In 4.827993128837256 9.168152660894473 2.766069599927898
In 2.956560008934516 3.7356928034681913 4.990120441224425
In 6.972433513827636 6.514086368929681 3.3563086441394248
In 5.594293098015771 4.858253540547433 6.019310993256134
In 4.8161131271134 7.927708165636668 5.987185925508137
In 8.203902819462327 6.436563941217589 6.190703803423381
In 2.5122220278749645 5.9532075059616165 7.219679069808169
In 7.275937364496594 9.442462725971414 7.788520082755371
In 7.423075817740441 2.6290510990672598 7.143749631760516
In 8.249111438680522 4.958318830371117 8.7760042311249
In 3.710732316250209 2.0568277161026076 7.311444707266943
In 4.962650662351841 4.1401732096476715 8.95227386074369
In 5.647522189098 6.997813106742992 8.698002374117754
