25
Energy = -55.04436566 Dir = /p/work1/plile1/GA_structures/In/25/all_candidates/155/
In 4.633434858270832 3.6308911524737626 0.21102594514832
In 4.276842131018674 6.777804124334088 1.3989371409674878
In 6.816651225443507 5.134158941250616 2.1423176055192137
In 1.2647525923529122 5.955111027557592 1.8595589998047228
In 6.094386544405964 2.162190192524258 2.7403326377319823
In 6.013570448698689 8.27881336591021 3.5319697961790926
In 3.294325685097803 0.8829432600325491 3.0665838511205843
In 8.196651355773358 3.4311506885340957 4.681191599704508
In 1.0097167570613381 2.9301692911873527 2.5392032440762007
In 3.7281392445490997 4.206119241831148 3.0770984333797737
In 7.772911699492781 9.477259654473748 5.797794053756017
In 2.870778004711506 7.036324247378185 4.384412554351668
In 8.480175561929713 6.533981458032219 4.436597613458602
In 1.533008521026144 4.410776277118429 5.333265585846984
In 5.572058202801012 5.387647265375528 5.046861101114999
In 3.9361299089821276 2.540306431126499 5.6457623481398365
In 6.625221433564914 0.8495043848619261 5.8539368435071895
In 4.771305938381674 8.349869435316998 6.602522846750492
In 1.7885798234954848 7.4247474012639065 7.39216785570535
In 4.270830020998518 5.519711690793828 7.858087562208025
In 9.812454359505018 4.697723096832595 6.994589400930972
In 7.274257457977146 6.693420734187553 7.384180349542408
In 1.5657973603361102 4.179178730699929 8.336696397501132
In 4.192812978885942 2.401286760069352 8.607888475343707
In 6.774032611067418 3.677735872661763 7.645842484038703
