25
Energy = -55.30933885 Dir = /p/work1/plile1/GA_structures/In/25/all_candidates/993/
In 0.34200282622178224 5.572271772073183 1.8723465164948172
In 3.6514919519885543 5.848820906917821 1.7226192336304935
In 5.467400783866292 3.387921058020988 0.6621881126408499
In 2.094536914713238 3.1186038602854453 2.0602939747014
In 3.694406773459788 0.753404150256398 1.2594623007815589
In 7.708096434210133 2.6779173374910417 3.144852107412729
In 5.203602745215447 8.474835706343162 3.1583740640931746
In 6.59702762748177 5.631493172639423 2.5248675071923583
In 9.628392722457598 5.038571088274705 3.630069501850439
In 1.824952167073337 7.394688874055 3.786796764212687
In 4.6566151143275825 3.2754436814959993 3.8307165902185294
In 5.664590400024816 0.36603655453709233 3.403747000211935
In 7.742813227535673 6.8945233826002426 5.174912952900879
In 2.3991485746018646 1.0235563486830215 4.694097032497999
In 4.541379262509237 5.972833010011522 5.07398996778199
In 1.5023358551009247 4.403050565972174 4.879241818711142
In 3.0920348372430495 8.691621592093203 6.027981840265613
In 6.053271043593682 1.0746876010314133 6.2322217175204635
In 7.294593335686118 3.9275788411265946 5.96060876384926
In 3.6320306168368583 3.0462288241498814 6.77415038576292
In 5.883128773150998 8.31964344387905 6.989132354108092
In 2.2685046350241715 5.917428710501443 7.436947788658983
In 5.554836475520206 5.391227578477294 8.031266218406982
In 3.8571363499697378 7.838719458991812 9.359510202132181
In 6.248319013515406 2.561540941420235 8.912253745290567
