25
Energy = -55.27709385 Dir = /p/work1/plile1/GA_structures/In/25/all_candidates/529/
In 2.6191533454653424 5.274780317273105 1.5846461544536057
In 5.982571159137685 7.0896592666710125 0.9659945295331783
In 5.372768780888197 3.7567180892314305 1.3120023887916799
In 8.316025420819196 4.14622172754091 2.4853668880089073
In 0.4402794122144752 3.5672046560591038 3.308035565480758
In 3.498019855457065 8.036977508214676 2.8687630573327456
In 6.158281241371291 2.3638563848173857 4.099788031250942
In 3.332119177148298 2.7028922423767368 3.5902524482810523
In 8.220889056663339 7.151673075521205 3.522466688229263
In 6.041883306699458 9.29469922186476 4.230519957748769
In 9.192162177828928 1.907200278298811 4.628880961784612
In 5.4466066814808425 5.679893592487551 3.8053367402809943
In 2.19269925749917 5.766793828607535 4.724673444316246
In 8.086828917037497 4.685554959248037 5.617122842795559
In 3.994271466492613 7.673375049612273 6.026018406962057
In 7.37614429445906 7.288148371344162 6.642223765541598
In 4.167900149347539 1.408233936397599 6.429876982056091
In 4.837178373500293 4.492757336716214 6.410980034598455
In 1.498365590661609 3.091352572703742 6.348208971598186
In 7.203270035431977 2.029424816512649 7.149510462010261
In 5.86847223305206 9.77002024640777 7.4385330174413475
In 2.2994413664959428 5.70978717320217 7.932367422112362
In 7.012654817910577 4.810607518765177 8.681347310552797
In 4.906423533739813 7.100964573707504 9.00424284600182
In 4.0157744283412375 3.2813873355613548 9.27302516197961
