20
Energy = -43.22042023 Dir = /p/work1/plile1/GA_structures/In/20/all_candidates/533/
In 3.8107862613669514 8.496031653234786 1.090192283986126
In 6.537902778909369 7.056096448804268 1.182102584053642
In 4.02084968000589 5.167759776337567 1.6716544066539423
In 1.5236685002200723 6.939690639656047 2.516438696520246
In 7.889483313989728 6.663759150998157 3.7841353963102535
In 4.725584106567787 1.8901743270079605 4.488343256778305
In 4.699618366629423 7.2632400541646795 4.0004051096649285
In 6.45110476940585 4.058797920974122 2.9633935418285002
In 2.7814232512291563 4.289175896827172 4.279063264083522
In 8.247042438394006 2.6739686112657712 5.037482047512568
In 5.546097927268807 4.731683582370956 5.938309027460878
In 1.9321669670231425 7.023102086953657 5.468590180028135
In 8.446216843590468 5.784947267906707 6.540135709613942
In 2.707496612322093 3.0141840160797364 7.065243701691151
In 6.024316230223093 8.069396965022111 6.4906053482863335
In 5.8730754101024925 1.8843459498136022 7.204881208332693
In 3.526651124457692 6.238762326025838 7.786465009838122
In 8.32609697644259 3.2504125925966654 8.297836593651118
In 6.435485284063509 6.046146295394894 8.88635809744241
In 4.618153781218927 3.581545061996388 9.43158515969425
