20
Energy = -43.72902498 Dir = /p/work1/plile1/GA_structures/In/20/all_candidates/551/
In 4.542859935899338 6.642324767964498 1.5574104519787177
In 2.1590529004238133 4.383525524663281 2.7345809493978495
In 7.465999489050659 5.667132645800315 2.134027687613919
In 4.912096699659128 3.6212655592073717 1.6855340484096712
In 7.463366335468329 2.892444881092697 3.425026962225609
In 5.599487387439638 8.634438641078383 3.591067486743198
In 4.501308253549912 1.6994622893341902 3.9422211128364038
In 2.1770934397671033 3.02785175235611 5.425783737242314
In 8.163463951760656 7.292738233094556 4.549537331752052
In 2.4535329954111824 7.251298005703209 3.6787057601640125
In 5.061293281070589 5.220798280846991 4.921813874790538
In 6.694865151889528 7.720648624891211 7.11526484112056
In 6.414125093376527 2.2851406519270085 6.332742789598122
In 3.8011840272948874 0.36458819179438334 6.742252615769968
In 8.577106185824444 4.549059805125867 5.71479396195752
In 1.6289304342936097 5.86427998797423 6.252660925769915
In 3.850709767062235 8.515060203012565 6.0720579995443815
In 3.932910281513503 3.3324116687994474 7.9065709997150195
In 6.7773700787063325 4.844386240854981 8.144026772513374
In 3.9379441712292578 6.305843905169147 8.188619551546898
