20
Energy = -43.28755978 Dir = /p/work1/plile1/GA_structures/In/20/all_candidates/384/
In 8.270388250349356 6.744581531605409 1.3257303063182693
In 7.0888233742144795 3.9977625442250178 2.3481994287968972
In 2.78916482825116 4.561596090469327 1.8360743988555686
In 6.990785387381341 8.295124523703942 3.831522727044963
In 5.0147726843177 6.493018019515184 2.3220295248019607
In 8.686315389544921 5.59915624486802 4.437597496095557
In 4.8538768792388405 2.815915020428287 3.9855921045889637
In 2.5874481802595746 5.068218466392398 4.7987080927106405
In 3.397318703473776 8.27101219400101 4.571636704946154
In 5.688387915785042 5.548407417160363 5.1573683600525575
In 9.291739296590578 8.166798721121163 6.1619096891541485
In 1.5889327273113676 4.483608235812762 7.6648636753031845
In 7.6297013326484 2.571753410670365 5.725724917621036
In 6.096146190809796 8.220412028049902 6.725175794840679
In 3.671511280440712 6.614850833346679 7.465851011949769
In 3.2711662395023033 2.0978057972669704 6.4264896705841865
In 5.431023474753708 3.731334386527604 7.689715471122078
In 7.916534948597075 5.610576441615382 7.479767457660441
In 3.5165731257469317 4.3679718403351995 10.08269876930197
In 5.87595169116354 6.39665815326547 9.619906298631186
