25
Energy = -55.23694779 Dir = /p/work1/plile1/GA_structures/In/25/all_candidates/453/
In 3.156360757857239 3.401340690550253 1.304791330861229
In 7.619115762155483 5.774276422478527 2.778168690167358
In 4.250431379559564 6.338005760143036 1.6783903774167277
In 6.360685431167678 3.0945093799082297 1.4814701812138644
In 8.470229140105843 8.302877848957287 4.917148710544516
In 4.895489822579708 0.9580568391178902 3.8399200567126246
In 2.2752823634015273 6.147005384548073 4.080524247871538
In 2.0069206068028027 3.1457539985252345 4.07022569499497
In 10.284480431866953 5.0518304685429545 4.445748864126964
In 5.002743232071032 4.166480932057471 3.966679901026722
In 3.2369429815884865 9.175690205398954 3.140275734464211
In 5.5374930971024305 7.375010212785281 4.275021699868131
In 1.0925429965170053 5.284347049283498 6.993349621090479
In 7.544559512200694 5.505650355385572 6.024288411733075
In 5.460495826405002 10.32457316943922 5.5380641379926185
In 7.946238713339792 2.7634406154204787 4.18910173756789
In 6.053092693266813 2.3452257366200113 6.56505967418937
In 4.303827229624335 5.200665443256302 6.56776177844043
In 3.0482290958710356 2.308274668478055 6.711919558251843
In 3.0290109069985753 8.200438722860946 6.243568781320463
In 6.137401525230532 7.791072782554444 7.420476776397719
In 6.568498032709083 4.490730013084491 8.760094709325687
In 9.1977907218806 3.108695479741812 7.168175184134739
In 3.502136502090332 6.772819526371177 9.018036323557167
In 3.604563313326412 3.557790370210291 9.406299892449042
