25
Energy = -55.04561911 Dir = /p/work1/plile1/GA_structures/In/25/all_candidates/1002/
In 6.025102787188906 6.005817611542973 9.732343507561225
In 5.3618559574223985 3.2538034137042118 0.8739151722417987
In 3.4300739453489673 6.00693271501822 1.1922441997363242
In 7.955390012842652 4.9398828770388326 1.6790748608258927
In 6.070517850273509 7.434119359605116 2.294581653455893
In 2.6380874979658824 2.5601810779270475 2.261681374659964
In 6.093297251635537 1.3651029547329263 3.3781799188395283
In 5.108462994539306 4.560974203085891 3.5867340703641455
In 1.8938761855572266 5.372113051945083 3.704230044611086
In 8.076216770415725 3.706577781732578 4.398931396914469
In 3.6576482487259874 7.85869985965186 4.19216866138371
In 6.275830548502174 9.828810882737555 4.361972580864496
In 3.5570351831586815 1.9467768676428985 5.121795825480198
In 4.397978248889442 5.248824529637757 6.303376310688719
In 7.381135545601759 6.765770030472514 4.974218416185426
In 5.366989093233406 8.381756133835738 6.978398866684401
In 9.285314774629958 3.221128483326803 7.194618427374529
In 1.9272978695335703 7.182132517502669 6.676216547065581
In 6.123558843272289 2.6093302026663343 6.599418741483563
In 1.5025174705337399 3.922885438537539 6.309276522762774
In 7.286653672783186 5.535994082570901 7.64108670379387
In 4.570286300441863 6.286837622727749 9.130076851770607
In 3.59530452684524 2.9355282111771324 8.425688887898946
In 6.474467501728706 3.400280177627584 9.732343507561225
In 1.592043295301616 5.316682289923685 9.261150732023921
