20
Energy = -43.41580295 Dir = /p/work1/plile1/GA_structures/In/20/all_candidates/92/
In 8.193115872585397 4.737308365811996 1.5266988956159637
In 5.487284933352248 6.267270145585941 2.140500503934073
In 7.8704549265518 8.379424020847573 2.854678055681546
In 2.705444575391243 5.413174388975795 3.2890020683171293
In 5.473381620523647 3.358133434773484 2.86326021753692
In 4.110250519662891 8.6873425705253 3.3653196444511315
In 8.451666838220229 2.8588901238855 3.990112763202288
In 5.956262440478494 0.7163560622433476 4.581182615789588
In 3.3603507907999526 2.788905643259388 4.826030622727709
In 6.253018163731605 8.46912623557744 5.64262137630642
In 7.848819547303305 5.861685030148641 4.683953281716048
In 6.642239700060533 3.4800876758470127 6.3413246769391725
In 1.5384800720194631 2.000661642227947 7.4972641186406195
In 1.5297895151617504 4.8935391426898684 6.28112171789625
In 1.9713296089667887 7.810030535960144 5.293979470907036
In 6.882276784768439 6.179617021921574 7.813381346140858
In 4.616794125042464 1.6036626879675708 7.484688353502622
In 4.785436356555352 5.782877880157493 5.319872261686649
In 3.870223734663937 7.713347116805243 7.681922724371466
In 4.062012861865265 4.607193262493404 8.131718272341411
