30
Energy = -67.07285296 Dir = /p/work1/plile1/GA_structures/In/30/all_candidates/1142/
In 8.789693537862025 1.4964346805050894 3.409668320994152
In 5.3768840119249015 5.9110500077372885 4.200779410126043
In 4.579038028461355 5.658746418727566 0.8234145959576521
In 4.056474012585261 2.683033706585675 0.07810324231943401
In 5.590377216978799 9.13115324950426 5.100785047016918
In 6.386117884019767 4.314520525934328 6.82648069657719
In 5.328764427941149 7.018345808477649 7.636052951539847
In 4.567070216894649 9.971423373740123 3.3370739426902523
In 4.003676874498399 9.635357612319197 0.16701530771907294
In 4.2517626752358275 3.1951005208055454 3.242750091447191
In 3.5873432528718614 9.635357612319197 7.795585821871224
In 1.427153477431048 4.277136422526775 0.9312040202753111
In 6.448496697391398 1.3546939078661309 1.5008179326188138
In 2.255204235689367 5.992306452075656 3.2562477547579585
In 7.1425675741641355 4.318232661814596 1.8276563086084174
In 4.204474282502002 8.34323998216259 2.3844775748396665
In 2.023805859237095 1.2140614751043257 2.109175010937879
In 3.3423282513134467 4.522533756812033 6.006885087836295
In 7.406256759974221 7.408781180914287 2.213152245284514
In 8.547398604773093 4.385620640305617 4.515035493398466
In 2.969336683009916 1.2375271936146708 5.569678208146045
In 6.4341183289633115 1.4755686316081593 5.330694871772082
In 0.8513584869547861 3.160866432052979 4.1476410616954364
In 0.2515304231260785 5.707002125515635 5.912587992562582
In 7.899564297910111 7.073045561222508 5.745100979319425
In 2.641775551876464 7.970773642052173 5.403484629611707
In 3.9384251799705927 4.403364939277105 9.149598465610964
In 4.858695822633582 1.7552123909802468 7.953634304141121
In 1.2724684478105075 2.823641314406437 7.69653396182338
In 2.1260901510961756 6.69992358949936 8.286935923602648
