30
Energy = -66.81707947 Dir = /p/work1/plile1/GA_structures/In/30/all_candidates/1776/
In 6.188201956432867 6.30154303220988 0.9723300161346204
In 4.869551920677379 3.54925894815573 1.8722145115413178
In 7.4196543803743955 1.2875567298190447 2.9240929552912327
In 7.8734604215143325 4.287357325733891 2.9224922606525534
In 5.285923960474901 8.900968645756674 2.508480245439471
In 4.305702965747356 1.1677737225260736 3.8500016263409815
In 4.728619635849917 11.73420264159974 3.9614287413457236
In 7.444454657087742 6.945940497689607 3.990228226475899
In 4.329910932818873 6.066691622098103 3.61549386828479
In 2.521306221213549 3.7591892374211167 4.3996057752427085
In 10.236454021964468 5.5699095065268445 4.92919104188003
In 5.6910445789762925 3.748392243872906 5.186707712361024
In 3.1476958929617602 9.127056324001186 4.831939350816178
In 7.253703169403829 9.869854080606931 4.684330505167225
In 6.539603044138053 0.6696271698753502 6.105418569074107
In 5.162502422224485 10.22387713649891 6.913169396547014
In 8.280119292132644 11.052197986714472 7.4839152353090395
In 1.7581586405165173 6.516519826599582 5.560433928155104
In 8.85271381078873 2.816539681879307 5.657619744613834
In 1.388831473146799 0.7970737930083704 5.093509674287234
In 0.7289060844337432 3.376652438838283 7.045197695706974
In 9.219547948972048 8.15964307059801 6.387791430580325
In 4.930728120357188 7.220394783783229 6.5972328049787246
In 3.6693655583277076 1.8727253379258555 7.037690023484079
In 7.624434927471554 5.434867395976618 6.910370846217701
In 6.344314698276222 3.0007070995944978 8.286472673094277
In 7.037813774741759 8.398835262767133 8.672594256260215
In 3.450413919482226 4.884287524405605 7.573631837516484
In 3.866316123254927 3.0857495869182237 10.196342085039593
In 5.566488796539948 5.890550696900317 9.546016312462372
