30
Energy = -67.10161351 Dir = /p/work1/plile1/GA_structures/In/30/all_candidates/1308/
In 5.3382255507063 4.257524902201643 0.7876094051571242
In 7.218180618560979 6.762707841609158 0.8912316918153323
In 4.751917510349214 8.688563100261565 1.4554214789692401
In 7.546560273661132 4.389228829285214 3.1222125803063143
In 3.086685998640592 6.317110268370835 0.6649118578560435
In 4.014136459474521 3.399862202133872 3.444295378120121
In 8.101788885258125 9.739526962054683 1.8146036384134119
In 4.887675079442748 6.388892218225002 3.5462457236722598
In 6.3516838456471465 1.3963805436549999 2.5797054607487877
In 5.926586389003684 9.474866359576785 4.097556940378915
In 1.5003261480876637 3.3206977366107013 5.467102413481434
In 8.229965172697483 7.27733088608715 3.854326564615635
In 2.4988176934985638 8.683186962002056 3.8473556791201746
In 4.330947437452842 0.8974240284547215 5.126135588316535
In 7.089145207602351 2.618059028635299 5.472113300941728
In 1.7082618014863094 5.473025561740637 3.2919105563142925
In 8.317003797891395 8.639849993540226 6.622573839368745
In 9.479264747949395 4.890734217635259 6.007533237285605
In 6.480576520863706 5.92308983712003 6.098077283519764
In 2.632739184597896 6.464203651847838 6.1015997978885
In 4.386296238508359 3.7920828755899985 6.587315422207199
In 6.089466110199406 0.7233252418945747 7.927820163748909
In 2.309362747410887 1.085632327202444 7.602023086201481
In 7.316762134076633 3.7763978585219893 8.267211512573114
In 4.887034738438481 8.527809125478994 6.7527146000790905
In 1.608160444203295 4.528589488945369 8.476591364140235
In 7.606647154694614 6.923104451603398 9.126850406424925
In 4.31641371432235 6.216178886676961 8.746063734736387
In 4.215588588375126 2.7882117659441414 9.442776096115733
In 5.958110250041318 4.820733290236421 10.96244164062477
