30
Energy = -66.81871577 Dir = /p/work1/plile1/GA_structures/In/30/all_candidates/801/
In 4.797465880149216 6.985177887232255 10.200552395995455
In 5.669407901872183 4.140215406771335 0.9411790708366936
In 7.452018921663389 7.6165008785750885 1.3729038866410401
In 4.149975969861406 9.387378163755553 1.8086501304811688
In 1.304545395726905 8.050784488103924 2.580892680079709
In 6.816990106140642 2.0971856058068403 3.214172848208971
In 3.952735637923331 6.328348179365336 2.6782168728044526
In 3.9345369330088933 3.4464617858769064 3.8748930116349163
In 9.272332534434971 3.7789913194580955 4.70558844176153
In 6.33138914335146 8.63687953594162 4.101372592783436
In 9.58700354307571 7.2093541865382935 3.6993503626970474
In 3.1325987162866964 8.87884830933285 5.068385912662706
In 6.912730190373834 5.404197778266245 3.451827685737595
In 4.675203844361207 1.1904774865986032 5.998513346244409
In 1.6818110093590923 5.726359647926638 4.947562030138131
In 1.4653266230545459 2.2014401536998514 5.587092817670715
In 4.847590548538392 6.398248074391592 5.602800225860436
In 7.93780888178983 1.0658328857092458 6.33713550776856
In 6.434716300322764 3.8098561166181257 5.966954931319237
In 3.562239307003032 4.154503856625464 7.012841462285923
In 11.067572190171251 5.838824424955676 6.178128918300145
In 7.901893753160302 6.76217113559261 6.38289726584803
In 0.5905972044607114 4.524580063152377 7.891495830382083
In 2.7878432572211236 7.191627025340086 7.883056447854433
In 8.71022617641893 4.020766982697649 8.121038731595036
In 5.943784186660538 2.6970271946739426 8.838125726261802
In 5.720111687200421 8.993388082390357 7.389466016284199
In 2.850630753387258 1.62057814435902 8.66604604733454
In 5.877422176640139 5.937818239414693 8.648054145657673
In 3.4227358289402696 4.697421563387998 10.11902424513869
