30
Energy = -66.91075082 Dir = /p/work1/plile1/GA_structures/In/30/all_candidates/1255/
In 6.062054731741566 1.4360171174299083 0.6932261132458521
In 3.3019144404315837 6.200267367233035 0.41864588678633663
In 5.621504546638955 4.3102838506084 10.83221261830123
In 6.6776989199761845 6.151673333721809 2.0547045138733004
In 8.551174235746242 4.070644289876857 0.9322310201215428
In 1.528314586231628 2.483758225431681 3.968645954996456
In 3.879204376760934 0.7496693152998966 2.698270186203687
In 4.102940646354301 7.351796240940765 3.233868081689411
In 7.053345273295033 8.386086440084009 4.300257761172183
In 9.01152072540064 0.980356635616336 1.567105828379563
In 1.2781805388264964 5.556434685392409 2.710468500778181
In 9.021170106482012 5.752656641092826 4.308139632107519
In 4.09243500194393 3.9089453222179515 2.4444022451076908
In 9.906831873394289 2.782256922071726 3.993694214240103
In 6.859626802923475 2.745663173006268 3.380333959014003
In 6.03379137015041 5.207152570777431 4.971138973171203
In 4.616437108163458 1.9993922480235746 5.41863143101004
In 10.974538229550875 4.9700208611652 5.726153314121555
In 3.139421733167339 4.943451861743595 5.317117280200172
In 1.680400131109923 7.8542322760243195 5.277275514335454
In 7.730478530885439 2.8572965383626725 6.464389266707534
In 2.156914915304606 2.715220315558771 7.350422180658868
In 4.714711627899414 7.740422403203895 6.3671401232379115
In 7.687561129306974 6.2603182550941865 7.363881168622872
In 5.225146633097128 4.101046821367978 7.832016949503908
In 1.9329909299321213 5.90731813260307 7.877894252585919
In 5.139797721426252 6.960783998922318 9.270182780236027
In 2.27656057395208 8.939718939826369 8.122826846211915
In 3.038751145859831 4.091212255398664 10.064055510884907
In 2.496126139852505 7.266350322136312 10.83221261830123
