30
Energy = -67.04255092 Dir = /p/work1/plile1/GA_structures/In/30/all_candidates/1132/
In 4.5957129386164075 6.371787185717586 1.0024141048290705
In 8.638542799840552 4.618291228838998 1.715395170989323
In 4.668604770045277 9.580591570487465 0.9360130996770886
In 2.880188902798066 3.7157862431951623 1.2881246370765296
In 7.383067048272185 7.47507149940097 1.37972453227202
In 0.9252542638699425 2.178307066619553 3.2085346033094533
In 2.9284547599508937 5.113717377501139 3.9868310194931484
In 3.583353628989689 8.209194971789291 3.558713280242764
In 5.853538736972148 3.539496153183862 2.2624986736954127
In 6.180972347532583 6.280750695143069 3.9757805769123324
In 3.9122024471387435 1.8594227322085641 3.9268987766282777
In 8.946347124698809 5.064837743840445 4.868811754025024
In 6.498244150892011 9.546210134432217 3.4760050043458826
In 9.699090533788155 7.67873502184904 3.4094800494721342
In 8.119997412071827 2.1496682731065535 4.237442174841491
In 5.839925923722375 3.6814838658979125 5.629842449051022
In 2.4957363782403297 1.7735446131141628 6.772369873439735
In 7.970682588389056 8.408695405059015 5.956675441965869
In 5.989440912660904 0.17048615615360702 5.458314496731343
In 0.5289532393092152 3.996454162573163 5.620526333824255
In 3.547998907229555 4.812935677905221 6.9422345946529145
In 7.540587003804915 5.762799925054363 7.479411497167611
In 1.9461935912895107 7.431172671315442 6.015290189481325
In 8.292532895511458 2.640005757757602 7.570038331682531
In 5.05381626971461 7.718897394466411 6.667989214296868
In 5.319790430519934 1.6993162160022022 8.038599009463578
In 2.6957529740727386 3.2902612090643926 9.66869934129233
In 0.7845577976949792 5.484282787423364 8.234845233080279
In 3.4638102297511972 7.075469665967919 9.214792042080418
In 5.565488820555919 4.521166422874238 9.346544321923998
