30
Energy = -66.97165894 Dir = /p/work1/plile1/GA_structures/In/30/all_candidates/1165/
In 4.9085581824304185 5.091141023722798 1.0890825785179086
In 7.237858468279932 3.087880103462073 0.8142659744186094
In 6.097487200218157 0.540160022944501 1.9823934580594298
In 7.021537916543733 8.007698880292057 1.6783857110749214
In 3.536531029922008 2.2101392175340293 2.119537858965319
In 3.5875072438595144 7.9658954046239066 2.511234357748848
In 3.190292767524681 4.963842131791427 3.6954687177060244
In 5.858799907197276 9.258049179955181 4.732805579650746
In 5.976004706023475 6.127112353203048 3.8793901740570256
In 8.701073143499812 5.0208388654636895 2.7312918402681468
In 5.124313956855026 0.12166196199420838 4.79742488665814
In 0.6921810605454035 3.4651198927188958 2.9414191407961687
In 8.767807815521977 7.541513389805951 4.724770099998514
In 6.364372670078008 3.0135349494019374 3.8995301794612214
In 0.6064660521773344 6.694421025593149 4.191050825837847
In 2.8489498998077827 2.131808847018178 5.270330757012849
In 8.259370401100593 4.372758445357951 5.912057699287512
In 3.300942243281527 7.456231636918383 5.703062782562205
In 4.836814117894583 4.333351240052505 6.245942554240355
In 6.678421693383269 1.7524265113711515 6.920896209570997
In 6.4238464819915455 6.809930911404281 6.824018931329818
In 8.025503108886756 9.457987040301647 7.323555800126195
In 9.430587901482342 6.299079940710213 8.03219629286723
In 1.6650060139590093 4.82842178269894 6.682167636971675
In 4.697103944667906 9.303102112589022 7.6909044520786685
In 6.665000603818101 4.269391559054441 8.904600910799141
In 3.608088192463373 2.615579454044995 8.576293905198742
In 3.857344490122179 6.16054853995918 8.689574164906574
In 6.851019333096501 7.347789274960171 9.810784237725139
In 4.337151942957076 8.908526790642458 10.781504771693948
