30
Energy = -67.25513246 Dir = /p/work1/plile1/GA_structures/In/30/all_candidates/551/
In 4.670629040133121 4.630535161941154 0.5820219625505386
In 5.630977084785078 7.4806225904712855 1.0505523359082192
In 8.034244654186864 4.7766508985126475 1.0887862966598205
In 1.8915155060758406 5.4712192749847075 1.809210874145153
In 3.3476141920308677 2.7656688205051307 2.801490742143809
In 8.199615082572107 7.545470461626834 2.748002301507055
In 6.1291509494914935 2.100984571521706 1.6158612363295966
In 2.8819105696251195 8.251600412155833 2.5036768434344174
In 5.57622274864667 8.444245652068487 4.127693896037263
In 6.1136413114350345 4.935333003862387 3.5915494456925807
In 3.4053444298823634 5.777821952352299 4.939356647736413
In 0.714888682017999 3.782629180352472 4.0970988861321835
In 8.442905837869969 2.4608183427876287 3.6185831890021163
In 9.66096621223528 5.19960167155803 4.140731916797131
In 5.53951734181432 1.519246719910843 4.619179840785353
In 0.5074749912382694 6.995098300755389 4.675072243269152
In 2.867449135006118 2.4339070825098084 5.85313441896746
In 2.862091577464091 9.142987768919456 5.460504063957527
In 7.836277130053377 7.17663057893129 5.803435993596544
In 7.952289597184655 1.7800267298451815 6.665529078956292
In 5.694005314412976 4.484128177813549 6.660935328187387
In 5.081126940957501 1.2474616648340693 7.671102690848845
In 0.8461656527547751 4.546185558209993 7.080812578382311
In 5.2013698553094505 8.065367185350215 7.185572201845959
In 9.091774106546602 4.556413794249705 7.205619391188396
In 2.137372202276201 7.216098183792024 7.762306877550926
In 3.1218540097811758 3.2671004374082795 8.946033408482835
In 6.69506908418145 3.4121742387947878 9.461937591797536
In 7.415953421233106 6.595802373648703 8.80365362400988
In 4.462520938526525 5.9501068100539305 9.442491693825842
