30
Energy = -66.46881444 Dir = /p/work1/plile1/GA_structures/In/30/all_candidates/1960/
In 8.883920338433116 4.8195376079433565 10.241294879297755
In 6.110480479825328 6.251800558805787 10.756954152577237
In 3.944082815032073 4.125292832184651 0.21602311919638287
In 8.982939548820394 7.848601839544821 0.6206909493499737
In 7.029452003119828 3.1242779175904065 1.1949703419347844
In 6.229670396664757 8.42972268684936 2.1709757675431027
In 8.333178377979875 5.542406206726572 2.598499632555108
In 1.9670709633749779 4.030684747119964 2.5477512912456746
In 4.81165697939074 2.1876204291249444 2.8272519602782262
In 4.946019935567416 5.681624151676092 2.872271549265188
In 2.27255765405457 1.1320264967027578 4.174020137268432
In 2.2579510391926156 6.6692360895026885 4.386479452011227
In 4.391676480747869 8.96956451645338 4.4925008474134165
In 7.693845580142493 7.478219886213517 4.723639170238977
In 6.988373407103874 3.899541531385216 4.786419567455932
In 0.6095286702594848 3.9528688481027032 5.303399654678671
In 3.7351718504522595 3.849665780809562 5.256730195507179
In 5.345160146613681 1.1038164131741786 5.835082590162952
In 5.056477973865973 6.314593488017927 6.0803525519916315
In 10.653517115054136 0.9894297931353906 6.2825986416460555
In 3.3264043838867243 8.624924062925166 7.408678652306046
In 2.7038479722286852 1.781655301152487 7.4166304175179425
In 7.765289922080068 5.522682772394727 7.335131070114041
In 6.761284954110919 8.711484052978342 7.393034536851511
In 2.1971120514989013 5.628623693673551 7.692795212421199
In 7.56458334324714 2.3972291058496107 7.668739684003912
In 4.684126749143766 3.7506593901300214 8.274346717773545
In 0.1547566324273524 3.419895364119866 8.473605787508768
In 5.118963178803448 6.5320441371702564 9.389817152122994
In 7.3700610307081265 4.346613684668177 10.241294879297755
