30
Energy = -67.46063796 Dir = /p/work1/plile1/GA_structures/In/30/all_candidates/756/
In 4.501524008636659 3.445665437305837 10.004918860413227
In 7.066895832926617 5.531017640838075 0.5011296205917004
In 3.7429655381087996 5.884458838757327 1.091600480826474
In 5.685237294893219 8.58162296303045 1.2401430183681832
In 5.726307927861742 3.147125046786888 2.2678748770983326
In 2.479945934171642 2.656345803524862 1.9150622400009036
In 8.854656255272312 7.487232675819243 2.908078564716477
In 8.637730813713773 4.253383043072436 3.174852026375696
In 6.004608272318519 6.352450925084358 3.3267149035821726
In 0.7108006894342056 5.616345620097225 2.774734910122507
In 7.433496928158366 1.2093415479468688 4.394331035082843
In 3.118418345141538 7.970162189604519 3.4008872916396706
In 3.501702762189218 4.817652083834706 4.031844420074039
In 4.143135843723672 1.7072877823448778 4.611367463839978
In 6.456412381926195 9.323961880143539 4.440194822002405
In 1.5221182388384893 6.457907103379182 5.964151339204874
In 8.082554572644995 6.621151622322206 5.874151104538676
In 4.688138487705194 7.262257692855864 6.052029446735078
In 6.6512947114305225 2.073161614448229 7.602569392614017
In 6.288889363018877 4.072750027179878 5.263308343196896
In 6.881649783317275 8.769875264488316 7.878036657147231
In 3.7978695474079274 1.0341391265299182 7.659554954887148
In 3.8371907896736306 4.2394207238808495 7.035158754327548
In 1.227034379645164 3.120733574007246 5.328563846757154
In 9.309363827266479 3.582816718654427 6.398250196826375
In 1.7423473026632743 5.567115186859616 8.93825459742631
In 6.726313122555782 5.211199578791501 8.257859953212375
In 4.3597234401308205 7.070307118472748 9.100311362209943
In 4.680271003505225 3.560827004801401 10.004918860413223
In 1.4150791600365582 2.6459607234533657 8.463183287740703
