30
Energy = -66.71258544 Dir = /p/work1/plile1/GA_structures/In/30/all_candidates/1434/
In 8.050052627132777 6.955853656075679 5.641304599859702
In 3.798561540067063 4.134081390424881 8.27503802517815
In 1.4718702629422076 3.2545953222863524 2.824164859485636
In 1.3719810223549975 9.78920676243724 5.987959231759589
In 7.9359571439627015 3.56778989926629 1.0011304371512588
In 1.2611810196711046 2.3846065944376975 9.202255407714347
In 3.7901942853196813 1.3412666841803007 4.552192852776311
In 3.8799692568846202 4.406768091529919 5.097203655347946
In 0.8976047962404616 5.2850840907232906 8.093281845955302
In 1.2868838451899536 2.764691055017404 6.049885620886432
In 0.9516877756786531 5.6853377243174945 5.057650613280265
In 3.6988654502852967 0.9817515894582012 7.736480357228186
In 6.5102220608187755 5.280427663395812 8.23588905944807
In 3.2687142211599394 6.990424014683826 6.942275056518213
In 5.915702268117862 8.430350998914877 7.313760698947279
In 2.4290348629923826 7.519967542051299 3.138345635253158
In 3.7590187680297764 9.66871225807328 5.101443940718257
In 7.012362775740592 4.343187096120652 4.105818304247961
In 5.439688741134062 2.3973656349913557 2.329264258968547
In 3.914055248122426 5.098584659358022 1.9443391999407766
In 8.80849650520727 3.901220004044105 6.619147100291126
In 9.898998619317831 4.813016246662043 3.2139586560000386
In 8.797490461177254 7.745049205524374 2.7853168340053163
In 6.065297375707465 2.526234353589129 6.51536784822549
In 4.84911358184863 8.775384337407495 1.5939635149293412
In 6.62892892862347 6.290339475232351 1.2536688948208377
In 10.981072289490546 5.981863810180376 6.025586219699604
In 5.342292900139268 6.923619484275474 4.2871287146029875
In 6.774302902724433 9.632101322864091 4.1636288935110715
In 8.947181214651474 6.951369276459898 8.649332413981838
