30
Energy = -66.58399914 Dir = /p/work1/plile1/GA_structures/In/30/all_candidates/1790/
In 5.510872148042633 4.336684195881891 1.2315073579327371
In 2.2086621370970905 4.0125354880726345 11.44761504710024
In 2.9845754131755418 6.705490158018395 0.9545734011932868
In 5.432480417331958 7.145556411743172 2.7646477055274463
In 8.284357470436339 5.468601925992813 2.025378098017723
In 6.991564900074603 1.8084131857391914 2.6925740235327513
In 3.426063976981564 2.127673574812736 2.0786794964195257
In 0.32162187008277016 3.44123400734621 2.3312799714326697
In 5.731595523928546 4.328017482289609 4.399655330929536
In 2.684524755545335 8.206428891342785 3.925804688059162
In 5.468579722859451 9.56071189723039 4.963075121789865
In 10.229633854327723 4.243491736388211 4.8988346298344805
In 0.3375307930370196 6.567043404194503 2.5734728695694815
In 2.908410151506028 4.849323097654068 3.5626284966090442
In 7.428509138189438 6.96574186558335 4.913043585555455
In 8.748534719442205 3.7776978563966903 4.657093328716311
In 1.4137062097005328 2.4946946755382386 5.16986917097692
In 1.1269161380103807 5.955748827099145 5.803582540921413
In 7.004983938796549 1.5176660825287598 6.155706722687395
In 4.403765653318866 1.45861344305657 4.8113361562378705
In 9.35135510295332 5.802303569777963 6.82024611649278
In 4.186500443890127 6.859941531886455 6.305613423610085
In 6.398438169677404 4.385305290465334 7.432677367139317
In 3.4019277907042578 3.7846790857956374 7.005616926081369
In 9.119198201995928 2.768760852567194 7.927542757343153
In 6.586843851713651 7.975309034030269 7.784663670468303
In 10.229633854327723 4.996832300907598 9.820980165765869
In 9.452421389703229 8.039829038030035 9.02773290182611
In 4.139111375568086 5.793394127735831 9.291741932361715
In 7.209678329862362 5.763216596834973 9.944824438147682
