30
Energy = -66.68027759 Dir = /p/work1/plile1/GA_structures/In/30/all_candidates/1621/
In 7.718767669584541 3.82602871216109 0.16728208914563505
In 2.560170454110416 3.957803448656604 1.2175487285634352
In 5.287648669738395 5.633182965588331 0.5856656137612051
In 8.249153522922954 2.9984513689139214 3.174583505113699
In 3.597562328828099 6.329511846786491 3.0481982874169242
In 8.178213206646564 8.745432937709417 4.115190107552012
In 3.1412391273033955 3.247671057517338 4.440624845960677
In 2.6039740061320007 0.8763633971111425 1.9708047293683382
In 5.697871443525132 8.66450617023947 1.7538456557436064
In 7.471372521903686 6.120499579247717 2.6666294012904146
In 11.452187932255368 3.305135410308534 1.182579041808342
In 0.44872998936131653 1.8115001774094024 3.8581347591220188
In 5.303654938420797 2.8233777794641397 2.246065132684818
In 0.7452571520350746 5.2068261658820365 3.8092159527061673
In 3.2156020266639516 11.481285393398686 4.744657813627148
In 9.68823682030847 3.980063990885333 3.6299366579642243
In 10.864467103767325 3.162726000563651 6.421561838372402
In 5.283497457633571 7.921567534722015 4.922892907851086
In 9.115789984984094 5.548773997258593 5.076321660419506
In 5.876538814537001 4.689635244725798 4.9870784109908275
In 5.8069043807761265 1.3579869917436767 4.992811367030146
In 2.0192238466269887 7.885229183505706 5.322500549586787
In 1.6366739492019595 4.699343451933495 6.759272222912828
In 1.60266875930641 1.350701056802772 6.717471322120702
In 7.388789451804404 7.231165949887232 7.061475079151635
In 8.185196282486967 2.7717224297487397 6.358091132551254
In 4.128993468583086 6.251728474093196 7.178625636573042
In 4.311592709810449 2.704391277988659 7.525976783981057
In 9.68823682030847 5.0209012858200675 8.12523887124048
In 6.49180993250897 4.556847604284616 8.300248835889057
