5
Energy = -7.23397496 eV
In 5.358205785581511 4.998416277396501 2.572234553948721
In 4.57401886066102 4.677214276230198 5.215902493957986
In 2.8530605393947486 7.039130597168806 4.809496373161182
In 7.472292027267042 4.867389436059647 5.6956060251880105
In 3.508837236868191 2.0557175211126713 4.286223513875351
