5
Energy = -7.32348272 eV
In 8.448887422338869 6.492643563415233 10.841459370921712
In 7.629956708553956 8.548072755462877 5.3813213370747315
In 7.639969904383556 7.249377897292109 8.107575355684457
In 7.727673007262967 5.473539508021211 5.633845460578424
In 6.1568823154388435 9.87744306028156 7.752031423692183
