5
Energy = -7.94822797 eV
In 9.324103106581239 7.320334727848404 8.204854554249689
In 5.217769041372581 6.566282700749069 7.104517402494933
In 7.609587573337727 9.71072405113942 6.497394070195045
In 6.928461840495093 6.17568955127373 9.472920619255406
In 7.76406942806678 6.9509111395085155 5.681831136702818
