5
Energy = -7.68465773 eV
In 7.070647571655668 10.360810672743666 8.269346227146473
In 10.32483330493497 10.401189382982837 8.201780336927738
In 10.371505349520483 7.149199612830146 8.272979641068712
In 7.12050853276918 7.108477269625871 8.284006950792541
In 8.745241007393872 8.781608106035423 10.239046541240652
