5
Energy = -7.84179429 eV
In 8.986460771542585 9.935891490462986 7.150151162637488
In 8.670404089454163 7.231535624053024 5.760180540024465
In 7.063838377061647 8.179737219440861 8.355850263107605
In 6.897820842575801 5.368127908281361 6.822953699555399
In 5.3626292955971815 6.097729496006102 9.356063794621265
