5
Energy = -7.0283866 eV
In 7.814501912228871 5.313622501466147 5.359596310998365
In 7.475944974676594 7.369564696919616 7.5474403746654515
In 10.222111291953276 7.034732149209847 6.23348805799662
In 5.337870704201844 7.615765250246692 9.756140461877171
In 6.640635186338652 10.123892086935847 8.50423012932312
