5
Energy = -6.87877185 eV
In 7.634722484186676 7.052120528974001 9.073081945694666
In 9.654080005622182 4.877256957829792 9.421972661267151
In 6.8963998855007596 8.318389802279746 6.45582877374698
In 5.67121523755392 9.391954280883375 9.046784234607927
In 7.585135586549202 8.004238457515227 3.559507352620011
