5
Energy = -7.60718766 eV
In 5.048963474894598 9.378162079855224 8.242091055339687
In 8.442126728399654 4.427366667796044 7.6006199076938055
In 9.394664765630774 7.133637036161697 6.53569288568267
In 6.783362589457439 6.915647052475301 8.132460154357833
In 7.881552737142692 9.615294980368343 7.0773284145818005
