6
Energy = -10.5896389 eV
In 6.003788398948668 6.731340317165315 9.056010916181181
In 8.583520176577958 5.612900798421323 8.241875804667822
In 5.865687055319434 8.279178488506163 6.415440830083424
In 8.477393978944663 7.226816883170813 5.615016872729727
In 9.76431137572876 8.447824338313756 8.122213918014468
In 7.168183394884027 9.575180836768512 8.883713454809328
