6
Energy = -9.87979247 eV
In 4.868215719660615 5.8114273669211345 5.686589273207296
In 7.009325935672333 4.467576998307463 4.26712096825208
In 0.5477408217585651 3.168738207128157 3.5797679991506444
In 2.7902860359922403 4.989687185960446 2.8105818821033997
In 5.4177871098337915 2.4839760166363143 2.8541105061813106
In 3.5671139610848175 3.285621589005549 5.008904054281831
