6
Energy = -10.19362298 eV
In 6.87175755116829 9.304541763671452 10.943812479260936
In 9.304188074148815 6.889915519270297 5.477458780465292
In 6.598558473458633 8.037786520646945 8.353750450612885
In 9.726107383015902 9.839542033701546 10.371899230368616
In 6.530655141645471 6.131801326307286 6.183231943965493
In 9.381233148405851 8.690039934571017 7.74208525578245
