6
Energy = -9.55496497 eV
In 9.41244439112332 7.4610136708541415 5.627262340966777
In 10.44019991646849 8.11345590825445 8.600823003187026
In 7.882255923652955 8.01568730474512 10.561100401724305
In 7.645843835410281 8.959838371136856 7.640714577858105
In 6.2269201385063075 7.037611858693757 5.6990368359878625
In 5.306888819726059 7.315829181264035 8.768083165029369
