6
Energy = -9.24359769 eV
In 6.969277339461842 8.682377683375794 10.355346551239426
In 7.542794199770862 9.22054595174585 7.439559832829457
In 7.966927578654607 9.601110251948285 4.468191939507662
In 7.813034854680155 6.746327224197394 5.461445980587492
In 7.447300740267252 3.965887825564629 6.58754515259194
In 7.248383148829613 6.244580610321546 8.576261402232403
