6
Energy = -9.58993679 eV
In 7.408589017372195 4.472746890437262 7.230713270736337
In 9.05671190675126 6.822514128837925 5.8359720068611125
In 4.700623613698654 4.969830073570176 7.239392804175002
In 3.9866597892059064 7.752794881663083 5.851275102936359
In 6.625862645656212 7.828943886311782 7.4700467110912445
In 6.329109740831744 6.260726786543716 4.480156751563874
