6
Energy = -9.78823749 eV
In 9.508958527075848 6.767189132118539 8.233774121176157
In 5.905692284288441 7.657632044195795 8.838324439047033
In 7.5822121902599084 9.412633397634648 5.000040737701575
In 8.700572041906828 9.674831369380192 7.7185072925271845
In 7.205859570507695 6.763520333096361 6.232292799000959
In 7.842065763945499 6.351518839825326 10.61212084237322
