6
Energy = -8.99888565 eV
In 7.3763500278097025 6.8778744524370605 10.007341742576152
In 7.481226166133965 4.036594232256891 8.626494815175027
In 5.08558786465942 6.012666872951154 7.387503404489182
In 7.792201085184804 6.767421017785587 6.395002364852115
In 5.3395263016222145 7.751276473230836 4.856235373960905
In 7.609347615883127 9.260163221512997 3.2784294783194112
