6
Energy = -9.94448152 eV
In 8.376389873511858 5.42071547326986 9.616022091585192
In 9.271996786519766 6.562494027728763 6.310847257213164
In 8.488117443261963 8.208137082371307 8.603167467553002
In 6.594910845377753 7.016854990414674 5.236757088769676
In 6.093373199526261 10.366343774131037 6.855812645164409
In 5.727000888378268 7.6417129313442285 7.965636965905159
