7
Energy = -12.40701801 eV
In 8.283949892215567 6.12762698058935 10.36521422949675
In 5.7434025427172175 7.624711262949693 9.962030146209717
In 10.302623532508116 6.269641242323268 8.179524850774433
In 9.791037741586173 7.993875481123531 5.606392743966248
In 7.522644009020285 7.307702368055025 7.512045136655286
In 7.236691030925045 9.469011732904725 5.195236595658229
In 5.19151606741177 9.25774586409464 7.347630262909211
