7
Energy = -11.3023406 eV
In 7.682417762272093 9.610521322392385 5.2502863607288885
In 5.2662404064778 9.554866137930144 7.294572280862979
In 8.905210916823252 6.696269060849613 4.957779691682602
In 7.597816773318426 7.594124471743051 7.565415502721126
In 6.096235138615511 8.393421188116827 10.115880294614817
In 9.742507919513614 5.4282894642277935 7.745442950026056
In 7.298877614716523 5.487950725712907 9.75963600108152
