7
Energy = -11.54260087 eV
In 4.455707312000626 3.932704450503933 6.157353877259354
In 7.0389743334523285 4.395825255794502 8.174197071236826
In 6.687351169136187 8.644888871114262 4.934184492117643
In 7.165952112211008 5.408682492609057 5.063816057350932
In 8.41820282925086 7.306852211118121 7.41846806822679
In 5.169512571154668 6.926916131757908 7.271623762660613
In 4.238940118584916 6.558771114965712 4.154997199011823
