7
Energy = -11.42222138 eV
In 6.418931707129244 9.12076783106895 12.233338732451186
In 11.418427917761756 8.356998829503564 8.904140400201427
In 8.836675873585415 9.51472636145325 10.163977549213284
In 6.639429149171763 7.601521666579976 9.559305546009671
In 12.591393014329052 11.041602147841068 8.243111298959514
In 8.587092869474073 7.730431932411085 7.393176724207204
In 9.702249684531617 10.77201459388144 7.4393225169207815
