7
Energy = -11.84735143 eV
In 8.205065133403183 13.719569580881876 8.469826687153814
In 7.8896725291250425 10.690196875478785 8.999316310611238
In 8.304993718617277 5.354032319577793 11.12252101806646
In 8.152638599044241 8.216791395846903 10.21392473927798
In 10.69635068338413 8.902654536297177 8.595415161309703
In 10.833421241490196 6.2557940153838025 9.715485104985278
In 10.420160692175061 11.592984331560416 7.575484651961127
