8
Energy = -14.5779297 eV
In 11.285872804579279 7.738385121584602 11.026360104929333
In 10.2453403692001 9.913186236901485 6.4643272614176785
In 10.67416727515324 7.362740343548871 8.066269418924227
In 8.522906185786775 8.790737236606125 11.805230971880617
In 7.845823886914351 7.892479602441073 8.992274561857327
In 10.450689472305735 10.384864047438404 9.557006622063774
In 7.586259570220503 10.63929522582473 7.768139581052017
In 7.76354687844674 11.53001318059943 10.683438868640685
