8
Energy = -14.20585461 eV
In 10.257136373185045 7.270670759072775 6.1512875615424045
In 5.351602080003331 9.881981583260652 9.249206127173517
In 4.440813497373013 7.764895787040831 7.402420971189926
In 7.346926288217863 7.572489352493828 7.456171267219767
In 5.217661716917807 5.441779021005355 5.702449555642992
In 8.296178744662782 9.705571575341999 9.259015228678066
In 8.148689558587249 5.124646318272187 5.9724853525285155
In 10.262557205268699 7.4250888895258385 9.132333379378082
