8
Energy = -13.67208292 eV
In 10.733285518595974 7.792942313121064 9.966764739767136
In 8.418017024051345 5.850223491387594 9.410366735826702
In 8.634509976234726 8.409172009406314 7.724438362346268
In 9.004862770752837 10.886458800260465 5.846937393877109
In 6.441434464771973 3.6868508990554925 8.519186827846331
In 6.305657012728863 6.557542442375769 7.287939963788143
In 6.4968555532341075 9.12709833112892 5.623095782778836
In 3.8736452566713573 7.540984703589126 5.568481004958823
