8
Energy = -14.53609466 eV
In 8.81773737842851 5.917311844442458 6.433645190870436
In 10.25627504447606 9.06995263221618 5.709745071703928
In 4.032130148282106 5.60528860289531 8.803188725945269
In 8.372199244084161 8.977298479437911 8.061659194485243
In 5.627619797429661 6.04632447861164 6.397298874738495
In 7.7722885685124545 6.126067419274372 9.013061823772047
In 5.632690411323781 8.416188410019423 8.412509196263066
In 7.103898975910814 8.196606079088072 5.12595743020729
