8
Energy = -15.06914549 eV
In 7.264099853480409 8.733978190918446 6.895894873839298
In 8.31528273521911 5.958053290546996 6.311593762044229
In 3.314284657812699 5.723958788283839 5.628676087295309
In 5.2196088222415336 7.968594148679642 4.804282072388607
In 4.7077025489531525 3.2603487655771484 4.730870211116627
In 6.443401757631351 3.666319824389723 7.107785659975015
In 5.287932197409811 6.328600884850553 7.776388879281324
In 6.630305368607669 5.542764226749297 3.9271265740551033
