8
Energy = -14.37323601 eV
In 4.35132589075841 5.035095732848712 8.495471963143839
In 7.015326324483992 6.536947235788283 4.333603784093128
In 6.313864370873515 9.093113102633113 5.94984310522653
In 5.766749881659531 3.9577589625764764 5.951566236300115
In 4.416159896277731 5.102645151170774 3.389914795291078
In 4.145573042334429 6.848910612344316 5.962893012919097
In 6.945163801652246 6.549854212099331 7.647134399870232
In 8.806652231733487 4.636490430312459 6.030388142929329
