8
Energy = -15.57036427 eV
In 7.27268332569181 5.688890926864138 8.547270460550667
In 9.592060575556296 7.100811987648752 5.310978575826811
In 9.023467104881577 8.205740907289485 9.362562838644559
In 6.00312215425165 8.074731032002905 10.077163298603818
In 10.286450897177545 5.833382597849393 7.801401723680905
In 8.370820922961645 9.471670218709498 6.8826141703428565
In 5.351938073122428 9.338204103569945 7.578386690557136
In 6.596420149597927 6.94434953013336 6.07420837214064
