8
Energy = -14.6721965 eV
In 4.694556857241105 6.676821857200284 3.9873960864358504
In 7.67083556443255 7.953668897119708 4.258178388561639
In 6.8937699090707785 4.967770941099514 4.88114728861341
In 3.8491739025004805 5.9240952315459054 6.758854529723014
In 5.200833552658652 8.618983844600551 6.453484100954145
In 7.511952249493272 7.081148618614455 7.238712106363708
In 6.024777946432217 4.291278805248743 7.705350401421424
In 8.633391107177635 4.965522893577302 9.196168186933255
