9
Energy = -16.57837757 eV
In 10.947390230008097 7.6620270913382065 8.335044618321277
In 9.205943087404325 6.519835978344975 10.435857101823292
In 8.948369647519929 9.096678374019016 6.682885981516608
In 8.520235505679286 5.919958245851242 7.474886467488523
In 6.82027338983382 4.397335421325852 5.460645540413233
In 6.5915039957289725 7.653141316011298 9.638119317662342
In 6.16483708763355 7.216525300784769 6.400397126118814
In 6.348375576568749 10.269311799040011 5.913619872931239
In 4.6478351444194415 9.302944467592946 8.135107841452454
