9
Energy = -16.07600127 eV
In 9.709923002936613 6.73836212526665 11.245597228188398
In 8.58107619737303 5.17128377538149 9.02180539250165
In 8.07887587984702 9.068396527402923 10.683324946448545
In 9.283821503227994 4.510491947441378 6.242098603861972
In 7.861278566125473 7.864717888912905 7.897073078634557
In 6.399291475501695 11.162490951021132 9.613417266125657
In 7.721983586636167 6.673315437879974 5.1070572308866415
In 7.058611985006176 10.553138218696066 6.809723326837837
In 6.066088698544274 8.971616442831385 4.532441392331399
