9
Energy = -17.24982697 eV
In 7.035934665493189 8.474806970785007 4.139499409481212
In 8.769328104564986 7.282687532533254 6.366326336674693
In 9.945054751219836 8.786051115724588 8.480209601468925
In 8.293978703082567 4.724651323669755 7.87005902519245
In 6.216923120253762 7.065529093369222 8.2075277123687
In 9.677710719368548 6.098042957478083 10.003340384728197
In 6.656219800532744 9.790964994341415 6.871941393869395
In 7.655164810130421 10.968192945295396 9.301584721468343
In 7.546470090331903 8.184457836568283 10.528722481004431
