9
Energy = -16.26534265 eV
In 5.7946297754045295 10.592032829545706 8.503225226171118
In 7.387691553439722 9.963627135424431 6.110782661306548
In 7.4837812163716 8.542915481229551 3.429003109571723
In 8.50327004920607 10.319757563704808 9.76425348975927
In 8.034863887747687 7.795051721701928 8.225845836187426
In 6.491376818377062 6.9625269625446045 5.900142468074623
In 9.059284846138558 7.855876130666469 11.344300816581407
In 8.81241156195935 5.381159189672593 9.728160398922483
In 7.864767036688175 4.648646604963622 7.04438190263346
