9
Energy = -16.6708046 eV
In 4.03539432989231 5.798231983068684 5.688851579570484
In 6.7924102099371035 6.60319939426662 7.261184401030197
In 4.680037961294765 4.637230474922941 8.479887702152219
In 5.190505033158661 7.929681790874417 3.475069951352134
In 6.621353347347661 5.108669060796305 4.352158474020271
In 8.00142040811473 7.856732247205703 4.657750392707577
In 7.9959329860995325 3.7542351327535894 6.766410212163864
In 4.683835093170919 8.741589340637143 6.371678056156371
In 5.184086755526937 2.755405977396289 6.131985837136616
