9
Energy = -16.46633609 eV
In 5.222342466846665 9.107051538749971 9.693806338532825
In 8.789570556240568 9.897825505599581 9.896738618106935
In 7.573504348643025 7.254548831838601 9.004889104507022
In 8.921108363624061 9.002628883051512 6.6213905133788815
In 5.854823880829805 8.315977062192575 6.464989180223356
In 10.316031049069315 6.574136657709775 7.821738874785875
In 5.494555493574231 5.496343141860154 7.566917772490933
In 8.195115955139496 5.070862707464354 6.415479434262971
In 7.829188988353576 7.165662657259946 4.305313375506655
