9
Energy = -16.11492436 eV
In 4.054811998332124 4.537818652670783 5.449382139216557
In 2.802564419257801 7.214090149202504 6.1424136396914415
In 4.246918817023064 9.694375216226678 5.543742305508457
In 5.6124666792426385 6.872066809072513 7.046124444438374
In 6.867957613549587 4.278060215034232 6.588851097810079
In 9.88749506760857 3.9605418378151453 5.925338287682085
In 8.393618849937004 6.650299756903052 5.431916873820849
In 7.0847298670332135 9.29392845107861 6.154356816263665
In 5.25347010957363 1.7028518745781587 5.921907664134383
