9
Energy = -16.42629347 eV
In 6.0046621822359665 4.283224790985035 4.425283151250136
In 4.012173919483944 6.511441924565336 3.6309224591238385
In 6.557756374575979 7.50452794575879 5.058925013894287
In 8.789337272851363 5.161618646495688 5.093056526422463
In 3.8091195479816857 6.747254530417812 6.707891337914608
In 4.03678327275783 3.6622844790333065 6.732674690047654
In 8.98105676828482 7.4869317851732955 7.355523654182792
In 6.612557283743296 5.141838742479222 7.544447910465414
In 5.9367217374766135 8.241045514482884 8.191443616090169
