9
Energy = -17.33039908 eV
In 4.427169831084965 4.374555092997178 4.669681993453764
In 7.367866404598926 3.9187788294648382 4.723148776362203
In 3.8165484598114543 4.673196019107683 7.635452850422506
In 6.748826038698879 4.304434095513036 7.642457471027209
In 4.865381186455301 6.908798019565077 2.917669705524203
In 4.289180517756077 7.274829542394307 5.92208112194962
In 5.27297184727036 7.045769216527023 9.091401958439809
In 7.732870466045353 6.245290950670568 2.973948165150573
In 7.1493400670499865 6.92450359563959 6.094312776441152
