10
Energy = -59.65174436 eV
Ir 4.60361729977193 5.948080302697934 7.700133358939853
Ir 6.595290643460016 4.499323676920033 7.699995593168889
Ir 8.5869639871481 5.948080302697934 7.700133358939853
Ir 7.8269308960087125 8.289641262964123 7.699951372836702
Ir 5.363650390911321 8.289641262964123 7.699951372836702
Ir 4.60361729977193 7.242500984222094 5.490447927980174
Ir 5.363650390911321 4.900940023955908 5.490629914083323
Ir 7.8269308960087125 4.900940023955908 5.490629914083323
Ir 8.5869639871481 7.242500984222094 5.490447927980174
Ir 6.595290643460016 8.691257610000003 5.490585693751139
