13
Energy = -82.78814187 eV
Ir 9.54067685047802 7.0926149650422845 7.301412109045481
Ir 9.533057923019594 5.539411681911304 5.297935127066907
Ir 8.168968146489425 7.767009507446382 5.178599863629466
Ir 7.096251201711513 7.470908304536818 7.455264465253948
Ir 7.904161467180911 5.070949319476337 7.284105632830761
Ir 7.0859948709418275 5.488167119253823 4.927943848521891
Ir 5.669357172817866 7.68391529805584 5.2511485444933275
Ir 5.695339224500031 4.065206299599986 6.485421170206831
Ir 5.706111796435854 5.607145781535556 8.454165898214049
Ir 4.586533066278221 7.707379945110452 7.485061085422412
Ir 4.57653215629032 5.522092707637944 4.695401419146182
Ir 3.1381273387225446 7.530340720948685 5.361668899310797
Ir 3.549048510537351 5.519737855642896 6.954338113673679
