14
Energy = -89.80104038 eV
Ir 6.4567037988148 6.494322403685181 5.030117373528663
Ir 9.02435109701354 6.460459609868621 5.265557420170584
Ir 3.897876550682893 6.459400231463002 5.355353491142828
Ir 7.7155912472037045 8.72773678872024 5.308336775557651
Ir 5.205158211522548 8.724784154976401 5.350515506306842
Ir 7.766259936177022 4.287157997942199 5.26454281774354
Ir 5.150452876989294 4.288178245986825 5.312666514842014
Ir 6.498492104721582 8.040969032571118 7.478187389443899
Ir 9.069757800313385 7.959133808883259 7.3240134312540555
Ir 3.921674291388778 7.960273704806325 7.411183720334366
Ir 7.854515993319204 5.687928155448712 7.433161045737867
Ir 5.141141302130972 5.687552404973853 7.484596781063595
Ir 6.496377387701156 3.4980843925858442 7.324250855854127
Ir 6.535896618180524 6.458268295147531 9.391766093178866
