14
Energy = -89.21816812 eV
Ir 6.6926932708398805 6.6926932708398805 8.638481999999998
Ir 6.6926932708398805 8.638481999999998 6.6926932708398805
Ir 4.746904541679763 6.6926932708398805 6.6926932708398805
Ir 6.6926932708398805 6.6926932708398805 4.746904541679763
Ir 8.638481999999998 6.6926932708398805 6.6926932708398805
Ir 6.6926932708398805 4.746904541679763 6.6926932708398805
Ir 4.9345946811983445 4.9345946811983445 8.45079186048142
Ir 8.45079186048142 8.45079186048142 4.9345946811983445
Ir 8.45079186048142 4.9345946811983445 4.9345946811983445
Ir 8.45079186048142 8.45079186048142 8.45079186048142
Ir 4.9345946811983445 8.45079186048142 8.45079186048142
Ir 4.9345946811983445 8.45079186048142 4.9345946811983445
Ir 4.9345946811983445 4.9345946811983445 4.9345946811983445
Ir 8.45079186048142 4.9345946811983445 8.45079186048142
