12
Energy = -73.47565056 eV
Ir 6.889408342184369 4.350441916599704 6.986360685292779
Ir 5.759473029131039 8.155193012030452 9.181133432321419
Ir 5.6678553966534375 6.050095698831929 5.4487177138036325
Ir 5.038124849103442 8.156571271092803 6.6651939507361915
Ir 9.274515531455327 5.688876461843579 7.676546592106527
Ir 8.16002230414725 5.94964075842605 5.331982368750871
Ir 8.576541226650564 8.0304761447392 9.035033083678163
Ir 6.952480977641074 8.305715037395998 4.872566253713186
Ir 7.146415558857838 9.342479414163924 7.29787670483096
Ir 9.08000352635793 7.975898810031954 6.458072981588378
Ir 4.751355250908746 5.856115984022903 7.903758943603252
Ir 7.030891402951335 6.7754888094385635 7.554537067109088
