14
Energy = -89.98505498 eV
Ir 10.372479999999998 6.726586157176564 6.726586157176564
Ir 5.419163905028834 6.726586157176564 7.942895219468409
Ir 8.034008409324297 6.726586157176564 7.942895219468409
Ir 6.726586157176564 8.922874995844262 7.9243961539671
Ir 9.049005056271078 8.80579204016522 6.726586157176564
Ir 6.726586157176564 4.530297318508863 7.9243961539671
Ir 8.034008409324297 6.726586157176564 5.5102770948847235
Ir 5.419163905028834 6.726586157176564 5.5102770948847235
Ir 6.726586157176564 8.922874995844262 5.528776160386034
Ir 6.726586157176564 4.530297318508863 5.528776160386034
Ir 9.049005056271078 4.647380274187912 6.726586157176564
Ir 4.40416725808205 4.647380274187912 6.726586157176564
Ir 4.40416725808205 8.80579204016522 6.726586157176564
Ir 3.0806923143531257 6.726586157176564 6.726586157176564
