15
Energy = -96.68114445 eV
Ir 6.091843511018176 4.984100401305252 5.999372521616014
Ir 7.132136964328264 7.098821658299752 3.3314897926576093
Ir 3.601934093107086 5.353225443731386 5.1168540902772
Ir 6.336468552842467 4.583544489809926 8.492589384110271
Ir 8.897935853312152 7.455099450011707 5.129284759312258
Ir 7.038519739057749 9.223059348562304 4.702024459719521
Ir 7.225307289915436 6.9498585982155685 9.143292364866678
Ir 4.394716883872943 5.543423914742576 9.709667938608145
Ir 3.9296833717957504 4.668715971616712 7.423433009815492
Ir 5.529441378415848 5.2198792163512095 3.5272400864500266
Ir 8.26321179490676 5.759342173531602 7.1273742968791804
Ir 5.132189340301083 6.885483235553869 7.752477279107937
Ir 8.070602117861807 5.127104059436942 4.561503921134048
Ir 5.300641890115438 7.249136798734977 5.14540232685919
Ir 7.161486369065949 8.070702559071563 6.885395381303432
