12
Energy = -74.80797472 eV
Ir 4.592711834590818 5.194248817001729 6.775106481337079
Ir 6.468367206905406 4.514997421251645 5.191558941249988
Ir 4.367292426971538 5.506643292876608 4.326534529870565
Ir 7.249527036788146 6.244961121798404 3.6169865735706703
Ir 7.952143511891279 7.326115499917803 5.732807136221961
Ir 6.076440673854535 8.005092533718543 7.317896757125768
Ir 5.292092760198536 6.277201133273784 8.892706340347248
Ir 8.180549600502484 7.015073706659914 8.181044261019043
Ir 5.575507216709435 7.5921510686935445 4.853476237013919
Ir 3.7704918788407578 7.510332893304175 6.551197805908091
Ir 8.773145122804971 5.0096179588081835 5.956776509118236
Ir 6.968584375110169 4.93211508182675 7.655207955279919
