10
Energy = -61.63238164 eV
Ir 5.2409967579748535 6.630085402454069 6.8148458712003865
Ir 6.656203710239126 8.47223936014043 7.854105801398997
Ir 6.154646360001703 5.057061929112608 8.602927147093812
Ir 5.333050829928555 7.958280501133722 4.657298895781635
Ir 6.05302928672806 5.8622003823137305 3.821718396429641
Ir 7.379631160306817 8.656594375592622 5.608156587898802
Ir 6.654155437947075 3.813518161329889 6.661636011245065
Ir 4.823639676060135 4.575381584178816 5.369699900956727
Ir 7.9624805527836156 6.575567172718031 8.393396166840283
Ir 7.465475155825868 6.12238005971267 5.939524150732025
