12
Energy = -76.02198975 eV
Ir 7.665491362099732 9.979991000000002 7.4848540150176905
Ir 8.557239368765657 7.990321756414431 8.7934019756705
Ir 6.578355015796057 9.405718923852948 9.724349967751888
Ir 8.391353014239318 5.563989106182436 5.245358062283491
Ir 6.578355015796057 9.405718923852948 5.245358062283491
Ir 6.4124686612697275 6.979386273620953 6.176306054364883
Ir 7.304216667935655 4.989717030035384 7.4848540150176905
Ir 8.391353014239318 5.563989106182436 9.724349967751888
Ir 5.445121048925947 8.933562999111892 7.4848540150176905
Ir 6.4124686612697275 6.979386273620953 8.7934019756705
Ir 8.557239368765657 7.990321756414431 6.176306054364883
Ir 9.52458698110944 6.036145030923491 7.4848540150176905
