11
Energy = -69.12352576 eV
Ir 4.60739041020264 6.52899442758274 5.606669715373603
Ir 3.39672903996174 5.408460413301962 7.378846495060251
Ir 5.845565565505047 5.815943413872594 7.824164669781225
Ir 6.534802379694692 8.085060419682303 6.3768470841723754
Ir 6.157559182703677 4.661717248443115 5.479392041750116
Ir 7.521526940765404 5.893188735779675 3.880910790283525
Ir 8.948518535711408 8.460990112929805 6.945518694607834
Ir 5.9621629568751064 7.774715616680929 4.010772883941263
Ir 4.946033028981803 3.536816640038836 7.252095271459035
Ir 8.102412289563594 6.202945387574793 6.240461072962741
Ir 7.592490792228486 7.204590122140739 8.587632469741619
