14
Energy = -90.66156734 eV
Ir 7.055247092407802 3.028243048696293 4.571326159503881
Ir 6.859830039215443 5.433285433824722 3.950036231147551
Ir 6.690842555023944 8.366284809167054 5.7887316255469665
Ir 7.897601916931823 6.2560527851785634 5.968520193888534
Ir 7.170361835783249 3.978573855567642 6.850720326100835
Ir 5.580534350452125 7.457573973476303 3.8813863306309684
Ir 8.807423096040807 6.715488894545868 8.210693872310134
Ir 7.170287108823798 5.144477556099186 9.038572969370943
Ir 5.090300649912481 4.379303451753584 5.3404938033699985
Ir 6.272752318064646 10.082932171096287 7.5191312156847765
Ir 6.7751669142724795 7.942262846072194 8.536074827147594
Ir 5.592245709803877 5.965536722854739 7.260380597730975
Ir 4.558380476578392 8.247375575431969 7.197961063252398
Ir 3.9376269085607385 6.55570683712471 5.443170334166783
