11
Energy = -69.13746115 eV
Ir 8.496069909988396 7.64408748145197 7.1891313688009015
Ir 5.533268846914902 6.183990863084236 8.222528846889835
Ir 6.575257524726836 8.241679617830155 8.718431698262725
Ir 5.939789942565061 3.7667683922245265 7.561189510886417
Ir 8.37889312638881 8.3641716778644 4.795753579340963
Ir 7.452811719975708 5.571042666186848 6.681108567946649
Ir 5.385430658970645 6.84459043684071 5.771008725081141
Ir 5.803213582944652 4.384913599371791 5.079930195481849
Ir 7.330839008411835 6.291569053962497 4.266177268438385
Ir 3.897466182276714 5.033068825016854 6.669749663996678
Ir 6.445145970724238 8.91230385222901 6.283177037025124
