10
Energy = -60.55899661 eV
Ir 6.222514627323824 3.5736854872824955 3.5005520665365237
Ir 6.953413347657596 6.23453452756802 6.921701933630114
Ir 5.029386440982505 4.473309348565288 6.736407464936974
Ir 6.81002111727606 8.187328863402623 5.219988949233029
Ir 4.798583279706652 6.273081180340986 8.405864720120006
Ir 4.637303843496843 6.91147895894195 5.870324660905178
Ir 7.167703919583165 3.8676361384717275 5.735511176355849
Ir 4.269661046889005 4.71134046419038 4.433299825244836
Ir 5.832747338921235 8.479677177416619 7.528368945066933
Ir 6.53645565330217 5.905756968006049 4.316058602942157
