11
Energy = -67.79573631 eV
Ir 8.771948025162303 6.242872441059094 7.344689159154107
Ir 5.944349154712781 5.961908184306938 6.634622208797923
Ir 7.838921916617414 4.606384787928538 5.7085513242228005
Ir 6.860275406847607 8.9725147583007 6.40863798251346
Ir 5.3616834953261945 7.6530001286769025 4.895755304614784
Ir 4.489623273365395 5.730987213919452 8.696921229575459
Ir 9.424439466110092 8.541835045926897 6.4249477877932
Ir 7.754631587160979 7.008516238973908 5.096244209959272
Ir 5.512509640492269 7.919968865304204 8.228341081517371
Ir 8.072412284309827 8.343222375852 8.515824152129346
Ir 6.928428139386543 5.978012798830511 9.004687274832984
