11
Energy = -67.64897637 eV
Ir 8.286741236849815 8.57760595839389 8.288642692878838
Ir 4.925331929088276 7.112297548244409 5.795982701841427
Ir 7.047707470015494 8.494130496040802 6.091523596465368
Ir 9.263710881991123 7.2655858359159105 6.156624598888676
Ir 8.514781204920974 4.793999877454455 5.9835884365962615
Ir 6.039764874755125 4.781043625814561 5.983663578082882
Ir 7.252479803435743 6.530068508503142 4.583345354811545
Ir 7.395017256705531 6.297900414873396 7.659559426425076
Ir 5.80037207945083 8.194890947282985 8.264436417605914
Ir 4.833507195865057 5.925961998656967 8.011453720107735
Ir 3.585614115541698 4.972806026212697 6.121043443816216
