12
Energy = -74.79710563 eV
Ir 5.814796023440035 5.611217027897533 3.5364767456681165
Ir 3.553106703109033 4.526154555775122 3.9441429677076267
Ir 6.185275765347868 8.040452240606566 4.02058789680358
Ir 3.7669506466840588 7.056976034416823 3.704277742597291
Ir 5.923199063573177 3.263322352352504 4.181223769208213
Ir 3.7022975776894484 2.050653691093809 4.302877655640535
Ir 5.855089672234299 1.6750257931350176 6.132434189877891
Ir 4.640023651004914 8.310524336691119 5.960017113644733
Ir 6.2446668354866794 6.266493075166019 5.894966940435114
Ir 3.7707223508197187 6.0018791421546265 5.983154355106053
Ir 6.736759199030789 4.027795060384495 6.5035200652392975
Ir 4.2114591015207425 3.5738532802671408 6.240667148011875
