13
Energy = -86.00209478 eV
Ir 7.4278565638661105 7.824033651867516 6.601325237523225
Ir 7.427852612288375 9.161986664281354 6.6013345160027255
Ir 7.574318605310503 7.822504692667314 8.996932448964344
Ir 7.574318400644318 9.163509357841916 8.996925462868736
Ir 7.693104852408999 7.8003899635283185 10.36472031586955
Ir 7.693107123632773 9.185618275387704 10.364709192007142
Ir 8.765329364046803 7.819571178253011 6.452900133075178
Ir 8.765328899563814 9.166443721028402 6.452889764839728
Ir 8.94771664227494 7.823285030755503 8.828247228147584
Ir 8.947718809383833 9.162725396991355 8.828247939360164
Ir 9.063522363447113 7.796617911589382 10.254546233309306
Ir 9.063527897486733 9.18940035212333 10.254555028801786
Ir 10.937005882401278 7.964620820440337 8.996932448964342
