13
Energy = -84.19510588 eV
Ir 4.9157031887122935 6.889453879821757 7.526651271413362
Ir 7.716823314780309 6.949352241170663 7.8917102584098515
Ir 4.2029041629116035 9.071462529804887 6.548071121602949
Ir 6.1011078490757695 5.70061673656275 9.270836488923097
Ir 6.542852522227033 8.640487248721163 6.357160402232556
Ir 8.935176846318438 8.468474612841636 6.416024591198295
Ir 8.859751333144557 6.813140438675035 4.6342053449630525
Ir 6.413281038041688 6.946746317263083 4.67321161179126
Ir 3.956497941324656 6.991041594043098 5.149230730374946
Ir 7.776160656629261 5.262090164689317 6.155884050779305
Ir 5.171467916869176 4.972034981418977 5.768520919542094
Ir 6.286300388917796 3.827777203722945 7.744489088122527
Ir 6.761170771455761 3.072724313603826 5.475390789957945
