12
Energy = -74.77245094 eV
Ir 5.172228863598715 7.3531610489335755 2.116988329524189
Ir 4.627770345699588 5.087173000005955 2.751206449270728
Ir 6.533810578867167 6.216093928244136 3.970353873351442
Ir 4.193135745910684 6.888804311255938 4.4837268363458005
Ir 3.3712665238380066 4.419368011915383 4.8900332096611265
Ir 5.787818893784576 3.8361551174245374 4.652717169133534
Ir 7.391773539781263 5.201026317122152 6.1342063871421875
Ir 4.658195164010977 3.288321323551445 6.793516152924156
Ir 6.066546186005134 7.427718257622637 6.184834260071847
Ir 4.288218160942635 5.779340849275351 6.826419865497141
Ir 6.727749691252809 3.6006214018226546 8.000060042238552
Ir 6.283092838072854 6.00382296459079 8.297543956603707
