11
Energy = -68.61830425 eV
Ir 6.398522906026692 8.861513794014826 7.053569989733784
Ir 4.355578410907861 7.437023074386534 6.775270457745257
Ir 8.701235819894835 7.6562961018666025 7.274695312950462
Ir 5.243828361536281 5.009872074173898 6.792543274428354
Ir 7.721069066762462 5.2468017248274865 7.08193404493555
Ir 6.410375746437996 6.8047845532108875 5.451942902059178
Ir 6.068150902070183 6.700337680143471 8.478805835769586
Ir 7.509281276581877 8.611499596894406 9.286077818431508
Ir 8.400128568984337 6.183866958802308 9.304812906457403
Ir 7.983508082260284 8.749955470564219 5.113028322613105
Ir 8.871500502885192 6.324189059118506 5.134181358221739
