12
Energy = -76.50349359 eV
Ir 5.734321375367897 5.942323263780313 4.627121179593998
Ir 8.992935339781514 7.088694633403636 4.741333054486589
Ir 7.916679554755921 6.9820770776873875 6.975051960433266
Ir 5.457780343114102 7.636741043591005 9.284862812319748
Ir 6.315297220104254 4.439383004784708 8.581876726691243
Ir 7.983632764411534 4.9586989687940655 4.119251535520498
Ir 7.090189437048313 4.783733955087136 6.35474473901659
Ir 6.774627318715825 8.060917706867258 4.9243111183839225
Ir 4.142910415447528 7.726163798296573 5.49209777453582
Ir 5.860472868258626 8.607922379090086 7.1525225837550135
Ir 7.530704242920423 6.419130769053696 9.284891798582306
Ir 4.986561541702822 6.14032582119341 7.248047138310276
