15
Energy = -95.21382391 eV
Ir 7.384201925319546 6.94473936693814 9.130781794341779
Ir 5.287442387835833 5.633208618946631 9.761592363283013
Ir 5.288219479929637 8.21480615787109 9.843017276775337
Ir 6.532065490481591 4.8251508959867095 7.706076606652729
Ir 4.937377220276774 6.9920063690639065 7.6306664866780425
Ir 6.533041492472304 9.149914120179448 7.843084048960021
Ir 9.09608729070584 8.32319908494392 7.705363386783246
Ir 9.09430456282045 5.657408964985784 7.621191151053042
Ir 7.292181327783787 7.026833983196823 6.533786418072225
Ir 7.254553818958454 7.106498549664016 4.000472467548284
Ir 5.468684008893261 5.7290895063970995 5.401236543386254
Ir 7.934841783940049 4.839414384313842 5.414473141724109
Ir 5.4692741165555825 8.395108975029823 5.486172652609975
Ir 7.937449951741234 9.280909530234991 5.557120034253985
Ir 9.568545819142843 7.061854000251627 5.417350879819493
