14
Energy = -90.35330794 eV
Ir 3.65394203282978 7.8444420914595945 5.462926104646784
Ir 6.08610499576183 7.501261483334388 5.183327326713555
Ir 7.964510639209688 9.136140046393981 5.460327164482705
Ir 4.360384164232833 5.549205256981213 5.434685994444868
Ir 8.665217451931456 6.8408906550215125 5.203697858385366
Ir 5.537187246466369 3.5327433153613677 4.763603125827999
Ir 4.658406075995209 6.9885963564199605 7.559323644443392
Ir 6.717892335307056 8.650875110177823 7.478945173452245
Ir 5.577934377167348 8.213611407353556 9.53444052546767
Ir 7.653917481334358 4.423676350673117 5.500075053996525
Ir 6.147498718914253 5.8161219686994095 9.287466436061464
Ir 7.401705452384422 6.306773116205141 7.256084277024273
Ir 5.750830089274515 4.3836813292040056 7.1668001925884335
Ir 9.82068770037721 4.800035104020009 4.686866183177763
