14
Energy = -89.36754836 eV
Ir 5.935483151114594 5.150965015266136 2.281236570900983
Ir 4.35709429856222 3.1223092936962367 3.0018712328343855
Ir 4.352706578895475 7.748374906698256 3.7711923570845705
Ir 3.571984591171698 5.53582263266657 3.028857272713453
Ir 6.47582437415651 6.432654815432715 4.3002174996550675
Ir 6.210723933953985 3.900867554309611 4.518788193353596
Ir 4.46062011881565 2.2749732554182094 5.403674495973594
Ir 2.5992409291568688 3.8831640221168695 4.740254135219628
Ir 7.68651604614675 5.325193234331756 6.123045556948043
Ir 5.408564876320028 7.869374794175743 6.078675102810338
Ir 6.1703382156905615 3.4063164909702763 6.99912982171717
Ir 3.881812871415839 5.898280713103072 5.518215778788909
Ir 3.6970988431975784 3.9993103919474184 7.160624298471419
Ir 5.544922926971348 5.805324635435829 7.427149439098083
