10
Energy = -60.53179149 eV
Ir 6.642335281747758 7.031939572324386 3.2832521123725193
Ir 4.747825038143517 6.781578640490959 4.805407739659499
Ir 7.250569636064589 7.203463178240926 5.676412713090877
Ir 3.205439783718962 6.388799955353864 6.661999854497145
Ir 6.662427832961152 4.944898199844395 4.765094398975963
Ir 7.138483558513657 6.9467444711797945 8.25497835743366
Ir 5.459147838158803 5.441463714886797 7.051417550521296
Ir 8.009244283500378 5.04278939007556 6.813869538668554
Ir 5.191786987374496 7.937626588733641 7.146158316708001
Ir 9.05619559599284 5.644152125046118 8.904865254248655
