12
Energy = -80.09818772
Ir 7.184709678146483 7.187485966804153 6.010932407079063
Ir 7.210552568743982 7.207940247571287 8.403832107302009
Ir 7.210933719908875 7.202879142599924 10.803508200763375
Ir 9.612545119535406 7.190111658222464 6.004660715506936
Ir 9.599144315330316 7.210499439178459 8.403112367196657
Ir 9.611099899980815 7.205479799951588 10.79729226200984
Ir 7.1820714536851895 9.61533879329172 6.010134770220371
Ir 7.207948311510141 9.596548949888597 8.403112367196659
Ir 7.208286607463202 9.603114725834224 10.802827601024154
Ir 9.609897660078476 9.617986887213803 6.003869132905249
Ir 9.596535319684852 9.599142706998629 8.402348696135707
Ir 9.60848034593258 9.605675682445165 10.796574372660059
