13
Energy = -82.49199848 eV
Ir 8.430135557249768 6.03104331830897 7.543274087942025
Ir 8.485344443530096 6.9846351358791905 5.000105663066966
Ir 7.675051515733705 4.716301536032091 5.5090026008853075
Ir 6.940034301477409 7.854284052991661 6.755972587553781
Ir 6.34825462184091 4.569998870864483 7.649007105557476
Ir 6.1400994784273255 6.722475462256681 8.82611488811757
Ir 5.584240343902072 3.346354035396569 5.600507680629962
Ir 3.916446486445661 4.885465088261596 7.40937217837052
Ir 4.489339411799946 7.324326195431937 6.967428343752327
Ir 6.375149599273403 5.1780262563575645 3.4646093018361004
Ir 5.023213782201503 9.324107936919127 5.684279720443266
Ir 6.052077982226284 7.51641890253432 4.420201801950267
Ir 4.615858211874057 5.576218950955671 5.148606244348605
