14
Energy = -90.57730198 eV
Ir 7.121780691592342 7.8128826677419365 8.6914201221772
Ir 6.578085840010077 5.462599309358756 8.212474756326833
Ir 6.301219891637448 9.752800719347846 7.429082639051103
Ir 7.854936747012156 6.773742859231401 6.5118913325767025
Ir 8.346311578168505 3.7666974009338716 8.339369639576311
Ir 4.960175854611856 7.647363856032846 7.340984906066683
Ir 8.959982978176543 4.577585912305406 6.109357690227942
Ir 2.9709938438683885 6.78486336650266 6.207939209780415
Ir 6.964897218683378 8.66396853238267 5.3715679955082924
Ir 6.616775062199708 3.555815185354717 6.5074287096285826
Ir 6.833493700470002 5.398897050463771 4.759003293769755
Ir 6.751201105434222 7.352919549127253 3.2673734643103858
Ir 4.743474088048208 5.103780040688502 6.391793939196859
Ir 4.884963577909498 7.2396943781015235 4.7774567567055675
