13
Energy = -85.22822026 eV
Ir 4.868418739854866 5.289386602607143 4.374409070559723
Ir 5.467602473997782 5.285245115956842 6.680774466822016
Ir 4.795682425454406 5.291724494279854 9.041582298833648
Ir 7.184994421686963 5.294282985616918 3.738589885922075
Ir 7.87847879018728 5.291614157404285 6.014618262784364
Ir 7.252618865865 5.31997308900651 8.538086821640075
Ir 4.87000762707437 7.692674792607278 4.373114581109655
Ir 5.469041722925316 7.698568874651649 6.679304962932162
Ir 4.797059895766355 7.695609820048782 9.040302876501903
Ir 7.186571474753744 7.68413139703386 3.7375026105812212
Ir 7.880003129962542 7.688312767145418 6.013151185878455
Ir 7.254095105818254 7.663704922802781 8.536800280047311
Ir 9.480305853012752 6.489651495460595 7.61664321883409
