14
Energy = -88.14434266 eV
Ir 6.952837815955781 7.722775245541394 6.97744905170123
Ir 8.280736641536967 9.407702725186788 8.27704783420573
Ir 8.104481836494593 6.72105763011242 9.200107097100732
Ir 9.57358109470326 7.665177258744971 6.97744905170123
Ir 4.6737026836733975 5.02910963282397 6.97744905170123
Ir 4.473859677971501 7.968231769760322 6.97744905170123
Ir 5.666798406674984 6.504107241504545 5.253921091613363
Ir 6.7226036509494085 4.221198740918839 5.608194414491176
Ir 8.320974947314198 5.530746636568619 6.97744905170123
Ir 8.280736641536967 9.407702725186788 5.677850269196733
Ir 8.104481836494593 6.72105763011242 4.754791006301726
Ir 5.666798406674984 6.504107241504545 8.7009770117891
Ir 6.7226036509494085 4.221198740918839 8.346703688911285
Ir 6.140089432887449 10.060113637516382 6.97744905170123
