10
Energy = -64.17630273
Ir 7.084735570719752 6.412417360979703 7.0818556873515055
Ir 9.478880498786733 6.413268649705009 7.08164306951445
Ir 7.064803900023495 8.805569011777257 7.1066049180078545
Ir 9.499207882498457 8.805114663935456 7.105921724112536
Ir 8.282040242047783 10.973790996022306 7.079387366026034
Ir 7.085040862932613 6.412055656079022 9.482001355171533
Ir 9.478908298474456 6.4128212382199505 9.481800485889977
Ir 7.065178563977358 8.805469352759207 9.457820899158882
Ir 9.499095938491582 8.804990444252898 9.458338707330062
Ir 8.282040242047781 10.974209952883502 9.484554787437096
