11
Energy = -68.17735748 eV
Ir 8.680872357214923 3.7901477240166717 7.2971494309484815
Ir 4.6238883212145705 4.55910505170101 4.9160933238589735
Ir 6.847175816994214 4.4072814730430325 5.9890879006222395
Ir 6.903870469926826 6.304393869288163 4.539205486226902
Ir 7.833430838538775 8.457365030027411 5.002185563947824
Ir 7.360252324390822 5.489032364301696 8.299267193515323
Ir 4.90988269346445 5.917808331901118 7.030854974212819
Ir 4.682536607951504 7.114390278753947 4.875066253519211
Ir 6.767793529706479 7.671475627893314 7.132607911539836
Ir 5.594041126972231 9.238986277884484 5.456725378111576
Ir 5.5169414273108455 6.789018247302657 9.187932857388024
