11
Energy = -68.13302228 eV
Ir 7.762392253441772 8.183166483221637 7.508843235829609
Ir 8.301369015119962 5.699837435887643 8.030355712919135
Ir 4.555298407518559 4.272168332484307 6.147291146309825
Ir 4.89087857328293 6.6671061945573245 6.058230152551667
Ir 7.02284021112232 4.898036319623548 5.997844372485791
Ir 7.213173449480009 9.05392680436661 5.165899748478629
Ir 8.645365258686223 6.7512414883307805 5.668514637630935
Ir 5.937118396592303 4.248414902195641 8.183276316830248
Ir 5.409537324460212 8.92862400766976 6.908306096417725
Ir 6.000585258171845 6.675295755288411 8.28904876685372
Ir 6.522510392363519 6.883250816614756 4.303458356112987
