11
Energy = -65.57932989 eV
Ir 6.9109691091234 9.195642006851122 9.1885004164434
Ir 8.423310502837404 9.738556979073651 11.10614989961346
Ir 6.789313176627595 6.576113497415209 8.974366859303315
Ir 9.422034399452262 9.88339580478061 8.873701560423761
Ir 8.470809349424547 8.176284440130388 7.3921487514300726
Ir 8.912079981947107 7.2955909203645515 5.185428926315401
Ir 10.704105711025138 6.591271827215976 4.042859749307565
Ir 7.2119097447228215 6.122351766552276 6.378426613536046
Ir 8.769177680297103 7.586942484563356 9.953869278293277
Ir 5.865726854561385 8.174754924842183 7.203041919219984
Ir 4.995382643752372 5.8459919406969805 7.441478289071473
