14
Energy = -90.33663454 eV
Ir 9.097182460399047 8.140698177498093 7.664811644975832
Ir 4.949972807861975 6.906361053527363 9.42123415042284
Ir 6.756105661478886 8.123869472106627 8.35061357802599
Ir 7.52452780557632 6.120708931661311 7.191228767086853
Ir 7.549103577938041 8.244672229519509 5.7922971914747565
Ir 4.538814974775282 7.9356586911296905 7.141320062122952
Ir 5.718015190409357 4.865948124969508 8.32201933799444
Ir 5.276400401652656 9.103450866424772 5.137811605532294
Ir 8.043893011134536 5.719262527590899 4.7592224286351374
Ir 5.187388527055681 5.85665644055526 6.115335706446429
Ir 5.998629148993949 7.002622206658991 4.121908864594881
Ir 6.035607615123564 2.7440924168980336 7.244122037340383
Ir 6.268663730455384 3.8460251110670476 5.182701182393394
Ir 6.554489905637723 4.844994347845897 2.989856966305446
