10
Energy = -61.08632141 eV
Ir 4.60547535862132 4.378992445044729 8.069544774073941
Ir 6.708085843247818 5.8568035412590485 4.421085986196022
Ir 6.801228422087395 5.414282519964728 7.973009904609672
Ir 5.8090436556430936 4.302440264224512 5.925173790245563
Ir 8.887326187945018 6.357250174602998 8.531015064617806
Ir 8.262357849739068 6.746416106619868 6.305154696077206
Ir 4.6858407037204035 6.466398686698239 6.869608373008169
Ir 4.0663425895450125 8.689922097415318 6.398137649414415
Ir 8.170288905908896 7.821948191529068 4.164333740284663
Ir 6.151296112072826 8.082180637753558 5.516776441050859
