15
Energy = -96.18214403 eV
Ir 5.600768556364329 4.51028578022794 2.424837438118162
Ir 4.732946429464558 6.786306148478351 2.275299040699655
Ir 6.694780768578174 6.326538969054692 3.8948647898110944
Ir 2.7850601583460115 3.6460765480984403 4.323076507196689
Ir 7.351735406128515 3.6573081925916893 4.076787549255452
Ir 4.941672489551329 2.4369485416869496 3.725009089209256
Ir 5.157452914039068 7.990631202994614 4.801330932334529
Ir 3.201691600216686 6.316807070439052 4.16194169363452
Ir 4.943040742877133 4.782963272312643 4.890855541200959
Ir 7.112642791023183 5.041606922334079 6.23626662673064
Ir 3.5111006477361464 3.858664291540998 6.7112013125659224
Ir 5.948788277284451 2.757728222523335 6.137324420643612
Ir 2.5963153147214073 6.154338045574874 6.551916372562863
Ir 5.021794484099762 6.496151755401523 6.731926335436551
Ir 5.4970545319053326 4.334490149075749 8.154207462935458
