15
Energy = -96.41330811 eV
Ir 9.78586768391875 7.08945746014804 8.203324933309718
Ir 8.379197921703684 5.306121864992698 7.40372025191001
Ir 8.34396338559432 7.380303569413186 5.908313712700879
Ir 8.690091287862044 3.2066732577467563 6.179889991236629
Ir 6.783249994222198 7.212600564443872 4.052337234205292
Ir 7.422644730034088 7.713761207397558 8.145459950890574
Ir 7.683387035803405 5.08040408733354 4.985748437278297
Ir 6.35472587452597 3.6984559577305745 6.780423211239577
Ir 5.529723226607919 5.921879123380485 8.012510086694942
Ir 5.130585202147651 5.733829735193696 5.483386774603674
Ir 5.073858754656969 8.282737046307558 8.06392357061062
Ir 4.764009822803442 8.251435586983934 5.487600192813794
Ir 4.4221723602252965 7.019010976520501 3.437562830899036
Ir 3.9973290379924626 4.258867465324137 7.075479047895229
Ir 3.7581941088258164 9.85717170537783 6.848326753027145
