14
Energy = -89.90006243 eV
Ir 5.085340340720705 4.296179261769496 2.732537840836647
Ir 5.92863968614688 6.683246586870638 3.1595165677559103
Ir 3.500985903969782 5.959287973852794 3.6322002129535655
Ir 7.437595784818759 4.8296014049074865 3.732769662039629
Ir 2.8924310555524744 3.4427947214586108 3.6615829883834823
Ir 5.191920331768594 3.2765399803916893 4.972650469890282
Ir 7.5882290158179515 7.1452880439860635 5.046320069631718
Ir 5.087525473414881 6.650663813400491 5.5244446620135195
Ir 3.397828150840312 4.697063198376386 5.843466233309379
Ir 6.78961417082348 4.919024226054625 6.09913023098157
Ir 6.568359240455593 7.838352583130932 7.180993526608174
Ir 5.080548416113785 3.782303727836143 7.555833805792768
Ir 4.235027983924556 6.185363773591624 7.848585865897119
Ir 6.651082974509433 5.729419233249769 8.44509639278314
