14
Energy = -91.39643236 eV
Ir 8.674287461309962 4.37018496354572 4.885317261408682
Ir 6.370730106634183 4.775028410125904 4.123282493215733
Ir 4.665306327323893 6.332548438535969 3.3802742692512937
Ir 8.001442409145232 4.3720755127382445 7.234162531726161
Ir 7.700270493099262 9.021854335245736 6.15519418769999
Ir 5.805769743087685 8.065947086081648 4.738495716542497
Ir 5.799604001609186 5.168102965220202 6.483930283217175
Ir 7.808087656209053 6.696856944401216 5.007601822170964
Ir 3.982801518775603 6.631445870157483 5.733815460415748
Ir 5.745084687214215 7.978395499414797 7.355123536026801
Ir 8.008506788332786 6.902309625280881 7.483403718641001
Ir 5.285820909465471 5.870695500412631 8.789704862664031
Ir 7.576600800433566 5.462909645272268 9.45402914640552
Ir 3.43625803466963 7.299773330179288 8.01871466222127
