15
Energy = -96.25480071 eV
Ir 5.88292449308859 6.7065335453532615 8.143873547661823
Ir 8.49217281487905 6.903617627855825 8.665862043760002
Ir 4.867001013791364 4.215223620858431 8.373892017462966
Ir 7.359481023234856 4.6752516457812385 8.319624231523774
Ir 3.778872769512999 5.996881552242451 6.906419625230623
Ir 6.004800238527291 4.564082997611344 6.135240895373319
Ir 8.166972324652981 6.0902266072075255 6.304141204716373
Ir 5.3489020707145905 7.627712952267515 5.767568810215762
Ir 9.600599680066173 8.19074418129473 6.354161530838149
Ir 7.275798734957925 8.549203791557272 7.143252116450171
Ir 7.704076833557677 8.168924919312252 4.673976996193987
Ir 5.477214686423167 7.814711146950571 3.29522987208458
Ir 4.2912792934271105 5.594278324067796 4.431275674428939
Ir 6.798403312451435 5.880200241423438 4.126670741634542
Ir 3.6037679939021916 3.674674199986219 6.011077975612257
