15
Energy = -97.61558392 eV
Ir 5.605592268357283 3.4282969019753113 7.1878185423967516
Ir 4.3534213973720215 5.7380172647273815 7.087804376126737
Ir 8.333295190427952 3.703906215715234 6.99538007907664
Ir 6.725626792051207 4.70498280532849 5.315334742881223
Ir 6.825737518663082 5.582617037529167 7.783814315191815
Ir 5.531133627796192 7.731419841105634 8.187949939968181
Ir 8.84195781200406 5.984386227899374 6.129097981976681
Ir 2.6010596596490756 6.0160711195723255 5.243721514474284
Ir 8.931199444906143 8.419286295118813 5.41219519681145
Ir 8.061322762424467 7.787133388812983 7.750657939050481
Ir 4.215996870202087 4.105730150970785 5.152956621814832
Ir 3.920551221066858 8.099394602923171 6.18700520434472
Ir 7.471575868482782 6.806032459738889 4.0982590664183265
Ir 6.4194629398701935 8.26720135394696 5.878132347104604
Ir 5.01549168536039 6.488003674180362 4.545881533489302
