12
Energy = -75.56585919 eV
Ir 5.632150861222921 8.219136141963277 6.282534813527107
Ir 5.632150861222921 5.519388036226345 6.282534813527107
Ir 5.090466800681055 6.869262089094812 8.40393961491995
Ir 6.869262089094812 5.145624391880586 8.525595406028469
Ir 8.10637331696671 5.519388036226345 6.282534813527107
Ir 8.10637331696671 8.219136141963277 6.282534813527107
Ir 8.64805737750857 6.869262089094812 8.40393961491995
Ir 6.869262089094812 8.592899786309037 8.525595406028469
Ir 6.869262089094812 9.269611572439768 4.332570216851338
Ir 6.869262089094812 6.869262089094812 10.366971038661715
Ir 6.869262089094812 6.869262089094812 4.409824234476051
Ir 6.869262089094812 4.468912605749861 4.332570216851338
