15
Energy = -97.52253419 eV
Ir 3.3202850627319727 5.037247595171429 3.9097605108510267
Ir 2.001814352118417 7.015252028041923 4.728748610877062
Ir 6.969430827250732 4.912147347470013 5.780079596868461
Ir 4.4779052625655025 3.433437296574382 5.315632639524764
Ir 5.330349503386833 4.237863853337516 7.566629499296819
Ir 3.6927618323722187 5.735934109866991 6.298353714509333
Ir 5.853103353062496 6.826688415204845 7.0271540145317815
Ir 6.053967195766749 6.555915077359777 2.006056998721241
Ir 7.7030733270887275 2.957004782606264 7.094895261461306
Ir 5.882571474066297 4.5862717409367875 3.4308890975087976
Ir 6.21281286962021 6.92126643302753 4.511647562787782
Ir 6.790345587294408 2.6349537901529074 4.713478872971966
Ir 4.151377235411286 8.07942704388792 5.5594259821745595
Ir 4.041262051892382 7.29104000631667 3.172863745286369
Ir 5.536972545959915 1.7935829606336573 6.902416373217308
