12
Energy = -76.0552228 eV
Ir 5.1096587995455085 8.19475019384788 8.486430412003909
Ir 5.261868209733937 5.844153230928968 7.625916804956073
Ir 3.899187840436025 7.703046378166254 6.48420892950188
Ir 7.702692413890503 6.209879897940342 7.173200368882449
Ir 7.223351240396351 8.622650972987623 7.362230565894991
Ir 6.8603373412390525 4.266756328785506 8.578098365006753
Ir 6.182650790327357 7.608082046507407 5.35656028294219
Ir 4.054180146432839 6.754510838135061 4.26168200148286
Ir 8.529687607987276 6.967011774818203 4.962115007013094
Ir 5.648729466754939 5.16222392020882 5.2091668285794634
Ir 7.561348942823114 3.8211958518375884 6.301057317892159
Ir 7.879269333561472 4.777473319353743 4.131749374347749
