15
Energy = -97.44892725 eV
Ir 5.986274877256117 8.854741650548801 5.588222148244006
Ir 8.04966256490964 8.204780616096054 6.807395201410864
Ir 7.851637498861915 6.8734722224253915 4.708022385042062
Ir 9.92394313918492 6.596618217900606 6.367813591179552
Ir 5.756893373863465 7.363669226427054 7.638793274642655
Ir 5.407956764251048 6.4743190350823685 4.917674272220947
Ir 3.7174206306664894 7.95276404251294 6.155142805735906
Ir 7.846191708713326 5.836806872212909 7.787870746946142
Ir 5.782075789876148 5.166001562996954 8.954949876100288
Ir 6.594303055439028 4.383594628616151 4.082927827970829
Ir 8.530652176385418 4.653734425698742 5.612729703153531
Ir 2.5080074743111047 6.009277701827853 5.125420212852547
Ir 6.179960171256157 4.2525236670727695 6.593650445046597
Ir 4.22585892992552 4.194545672200565 4.891444831081427
Ir 4.001945514529358 5.52749360487428 7.161585476170837
