14
Energy = -89.38372878 eV
Ir 6.010907686978652 6.7220202174342445 8.343775089794647
Ir 8.531381662452286 6.933245471593317 8.944550851734933
Ir 4.962911057868174 4.379962794608875 8.808275910860594
Ir 7.468230484212392 4.675679060444049 8.528193172456387
Ir 3.851226946705574 5.979641952029943 7.181611114146454
Ir 5.977926517275645 4.840878993508425 6.4518829654107845
Ir 8.25655164928562 6.1707715227808455 6.518957654801262
Ir 5.424492477706779 7.691271726718358 5.959926374309859
Ir 9.68289025766517 8.24100055347781 6.594914833446871
Ir 7.353896705401676 8.612521345293604 7.396559780942222
Ir 7.802605251799135 8.241998467817732 4.918817574992998
Ir 5.747020834401377 7.99716993673125 3.482427637973806
Ir 4.296415555434076 5.773945768106202 4.69912347201516
Ir 6.841768754463772 5.94811806784045 4.379209390397123
