10
Energy = -59.38100038 eV
Ir 3.384081131999211 5.640455281183282 5.379511620766688
Ir 5.623227194694081 4.710440327666848 6.051436761230411
Ir 4.7640583472302085 6.78309028066864 7.215337079376244
Ir 8.995638334219175 4.394432423001017 7.077907406509662
Ir 7.046050739189879 5.790110844811199 7.890330332633431
Ir 9.223795123985354 6.89929773007486 7.212601085694567
Ir 7.0056865801108055 7.941577263080383 6.563889477983359
Ir 5.541533672751427 6.85188862464856 4.704391982932057
Ir 7.8152679150042985 5.854548772852615 5.380998226541244
Ir 3.5980492457954765 8.152710766885761 5.514949141251442
