15
Energy = -97.51325517 eV
Ir 9.908608684956226 5.407306520711333 7.46272183131679
Ir 8.363122972812189 6.439070884040865 8.99539651972438
Ir 7.255579878997754 7.772626669648095 7.258343065500784
Ir 5.411181232175728 7.128273982865544 8.906667183502147
Ir 8.468129035119397 6.312097628692695 5.6003626524758126
Ir 8.448880397730552 8.786252131627661 5.342506933944084
Ir 6.6525311610469 5.099947172582485 7.91216943580529
Ir 8.250800749853822 3.913818749776944 6.4439517904851105
Ir 4.7573987066707275 8.082631169611663 6.680226999249275
Ir 6.301889102526191 7.76350100528512 4.729264205999374
Ir 4.322222393715969 5.564274710962556 7.178079147522244
Ir 6.219687037129839 4.9714305754715395 5.389718866911599
Ir 4.00795348042456 8.777359578255021 4.467644938727556
Ir 4.145694297034374 6.332139483618361 4.653493289214432
Ir 3.876202267486956 4.007023280873212 5.363813859422463
