13
Energy = -82.67570435 eV
Ir 5.623704741680251 8.330230575513742 5.089911486535962
Ir 7.892416109975053 7.853872758525096 5.843277679244882
Ir 4.038461957767764 6.427462215343391 4.209195172342288
Ir 10.171142642859751 7.188087443056719 6.657793254889085
Ir 6.462512800578664 5.9591054118019 4.61426492553236
Ir 3.5563189546134564 7.498718706410063 6.419965127257217
Ir 8.228187175569488 5.978439441882403 7.5713697893505465
Ir 5.9263932915985436 7.310637987825247 7.4472286234135066
Ir 4.749491020513117 5.180149543057743 6.37018094688194
Ir 3.8723006352003404 6.184754986748058 8.557796507468634
Ir 8.93327347412663 5.6021296683959525 5.137133632490647
Ir 7.081655796568585 4.175937878767159 6.250647745004397
Ir 6.124849554039755 5.0422018563703865 8.575318523561181
