13
Energy = -83.52632971 eV
Ir 4.8816921857409135 7.085564452624179 6.808862968680909
Ir 7.090926713326244 6.181698710834933 6.736579366598506
Ir 6.207712063155998 4.143614680423876 7.903903301424675
Ir 5.382750314272197 8.608154964445205 4.983354390773489
Ir 3.870001728907026 5.117524634438667 7.754708000882536
Ir 7.381494238448713 3.7488100520286016 5.743665389023713
Ir 7.695310737135214 7.848175950445843 4.994311175177459
Ir 2.653002220167367 5.1387857208403895 5.567819205475489
Ir 4.84982204746413 3.9086006694649584 5.707353035797724
Ir 6.988189657013851 5.699972458390362 4.179495576053806
Ir 4.6220799986333585 6.32801617220021 4.42198601009664
Ir 3.9058975141878958 4.239298294761745 3.3589712274075705
Ir 6.196411380415045 3.486794982984748 3.47069520286336
