13
Energy = -82.53271435 eV
Ir 9.106470351234213 8.103531452826806 7.85749181480717
Ir 4.6185369026050465 5.621475801012459 7.85749181480717
Ir 6.862503626919631 6.862503626919631 8.145714490277495
Ir 4.6537952019980855 8.23310433004315 7.883716045983546
Ir 6.9709938096231046 9.32246661260737 7.5198906874485445
Ir 6.754013444216153 4.402540641231893 7.5198906874485445
Ir 9.071212051841181 5.491902923796113 7.883716045983546
Ir 7.842391021457227 7.711515441762925 5.682043570775862
Ir 5.882616232382038 6.013491812076332 5.682043570775862
Ir 3.447606253839262 6.966353595446091 6.025780644675608
Ir 5.402131335554122 8.508978199440113 5.564493533002364
Ir 8.32287591828514 5.216029054399151 5.564493533002364
Ir 10.277400999999996 6.758653658393171 6.025780644675608
