13
Energy = -79.58450794 eV
Ir 7.114807259516206 5.76452069727602 9.266966663342073
Ir 6.96015181023069 4.529663739580212 6.89275930394133
Ir 5.815154827196174 8.11593156431574 9.009663081888908
Ir 5.590885587279275 6.050600384614973 5.215672816536917
Ir 4.881143535795284 8.32155937006872 6.468435764933247
Ir 9.211146303286412 5.730428499971406 7.560157181765114
Ir 8.267594740797403 5.940653051687577 5.02090703774153
Ir 8.496461227612032 7.986725776246541 8.820774021809376
Ir 6.972969799861802 8.28100993388877 4.767532726384273
Ir 7.126138571270506 9.5201048009174 7.14441237630749
Ir 9.185358110561145 8.083946253669817 6.270728755591846
Ir 4.901197317077995 5.97549196847416 7.767464797864778
Ir 7.04607297364415 7.024335875853452 7.01739601196386
