13
Energy = -79.56678834 eV
Ir 9.409916953287695 11.656290580206894 8.837196293732523
Ir 10.43736620174467 10.446003810663408 10.957751869663092
Ir 11.539688810659872 9.977958298107822 8.559671741783372
Ir 7.841414737267871 10.716767036114465 10.7071682125435
Ir 7.254736708509243 10.417759159269966 8.022245015177356
Ir 11.074788580602382 7.9118119466211745 10.312420299904206
Ir 9.525020337127895 9.9838568237133 6.785796697516687
Ir 9.167589768720584 9.163982828798853 9.166631533277732
Ir 6.7903113076710016 8.35734718309762 9.771046209523448
Ir 7.895795013958262 7.884894366520693 7.372394966231805
Ir 8.802793704846241 8.349709757433512 11.54640278501201
Ir 10.493488618498583 7.61669644631939 7.625382655262711
Ir 8.92470859310572 6.67454273913281 9.493512696371445
