14
Energy = -87.5055033 eV
Ir 5.803275132819218 6.265734933601601 5.828868242219396
Ir 5.1849790938082085 6.856417034172388 8.227628626041668
Ir 7.043535391010428 6.377916818095355 10.067789950695147
Ir 8.469350390078375 6.4893660661783095 5.831669806994005
Ir 7.6050927329438185 7.495423057466252 7.83174116189835
Ir 9.29970824995717 5.8036408569810005 8.650222133360005
Ir 6.977033129785135 7.8669749777358 4.302859691011792
Ir 6.130975042888784 8.85598190022618 6.507181872626356
Ir 6.206530418712258 8.937261979402999 9.403001426962435
Ir 8.675701834350958 9.16757039010802 5.585346014978064
Ir 8.231034153548121 9.93346637375557 7.987854097844058
Ir 8.816181387781366 8.169095977546467 9.928095706458594
Ir 10.015189458372985 8.142923184828819 7.512265247531968
Ir 6.960810665334167 5.057622632118031 7.754872653181969
