10
Energy = -60.89730989 eV
Ir 6.305465210625518 5.099707727358258 8.80023206642424
Ir 7.280656941672329 7.089744820903757 7.61035283236607
Ir 4.929838988483831 6.308424228492446 7.008755417321319
Ir 6.8419834751993225 7.806443243389817 3.293658790800566
Ir 6.131629402049423 8.239135435201687 5.688775494320326
Ir 8.13264207506725 6.794796976078775 5.2290897615659615
Ir 5.578088190642485 6.0847860846528645 4.503057326129901
Ir 6.9981255436640915 4.823039551715551 6.3057896236742765
Ir 4.9348776781224934 3.743233309123852 7.044901611914873
Ir 3.670887022978362 4.8759146691213155 5.303216684407538
