10
Energy = -62.23546799 eV
Ir 5.469899993122085 4.614776046627965 5.253029901785486
Ir 7.924609708878129 4.678826156659979 5.275660565282318
Ir 5.390380359582302 6.994398623709853 5.247727441433011
Ir 7.820550527794713 7.058016361275454 5.379231197787975
Ir 6.443909744793694 9.182972765078768 5.364232760065973
Ir 5.4598134234439835 4.520533517813686 7.648243107093881
Ir 7.84460679987713 4.630111179977588 7.655838875334801
Ir 5.512640858467079 6.850790997249446 7.716539465334619
Ir 8.006105831157685 6.95346797688361 7.718909079476962
Ir 4.635216516557656 9.02384013839798 7.248321370079685
