12
Energy = -75.40951503 eV
Ir 8.220458931880614 7.288742634424876 5.3418889162453045
Ir 5.883643055971347 4.672311454392414 4.999773137779064
Ir 8.911973702407145 8.748846133818756 7.165817498968146
Ir 6.497692856656909 8.612559690801683 6.841374392030255
Ir 7.635795521786496 4.8433054500116395 9.300332963512783
Ir 4.2243377712891865 3.5776752847052835 6.403128531773785
Ir 4.154772048704065 8.407781494519632 6.380712057782451
Ir 7.395295261554083 5.879732067756067 3.586977054025429
Ir 6.071085138191991 4.708159372203445 7.57618616405138
Ir 4.143101725011367 6.0140737731965155 6.472426456174661
Ir 7.826907369909839 6.6319674564091295 7.807089006819612
Ir 5.678241091418192 7.256459014253329 4.770710077488566
