15
Energy = -95.59445857 eV
Ir 5.770021534505977 8.134810647755659 4.762941430295097
Ir 6.113854661341022 8.843037773121491 7.243222985285495
Ir 3.9282172585121744 7.209107184770269 6.348035107350145
Ir 8.244228556287192 8.079000223517916 5.864887309063982
Ir 9.86090538037967 6.664211505513276 4.632506680441764
Ir 7.4919223333597404 6.073113581482612 4.198532770635805
Ir 4.970659700864329 5.578028693535567 4.463147045485364
Ir 4.974955440073636 6.676194588698284 8.693111852411958
Ir 6.319941286603841 6.4341641582866025 6.514571641637962
Ir 8.755181566869469 5.577196841875297 6.594325579722522
Ir 4.40769626332849 4.760806216499187 7.059589447794605
Ir 7.844134963302994 7.203068153794943 8.408123147941478
Ir 6.2584164259766455 8.48328193114844 9.766311791139536
Ir 6.903302911389879 4.676551138897576 8.216343318576937
Ir 6.631732213237789 4.057565472864502 5.736351730613077
