15
Energy = -98.212535 eV
Ir 4.197813569429891 5.530082294476401 7.876519297065356
Ir 6.054187110130175 7.691847872904772 4.189084167772134
Ir 6.471442392623202 5.535175325834205 9.066238978686027
Ir 8.273250214233578 8.033712443843845 5.010191663351869
Ir 8.582143787900355 5.520164264048772 5.324368598689518
Ir 6.423402879779277 5.340181468450993 3.9749938335942905
Ir 8.471277274723386 4.657773061627147 7.750917994203441
Ir 5.9241695875159825 8.029467641054149 8.841066573612409
Ir 7.758149751353774 7.035499663921716 7.324998677198407
Ir 6.29623871341848 4.917929280463011 6.5089004064349645
Ir 6.826669728364168 9.278680776816154 6.753792823501005
Ir 4.194420339927965 5.4615516055251 5.283908494617415
Ir 5.18791600776665 7.404773474317733 6.504172085043784
Ir 8.45425723400096 6.488465260189891 3.0244379301476685
Ir 4.390433280066969 6.580467437760354 10.072180347316378
