13
Energy = -83.84043043 eV
Ir 9.213982602817417 6.681940442966291 8.20859444608458
Ir 8.355272308327876 7.526397870352414 6.096486828463
Ir 7.796909320848338 4.968535923140268 7.176051444206388
Ir 7.991135415126453 7.706241892655016 3.6917402006545985
Ir 6.804461090786643 7.046682325665943 8.197392561686046
Ir 7.416903551873113 5.553267854739106 4.702609455526074
Ir 6.2919119046120136 3.555348364530612 5.705815974826755
Ir 5.955583868094915 7.809888092054259 5.020900964515429
Ir 5.24525373155131 4.950719645849807 7.498885430071456
Ir 4.749498257390985 6.456926190959569 9.360771088513841
Ir 4.86519021239807 5.536793388356076 5.0251743197352505
Ir 4.40526899375122 7.372775461180453 7.13062692254235
Ir 3.5314761447940897 7.591305616309442 4.872185881501251
