15
Energy = -96.55711102 eV
Ir 7.598311983393699 7.651799239841259 5.675043912983353
Ir 5.0170447075287905 7.4376390770012435 5.45477880542685
Ir 7.282091294063631 6.500434313776731 9.920860056530495
Ir 2.7718461077825896 5.988792450953113 5.355893587461966
Ir 3.9088792967119605 6.164632560308416 7.450468365097832
Ir 6.078345912608763 7.598280578017731 7.789086152522066
Ir 5.216518482933845 4.945770951832897 5.532206368407919
Ir 10.035179417245855 6.609910534344952 6.052524192040368
Ir 6.266666119027924 5.104266422915397 7.8641150737328465
Ir 8.483266597060117 6.521343606521816 7.8636952512225555
Ir 7.797104784321431 5.152730302707777 5.745753867748265
Ir 4.257569055172162 6.021692685663826 3.269130835087721
Ir 4.727763826518455 6.29655899811217 9.68519835447657
Ir 8.978326195812024 6.470295266100201 3.7322741069653174
Ir 6.594629668333478 6.256291772008968 3.711064643187537
