13
Energy = -84.4226358 eV
Ir 7.840092933681106 4.255480408910546 8.272975554975096
Ir 6.6428723014408835 8.248046134825161 9.338368513851346
Ir 7.734533130516317 6.613470870404848 7.73131480226494
Ir 5.444398575018109 4.216096702158514 8.516699116364281
Ir 6.454441141396261 8.909588452289675 7.050831498747099
Ir 5.360314869593502 6.5704608477916775 7.962987854997948
Ir 5.199395893538972 4.769107796005162 6.113795303428555
Ir 7.581718213946112 4.80282538436334 5.874585972030842
Ir 6.202534122309931 9.435709069599872 4.737442334953892
Ir 5.097431481404612 7.254631036837415 5.358561183254419
Ir 7.47005725929783 7.278225362520336 5.121582693655129
Ir 4.945965006044087 5.453308512889747 3.7486820470676894
Ir 7.342480644457485 5.48130228591195 3.5049497462386934
