10
Energy = -61.96239654 eV
Ir 3.8604003977562726 8.21035303823705 5.355932827595889
Ir 4.54098775080928 6.043570806042559 6.081185700879735
Ir 6.016280916741998 8.264087708975788 6.330262050797114
Ir 8.340252901328117 7.0695605103488575 6.558953717461048
Ir 6.627784427504114 6.122002717710212 4.827250507511161
Ir 7.408592688605937 8.507294381781987 8.296870036155903
Ir 9.042783257193317 5.350226305728165 4.983633910734118
Ir 6.253855955837325 6.364434371714427 8.13640551779931
Ir 7.392411929806144 4.533089723018812 6.565837717096921
Ir 5.2267379309115665 4.22659476084122 7.572578268226074
