10
Energy = -58.50021637 eV
Ir 4.073159664405655 5.099389186314705 6.889692335057127
Ir 4.7497017634026495 7.440811681898727 6.823241103812979
Ir 5.416666166636033 9.783805910771331 6.747033409141678
Ir 7.187765832785373 8.054312985590645 6.805172934452491
Ir 6.492022500762016 5.628733224826356 6.876537379920988
Ir 8.934136118231939 6.240919353534722 6.860158065702583
Ir 9.610129807815987 8.580786197892632 6.7824815061173425
Ir 7.85812614657607 10.386586648539563 6.740082533104638
Ir 5.822922241851425 3.2946275289717324 6.963384212951231
Ir 8.264799090897311 3.899456546227354 6.921645990696492
