10
Energy = -60.93918407 eV
Ir 5.696466370683001 3.924876403116038 4.562561089926415
Ir 4.739565096080842 6.170768850559722 4.686097835551196
Ir 7.267839682992105 5.813245269621176 4.690514379029245
Ir 5.900804388077346 5.227426177632081 6.769629386486131
Ir 9.383066879873459 6.78696015544446 5.264421804212681
Ir 7.4593946273653415 8.174276136473368 5.556701208159471
Ir 5.739584198412504 4.509003039387889 8.955619710987158
Ir 5.010137560992866 8.42914663779848 5.504439929640978
Ir 6.084972664970597 7.480154980908192 7.543602299329817
Ir 5.9558228850560475 6.726993134239356 9.730704748615949
