10
Energy = -61.4097993 eV
Ir 7.896551631582043 7.403202637779871 5.836573392239186
Ir 8.176250925221288 9.04988758867366 7.634013754590466
Ir 7.778528330169187 5.293202006305092 4.529867548879539
Ir 7.711434553721904 5.090047621866387 7.009278477701354
Ir 6.700577978086859 7.172686977030877 8.199558493868619
Ir 5.887466878957528 8.836434132803957 6.4542818871519225
Ir 5.692923501391918 6.878033848858459 4.746958729095187
Ir 5.754222730608583 4.902469214840035 8.540023995079792
Ir 5.580115999786124 4.642053425609771 5.885506749711165
Ir 4.556807856489695 6.649548627487409 6.992567101637966
