10
Energy = -61.91897434 eV
Ir 7.813480008083134 4.614581946602359 4.869128211868941
Ir 5.8356551294630385 6.23982210263747 4.48259061026406
Ir 8.520426937121128 6.230965792457894 6.545007354451473
Ir 7.42995916904522 7.88993226910298 5.19245262586536
Ir 4.1303858365158055 7.271987186336831 5.833478638768563
Ir 5.717744310860493 4.2069580423701085 6.006135568513109
Ir 6.301966099743879 5.907370874389189 7.744220742469765
Ir 7.862896546218288 7.58538449850667 8.569550601238527
Ir 6.01075504732176 8.296229802476942 7.03799748618619
Ir 3.951036382452704 5.319149219960906 7.2799648784424456
