14
Energy = -87.89073033 eV
Ir 7.976750739492883 6.351915169254039 9.061335587615588
Ir 8.395655708933086 5.130418749740104 6.730411261333688
Ir 5.506431652672277 7.518988244791752 8.919219135956654
Ir 6.200632558061856 5.5688753549736925 5.170047866515921
Ir 4.457443255920763 6.862061256144166 6.622618410240965
Ir 9.413569547954145 7.6229172172570605 7.11982452211386
Ir 8.380335244609988 6.959499148788778 4.816904831527846
Ir 7.699175906170869 8.945335727933236 8.60761517550484
Ir 5.912651773239419 8.1043458520557 4.684447071317129
Ir 5.491923029312136 9.358893913039859 7.099920169600016
Ir 7.960429088205207 9.419409564196796 5.956472500048093
Ir 5.980710480067116 5.071259221224855 7.8551830892650445
Ir 6.9345190517587545 7.284081709490571 6.862686854413217
Ir 7.932313575323376 3.878648158717401 8.82188735326613
