10
Energy = -62.67574114 eV
Ir 7.319401163680479 4.05002562995468 5.709844146171625
Ir 6.169944704162848 5.349335655675192 7.366001354806469
Ir 5.210982863930518 3.780921548713273 4.494135147321655
Ir 7.777146399647063 6.070038321937594 4.463185966039695
Ir 4.08584686198759 4.958059203101326 8.498277737337089
Ir 4.016505304708836 5.105777264870994 6.14620078086534
Ir 6.681997691549193 7.342668208721867 6.146115428802344
Ir 5.684468708382547 5.846006386025976 3.2524236568090736
Ir 3.203359761548018 5.059521230122069 3.6720830666418895
Ir 4.565002941245111 7.075895721449078 4.916151499824347
