10
Energy = -61.08800655 eV
Ir 4.061766134853411 7.007815619028933 5.31748381987351
Ir 6.175385137212122 5.77136700612147 5.131340976283638
Ir 5.100494395458985 6.299005461119342 7.479801832854123
Ir 6.11252670028059 8.238630762293198 6.058282610705541
Ir 8.099249618545489 7.346390093208198 4.671456122931403
Ir 6.264503891574952 8.297123415911829 8.64075717577952
Ir 8.461842716328455 5.427016652786634 6.295622698975283
Ir 6.412870192172881 4.12355741423529 7.03861573546003
Ir 7.3266571457604 5.972171327364058 8.521415741358647
Ir 8.29561602228714 7.827834271480647 7.156135378403331
