14
Energy = -89.25977492 eV
Ir 8.56533044429883 7.851096602796743 6.819329602975195
Ir 5.523424852191131 5.649116318153454 8.16734287888271
Ir 6.619474096791743 7.919705016483365 8.405050347645798
Ir 4.627788651506012 7.678259198690333 6.819329602975195
Ir 9.126708547693411 3.7652119080804898 6.819329602975195
Ir 6.62703726216252 3.755986235280387 6.819329602975195
Ir 8.063820596866453 5.669519260768177 5.592840024865657
Ir 8.06637105552 10.010554029329997 5.570838403685276
Ir 5.817316476441752 9.843566460214149 6.819329602975195
Ir 5.523424852191131 5.649116318153454 5.471316327067674
Ir 6.619474096791743 7.919705016483365 5.23360885830459
Ir 8.063820596866451 5.669519260768177 8.045819181084738
Ir 8.06637105552 10.010554029329997 8.06782080226512
Ir 4.160251790520144 4.0787048534126376 6.819329602975195
