13
Energy = -84.66450584 eV
Ir 4.76522626593676 5.289455951651063 3.704476423639877
Ir 5.1063510668448675 5.303729539790556 6.127302085254972
Ir 5.4800845122636845 5.287469294232804 8.558085331434198
Ir 7.085559332984447 5.329260558032007 4.5604788485984065
Ir 7.578078264275319 5.3223040053258925 7.0802093983752075
Ir 7.753449843527018 5.309648335436214 9.527900939578332
Ir 4.7501450628218524 7.723662446413915 3.709247313775132
Ir 5.091716779265906 7.704147692179717 6.13184674719214
Ir 5.4654856998317 7.716084227796192 8.562478981549162
Ir 7.07112176511888 7.709282887827871 4.565100677172241
Ir 7.563880522779374 7.712188858457308 7.084419514405201
Ir 7.7386314181088744 7.718402205917457 9.53226776773127
Ir 9.204726756606266 6.528821314263178 5.510643180781309
