15
Energy = -99.61309348
Ir 7.267747218636965 8.600455736666193 10.853974759486576
Ir 9.125160184407306 10.669474928455404 7.259142326495806
Ir 9.541518251595813 8.605164914215013 12.04441758675768
Ir 11.250689322215251 11.010695510935863 8.080077152541893
Ir 11.559177147370269 8.590449755489491 8.394222709832377
Ir 9.4932768676955 8.410179314094655 7.045115777280522
Ir 11.448847553033959 7.728388031350737 10.72833895703675
Ir 8.994009923229562 11.006682938523467 11.81905226435641
Ir 10.735401051298876 10.012851260267652 10.302390223301435
Ir 9.366830120081016 7.988401367901555 9.48618273535674
Ir 9.804527098779916 12.255709153486679 9.730767218700919
Ir 7.264565739483498 8.53250431124048 8.354786389557768
Ir 8.258751675355988 10.382538863412416 9.481465810883465
Ir 11.431705309421957 9.558451937249094 6.0951882717552595
Ir 7.461315419007761 9.558451937249096 13.049034935042616
