13
Energy = -80.68437479 eV
Ir 7.770556054299597 7.153850739053756 5.293159493490311
Ir 7.777204817532278 5.921550478052603 7.65091029414634
Ir 6.921326138424548 7.07287062544483 9.67344665122768
Ir 7.028596336428706 9.410301013070741 5.0334073345223995
Ir 6.918230577299456 8.270134387188627 7.3218184192159566
Ir 7.723859432485413 9.30230127017044 9.451099509061047
Ir 6.886189058266322 11.493321264262764 9.225179363773584
Ir 7.593257141458016 10.717522833475213 7.137574631258222
Ir 8.085704917702175 11.573005569552668 4.96287768729801
Ir 6.874911839928742 4.962389857714956 5.4948897017805045
Ir 8.041249043856848 3.5333612870907176 6.982699839171297
Ir 7.537424165003067 2.8781292150326054 9.160669917331015
Ir 8.155789879324274 5.025560655509664 9.926566353343256
