12
Energy = -74.80214231 eV
Ir 4.48359896312695 5.631555644787104 4.287982120233182
Ir 3.1645524441945168 7.053338175606687 6.1182803804679216
Ir 5.409195882746266 7.7219275912111325 5.496280697651322
Ir 6.908529410113628 5.685704481946166 4.8219732012207155
Ir 3.8260386891530627 6.715101060511495 8.446645177339727
Ir 5.181223991342414 5.443225602218364 6.725288349372779
Ir 7.814243347278507 7.883587121734456 6.172000245882902
Ir 7.664259403550177 5.546285381923925 7.310787090289862
Ir 9.055766323885063 4.70393222583417 5.36404856831658
Ir 6.110956245191243 7.4462480029215286 8.109719058379799
Ir 8.545602038694845 7.535652095657121 8.626209188502344
Ir 9.909235236892203 6.697310814567064 6.497165273328916
