10
Energy = -61.76141958 eV
Ir 5.652913455994305 5.054793101594862 7.738964130832048
Ir 7.0035161224057 4.722681819755403 4.591823218054906
Ir 4.874121910053704 5.490899344154779 5.462879918156169
Ir 7.778951826839988 4.286816115929882 6.8623633656254235
Ir 3.3136151910943723 6.018154497807831 7.411759189874252
Ir 5.109964347403891 7.533611828951058 7.087184705588642
Ir 7.717593472517593 6.670902601120747 7.328809911293068
Ir 6.945916797197012 7.103461516339717 5.07717052187442
Ir 8.996191526657237 8.295798215771011 5.901496319823509
Ir 6.862219997764725 9.092737272071156 6.789568654697342
