15
Energy = -96.96683937 eV
Ir 5.562640068389374 8.71944632220872 7.11099187866254
Ir 5.537176917874315 3.5407110989368937 7.112121190512695
Ir 5.382397395402886 6.116780894179975 7.21687585224265
Ir 7.661674215868212 4.7941863467786865 6.231831269959782
Ir 7.794917758104667 7.373025923179615 6.114163637929252
Ir 4.066841645958703 4.846998149695431 5.391209311705748
Ir 4.12013955258012 7.380775876216577 5.432197597038852
Ir 6.9483638590795636 4.8716845767077945 8.748219237807652
Ir 6.991955356059296 7.459726522832224 8.773544395090518
Ir 6.210196956830749 6.088322966397695 4.527196085851768
Ir 6.190794244467758 8.643537055290741 4.580585109080037
Ir 6.127357591895158 3.579559143029074 4.651362528374893
Ir 9.053210044786892 6.096387458841103 7.933890218811295
Ir 8.978843508555618 8.725108833201451 8.006882761095758
Ir 7.574239057843585 9.964497008873115 6.369677101315479
