11
Energy = -68.22771358 eV
Ir 8.296266694582512 4.059850377798814 4.857387145667052
Ir 7.369421853237306 6.216601662467632 4.765932353860924
Ir 7.213121920809469 4.6970527705691705 6.83919183424962
Ir 6.308894759346936 4.643522790376755 9.085223987954468
Ir 6.703685810038646 8.397419172302381 3.9542342232846197
Ir 7.172893671844799 6.791643966229188 8.36971342246236
Ir 7.314836284522942 8.314781207395319 6.294912467108588
Ir 4.936160901110401 5.808480342776799 7.472977651468183
Ir 5.088510744701299 7.314701128624656 5.391313719220021
Ir 3.0519218150813177 6.675033758458654 6.37313865604909
Ir 8.281275618722798 8.861428785763405 8.363496290233897
