15
Energy = -96.25980205 eV
Ir 7.137376992040608 5.353967602052367 7.246052153029415
Ir 8.389471468973413 6.0114935351609615 5.170969937976896
Ir 5.426351799410067 4.3158510922465805 2.6067438568187034
Ir 5.5596239656701085 4.540398883407557 9.043529294294416
Ir 6.618221372573262 6.904088991829529 9.199176931003686
Ir 8.085129188537373 7.662775111586322 7.0744448731673675
Ir 8.248131253831378 4.53966376055823 3.149965132224544
Ir 6.595588731029218 6.377488089632295 3.3800266870050493
Ir 6.466154089617088 4.232762479921496 4.951510362255278
Ir 5.5981353975423245 8.630125886266116 7.670730242213276
Ir 4.207091217466935 6.790247670419562 8.641963268266098
Ir 6.04733768388941 7.389354907554565 5.588274319390854
Ir 4.677964820275518 5.194153332668916 6.758228098484024
Ir 4.324362693897672 5.715444185532102 4.332616269490745
Ir 3.5765372351879066 7.361562244568074 6.134386645191441
