11
Energy = -68.45924378 eV
Ir 8.707634529530077 6.972472991014567 4.7008044132938025
Ir 7.963639463121439 6.134126927969029 6.883065599658751
Ir 6.997908575732376 8.282915373260607 5.846931081093242
Ir 4.649298610530143 9.087832104072511 5.9517625071820035
Ir 7.904553271835345 3.7742625283469424 7.567910664600301
Ir 7.009380164379571 5.628613837180426 3.6366175144915758
Ir 6.220341304505897 4.889492657472126 5.855394291874607
Ir 6.092757173268298 5.006868887089278 8.477398258152387
Ir 5.270799310927982 6.9783368544652475 4.6818357029264215
Ir 4.22191942422455 6.246392107939933 9.27117285301023
Ir 5.114149027494102 7.121075275195953 7.284449044051067
