14
Energy = -89.103614 eV
Ir 5.487719688960576 6.763330224893293 8.49362862965954
Ir 5.4588040748186195 8.01789586213468 6.1630392794348365
Ir 6.763330224893293 8.972103054852846 8.079627879003596
Ir 6.763330224893293 5.492238495421682 3.9501700543250324
Ir 6.763330224893293 4.5545573949337355 8.079627879003596
Ir 8.067856374967963 5.5087645876519105 6.1630392794348365
Ir 8.960815741957486 6.763330224893293 4.119154847856492
Ir 6.763330224893293 8.034421954364905 3.9501700543250324
Ir 8.038940760826007 6.763330224893293 8.49362862965954
Ir 8.067856374967963 8.01789586213468 6.1630392794348365
Ir 5.4588040748186195 5.5087645876519105 6.1630392794348365
Ir 4.565844707829104 6.763330224893293 4.119154847856492
Ir 6.763330224893293 5.481196673799744 10.374651604538444
Ir 6.763330224893293 8.045463775986843 10.374651604538444
