14
Energy = -91.72228716 eV
Ir 7.154310887201573 8.061787871389122 6.431853974077625
Ir 7.1704910149296675 9.687793991920133 6.422482745512849
Ir 7.597554676485057 8.060709816367968 8.869112086184032
Ir 7.613889436995034 9.701500844354948 8.859679501189534
Ir 8.096876476597533 8.080160806108358 10.504535584952011
Ir 8.113105857303811 9.693761845631018 10.495144726692768
Ir 8.712164386711443 8.055718159014607 7.182975124852352
Ir 8.728227452801214 9.6672968148947 7.173782426544443
Ir 9.283764275917656 8.043655895625587 8.878549102692102
Ir 9.300355037837587 9.691285877804686 8.86911208618403
Ir 9.67416981775057 8.037481805203317 11.378535246207377
Ir 9.690778380077766 9.711015376999828 11.369013712161891
Ir 11.365989294311763 9.24945490649014 9.731977444955934
Ir 10.911470284623569 9.242973708651002 8.03211823779304
