11
Energy = -66.6304514 eV
Ir 7.822944822110217 6.246796568241467 5.600860943754516
Ir 7.672272310805632 8.798375842328364 5.541084648238127
Ir 6.312733665081937 7.59776773570218 7.217125991803587
Ir 9.82667116194656 7.668148560017834 6.344127000272776
Ir 9.147639059119124 9.878485081932613 7.315908000613583
Ir 10.304732393271012 8.123322711380876 8.842030197142742
Ir 6.5721944386616915 10.176595883203463 7.381329387248221
Ir 8.556445001814124 6.4172510494572 8.049316628696449
Ir 6.541723438111656 6.661253631509376 9.49656098094383
Ir 7.836365637172558 8.7495936660237 9.07370236476024
Ir 5.3323166217947895 5.608447820092462 11.063992406415094
