11
Energy = -66.09072343 eV
Ir 7.011057897958845 6.990824760907596 13.247856339186493
Ir 6.23208638124071 7.71445152944136 7.037276545850003
Ir 7.711174979121467 6.583505367927048 8.82393713904554
Ir 9.489090905376614 8.125412680370236 5.068512851562195
Ir 9.62772335845291 7.506151009227099 7.383796213588698
Ir 6.9621151640759695 8.321637364787865 4.833002002695745
Ir 6.555167850822108 8.855264420374459 9.204599744958891
Ir 9.046097991077605 8.662269388426596 9.494131490907955
Ir 8.07035504166054 9.425724622551085 7.0341842284037455
Ir 7.972357264734251 6.218201076144133 5.979034422323756
Ir 7.455187503600479 7.5872553535342 11.142265697605547
