13
Energy = -83.68083058 eV
Ir 6.986743136975803 6.98359995404345 4.122711484896801
Ir 8.808995608188855 5.193298320384896 7.584815369230487
Ir 3.79839949664498 3.707750487466325 8.50809575379623
Ir 6.822497233554901 8.704160600723698 6.049559248384182
Ir 5.0172284608005695 6.808311070598894 5.858828404265061
Ir 5.085567232562878 8.416183602849868 7.784085372130996
Ir 5.37481258266769 5.100409219185765 4.054212038096575
Ir 8.846062511046311 7.039670742077162 5.966858141480056
Ir 4.752067445899878 4.264300604657925 6.4012356986961105
Ir 8.5359196244319 8.858259836188186 4.312624594194983
Ir 6.945196577392671 6.719926444539366 7.854972384312377
Ir 4.618822539472956 5.931100046436097 8.298000617980728
Ir 7.094933379891055 4.973483051170003 5.891264233072374
