15
Energy = -97.41236696 eV
Ir 6.609681336805856 7.894346551549596 3.078720313707698
Ir 8.42071567121209 5.1214757525274175 6.18011133180891
Ir 6.887746987624498 9.02593808664476 5.181382153767681
Ir 6.501184795192658 6.464080950191646 5.015883875245403
Ir 10.254305207526206 6.351896750219649 7.186458955268614
Ir 6.610343184066095 3.993764763205658 4.885022626170208
Ir 8.07829733738919 7.603740528149084 6.922625795985657
Ir 7.192931575838576 9.845530723294981 7.643652904537128
Ir 5.327245697866084 4.933040021517809 6.758452496130041
Ir 7.114848675146461 5.638896567577448 8.28239552542209
Ir 5.467997380881232 8.121332625934782 7.002253817835452
Ir 3.8099291954067853 6.460806975349139 7.832650264538954
Ir 9.029148144115933 6.9720571749884686 9.191945445651513
Ir 5.628004430440381 7.204132093201273 9.334287835034408
Ir 7.438262761269276 8.736741665804628 9.875616813159947
