11
Energy = -69.08721366 eV
Ir 7.716753860287181 6.017023872382662 4.533051206924892
Ir 5.992239148676434 4.482910917032513 5.218968335255062
Ir 7.95597921752672 8.47326372155992 4.7453662776143
Ir 8.923045778907797 5.671916598591934 6.539760348875347
Ir 6.166040931857994 7.423489362445238 6.140563457762998
Ir 4.18135627438204 6.015318519395106 5.599615665836812
Ir 8.570531535348854 7.946422211400897 7.089423134754208
Ir 5.0979566332833635 8.040624128198413 8.306814263186215
Ir 4.175937598623427 5.860649795256987 7.982511316850661
Ir 7.276767520552457 7.338708837964672 9.027143730993508
Ir 6.625296509880175 5.411577044207233 7.498687271272154
