13
Energy = -82.17306482 eV
Ir 6.697954024596001 10.25188 7.873860164185764
Ir 5.453281548052473 5.415575155793881 7.847289299121215
Ir 5.453281548052473 7.980332893398119 7.847289299121215
Ir 5.461131171006279 6.697954024596001 5.612824672273415
Ir 6.697954024596001 9.040068332762663 5.832495947425002
Ir 7.94262650113952 7.980332893398119 7.847289299121215
Ir 7.94262650113952 5.415575155793881 7.847289299121215
Ir 7.934776878185721 6.697954024596001 5.612824672273415
Ir 6.697954024596001 6.697954024596001 9.697015052732754
Ir 6.697954024596001 3.1440280491920056 7.873860164185764
Ir 6.697954024596001 5.417992315102647 3.674434284527078
Ir 6.697954024596001 4.355839716429344 5.832495947425002
Ir 6.697954024596001 7.977915734089355 3.674434284527078
