5
Energy = -26.80035109 eV
Ir 6.144879305708453 4.904701252303341 4.965777079511587
Ir 7.5724185396686545 5.763052887319612 6.550621238929947
Ir 4.552486991503645 6.616516546060459 5.415261716345955
Ir 7.975783111221866 7.396868779807364 8.259245508149311
Ir 5.92457407174564 7.532969427775765 7.016117254214947
