5
Energy = -25.85085493 eV
Ir 7.974623264959148 7.209699834418778 6.726751523702351
Ir 6.523064691563515 5.188394647852523 6.91950625412991
Ir 5.820265293735416 7.435634752830511 7.774970957625441
Ir 5.903401331271726 7.036157551449066 5.316930676083675
Ir 5.3817840366572165 4.723446319485239 4.841269950178074
