5
Energy = -26.96108097
Ir 7.581264195303057 7.72055852337121 9.224089207848655
Ir 7.811033519523284 8.04736178347782 6.175597786776832
Ir 6.109535243738007 7.639084509481542 7.686121115916787
Ir 8.024880848299917 6.386437387688224 7.713953045952858
Ir 8.987002395583607 8.424499593533318 7.713953045952858
