5
Energy = -25.33390874 eV
Ir 8.377284274310751 6.402838722049402 7.71632057298786
Ir 5.418528005837102 7.78811805965707 4.72505509573842
Ir 4.0898314615887665 6.957844585132867 6.5064091649600595
Ir 6.395593469684348 6.414123751160495 6.398785934450591
Ir 7.66928435035009 4.431746935256238 6.611421946462265
