5
Energy = -26.2750272 eV
Ir 5.96137258179814 7.662264065178485 5.795736654882709
Ir 7.572486227527838 5.946230561456881 5.5278856525072
Ir 4.462074974162195 7.145822205184051 7.566061093635473
Ir 6.651576321181242 3.876657033981589 4.834210762961803
Ir 5.304213659629588 5.320749898498001 6.227829600311935
