55
Energy = -401.73503792 eV
Ir 10.142400109090904 10.142400109090904 10.142400109090904
Ir 12.030031426361234 12.030031426361234 10.142400109090904
Ir 10.142400109090904 12.030031426361234 12.030031426361234
Ir 12.030031426361234 10.142400109090904 12.030031426361234
Ir 10.142400109090904 12.030031426361234 8.254766791820488
Ir 12.030031426361234 10.142400109090904 8.254766791820488
Ir 10.142400109090904 8.254766791820488 12.030031426361234
Ir 12.030031426361234 8.254766791820488 10.142400109090904
Ir 10.142400109090904 8.254766791820488 8.254766791820488
Ir 8.254766791820488 10.142400109090904 12.030031426361234
Ir 8.254766791820488 12.030031426361234 10.142400109090904
Ir 8.254766791820488 10.142400109090904 8.254766791820488
Ir 8.254766791820488 8.254766791820488 10.142400109090904
Ir 13.951238867963312 10.142400109090904 10.142400109090904
Ir 10.142400109090904 13.951238867963312 10.142400109090904
Ir 10.142400109090904 10.142400109090904 13.951238867963312
Ir 10.142400109090904 10.142400109090904 6.333563350218433
Ir 10.142400109090904 6.333563350218433 10.142400109090904
Ir 6.333563350218433 10.142400109090904 10.142400109090904
Ir 13.91002073771611 12.028460024942689 12.028460024942689
Ir 13.91002073771611 12.028460024942689 8.256340193239122
Ir 13.91002073771611 8.256340193239122 12.028460024942689
Ir 13.91002073771611 8.256340193239122 8.256340193239122
Ir 12.028460024942689 13.91002073771611 12.028460024942689
Ir 12.028460024942689 13.910020737716108 8.256340193239122
Ir 12.028460024942689 12.028460024942689 13.910020737716108
Ir 12.028460024942689 12.028460024942689 6.374779480465843
Ir 12.028460024942689 8.256340193239122 13.91002073771611
Ir 12.028460024942689 6.374779480465843 12.028460024942689
Ir 12.028460024942689 6.374779480465843 8.256340193239122
Ir 12.028460024942689 8.256340193239122 6.374779480465843
Ir 8.256340193239122 13.91002073771611 12.028460024942689
Ir 8.256340193239122 13.91002073771611 8.256340193239122
Ir 8.256340193239122 12.028460024942689 13.91002073771611
Ir 6.374779480465843 12.028460024942689 12.028460024942689
Ir 6.374779480465843 12.028460024942689 8.256340193239122
Ir 8.256340193239122 12.028460024942689 6.374779480465843
Ir 8.256340193239122 8.256340193239122 13.91002073771611
Ir 6.374779480465843 8.256340193239122 12.028460024942689
Ir 8.256340193239122 6.374779480465843 12.028460024942689
Ir 6.374779480465843 8.256340193239122 8.256340193239122
Ir 8.256340193239122 6.374779480465843 8.256340193239122
Ir 8.256340193239122 8.256340193239122 6.374779480465843
Ir 13.835619845266558 13.835619845266558 10.142400109090904
Ir 13.835619845266558 10.142400109090904 13.835619845266558
Ir 13.835619845266558 10.142400109090904 6.449180372915103
Ir 13.835619845266558 6.449180372915103 10.142400109090904
Ir 10.142400109090904 13.835619845266558 13.835619845266558
Ir 10.142400109090904 13.835619845266558 6.449180372915103
Ir 10.142400109090904 6.449180372915103 13.835619845266558
Ir 10.142400109090904 6.449180372915103 6.449180372915103
Ir 6.449180372915103 13.835619845266558 10.142400109090904
Ir 6.449180372915103 10.142400109090904 13.835619845266558
Ir 6.449180372915103 10.142400109090904 6.449180372915103
Ir 6.449180372915103 6.449180372915103 10.142400109090904
