5
Energy = -25.56658309 eV
Ir 6.474101778918626 8.268421753458183 6.499864317760298
Ir 8.170081162699072 6.589194638143429 5.85540855695397
Ir 6.260891066823693 7.020286308526281 4.467284170055377
Ir 6.138483599878042 5.9058491737958825 7.013335342287213
Ir 5.237724575877218 4.4852637326132285 8.433562323159665
