5
Energy = -9.52357615 eV
Ir 8.534468303189493 10.27256145427373 8.71380536128211
Ir 7.848506701202023 8.581605408630685 7.391922083200472
Ir 6.588467227499034 10.405616154319896 9.744007020110535
Ir 7.6094645603993785 5.9600264416928574 7.179776370436801
Ir 8.747787245257983 4.1091013342882405 6.299314524811652
