5
Energy = -24.57603193 eV
Ir 9.923656197101177 7.513384163156428 8.408606462919023
Ir 11.393364509194742 6.178993141238071 9.403056660510837
Ir 5.069176032423237 10.568553703259559 6.934844938970059
Ir 6.92326623749838 9.355513904837185 7.154551083030805
Ir 7.784580441419546 8.128002794583228 8.886784471411158
