5
Energy = -26.9081157 eV
Ir 6.40375583038289 3.9249808077360853 4.817334989962997
Ir 4.918574979218506 4.733241115348356 6.696438306621406
Ir 6.933049193832046 6.4143491320713935 4.581978410345628
Ir 4.64864479572354 5.747826729221441 4.556986973413444
Ir 7.204160867598017 5.4102151926731805 6.7225663682941015
