5
Energy = -25.71272684 eV
Ir 8.778510960282539 6.4816837047061675 4.143192844714643
Ir 7.177404720283048 6.658153263946769 5.646099646961615
Ir 5.353317100889885 5.457626696362803 6.627250702758842
Ir 6.815541854696097 6.906702028627963 8.00012560309281
Ir 4.4455160203999124 7.060763645036765 8.132641431347459
