5
Energy = -25.03921035 eV
Ir 6.5518914817184575 5.967013031806745 7.651082640354417
Ir 8.044405588989992 4.3555787034690345 7.932244050215058
Ir 5.9073712030016186 7.047294912553437 5.4822553034942745
Ir 5.035026506080171 7.782753080740334 7.5435636754062285
Ir 6.434487172235932 6.796818461545489 3.35048445066235
