5
Energy = -24.19914466 eV
Ir 4.5632810800834855 6.462571244726138 8.123001302740414
Ir 4.048192554723312 6.429469616759618 5.938971278436322
Ir 5.697899939696255 5.767324984811631 4.458591512979381
Ir 7.961119081143877 6.431841917790071 5.197508158384014
Ir 7.395141564418425 4.244089113665867 5.449792489491473
