5
Energy = -25.72664499 eV
Ir 7.115490020671487 5.579745384426537 8.949306154009479
Ir 6.493508968028354 7.222994663330113 4.672620891381482
Ir 6.546003533604936 6.158415987136147 6.913218827580251
Ir 6.520371732160959 4.822064247198179 4.922220429708951
Ir 5.313208663134615 8.20094301183869 6.517988064468205
