6
Energy = -34.48262663 eV
Ir 5.239307023285703 5.729710790500833 5.304056850008726
Ir 7.673072024369842 5.772505118265634 5.293443058464544
Ir 6.491401895909092 7.901430915307934 5.304038452974522
Ir 5.239192928791226 5.730166527124971 7.631945169589764
Ir 7.673090590528854 5.772497722909177 7.642489162730398
Ir 6.491765551902398 7.901518940678344 7.63185732101916
