6
Energy = -32.9211043 eV
Ir 7.925421136811217 4.498845577184198 4.125836081708704
Ir 7.553490990408186 6.870884233936377 7.596342962637861
Ir 6.8518740863301915 5.7104202930783465 5.620066957998821
Ir 5.536253893569269 8.150603085205866 7.541970025273025
Ir 4.87465226988599 7.064464390970191 5.505653803057198
Ir 5.271826162693772 5.718575706216571 7.6239035550941034
