6
Energy = -31.17733306 eV
Ir 9.427742804680328 6.519670802899621 7.914285595290043
Ir 5.240880828196059 6.9539627878614 7.102410650421431
Ir 10.902256497183048 8.296955685440484 8.491921400388634
Ir 8.633633608322139 8.457776073926926 9.194099799363132
Ir 3.8026826067072506 7.674439751563454 5.527528467869667
Ir 7.4187819396165136 7.687943578644729 7.249138823994758
