6
Energy = -33.418537 eV
Ir 5.982508964382832 7.4053382231967495 8.935850561780965
Ir 6.187925073546423 7.724101084289154 6.609762054896961
Ir 6.768044601527543 8.118995495520808 4.362376615280925
Ir 6.925906055009629 5.866466006276144 5.089986121747378
Ir 6.0244928313724655 3.892568794810654 6.00057383125305
Ir 6.531696147586538 5.4748597573514965 7.668087743401145
