6
Energy = -31.40545095 eV
Ir 8.390268066898102 6.102374868078617 5.523932029451857
Ir 8.182617799099377 7.850285315794202 7.115101125362759
Ir 7.8779969407067725 5.561048095526617 7.888822688504787
Ir 6.093745020360689 6.342770358174351 6.487721661947739
Ir 4.280783158061523 5.623234611778249 5.04272804259651
Ir 3.8985903753358455 7.245591084220317 6.667750790721435
