6
Energy = -32.62781728 eV
Ir 1.9793934147318686 4.598284541779267 3.444797256837451
Ir 3.1341361842817195 0.9632919749230519 4.574327516790519
Ir 5.161361046217212 4.380021778462536 5.651351534100416
Ir 3.5177159879899116 3.1569518427684904 4.429599541968598
Ir 5.273780778954319 4.473594373943493 3.2944399003673155
Ir 3.657353673428766 5.746316423981764 2.2694711037282667
