6
Energy = -32.59933172 eV
Ir 9.321815223136932 5.156135058710341 8.386963866793291
Ir 8.714882598889496 7.428931145652924 8.657792906204945
Ir 8.327496280312744 9.629026067842451 7.880633475837129
Ir 7.833124961421758 6.073893878950895 6.735014201650575
Ir 5.999149244150939 10.205499702801385 7.573173616578042
Ir 6.550666231729857 7.903931199847382 7.4583931454869274
