6
Energy = -34.49012636 eV
Ir 6.289751924679689 8.026925248162707 6.88426734038658
Ir 8.078923339189927 8.05846990311347 6.372179868771256
Ir 6.515098965589886 6.25358555734692 7.1926602536582624
Ir 8.279568326365847 6.284770129461615 7.1926602536582624
Ir 6.8312821149622405 7.714460018314348 8.727613747906046
Ir 8.595797329212512 7.745465734933309 8.221040535619595
