6
Energy = -32.43267402 eV
Ir 5.620202676915457 6.577226953001991 8.449725980672927
Ir 5.393908780317824 7.736423293686695 6.400931219929883
Ir 5.482673053492505 5.304862975233356 5.632485826986759
Ir 7.232282968606394 5.27110863502972 7.3212901332045135
Ir 7.815246839575672 7.60917957342652 6.489675188272455
Ir 7.306164696116239 6.35167762547596 4.556370665957675
