6
Energy = -33.33227925 eV
Ir 8.740342943698701 4.999037929053397 5.967969573866134
Ir 6.357565380361578 5.18868568511182 5.759082886095742
Ir 7.690416733088948 7.109709788801605 6.381080070750258
Ir 5.352362519471254 7.521542419046801 5.458552470138052
Ir 4.598165009537551 5.923861331882657 7.19226968735331
Ir 5.963222280526577 7.8592068097009555 7.842407494269155
