6
Energy = -30.66180528 eV
Ir 8.072137560026192 4.470831913832779 10.539295088032976
Ir 8.093439421409371 5.959925593754866 8.864266929143994
Ir 8.938764441201473 7.410951435915316 7.021963300764257
Ir 6.916348501735791 7.986291567800729 8.211133121863234
Ir 7.793070843620839 9.587596018662403 6.602258424139793
Ir 7.300070515366801 11.67950927929609 5.971627729137754
