6
Energy = -31.73799527 eV
Ir 8.720031645626454 8.726812095858243 10.19449799770337
Ir 7.6073042470358745 10.221681851445437 8.782673784464777
Ir 7.328401676763828 7.555538021261242 8.665866413221258
Ir 7.902315821308748 8.870903251096268 6.717144626656042
Ir 7.76695319209805 6.492595518434653 6.556163377745108
Ir 7.131785633960028 4.662292065914464 5.4677081915607975
