7
Energy = -38.69168846 eV
Ir 8.753652135627991 8.47730542523156 9.036277310625755
Ir 9.97041049388763 8.167752819956643 6.829389184950701
Ir 8.32978574479447 6.366886045300449 7.519519078677003
Ir 7.477950492113616 8.73953661536909 6.75237688545644
Ir 8.315466072777511 7.0638088852476475 5.155904994988424
Ir 6.467404905975812 7.52124340456836 8.666077316944662
Ir 4.58136073843465 7.034722695704044 9.68814128764408
