7
Energy = -39.81483686 eV
Ir 7.073393235957245 4.203065428334903 4.395670028037592
Ir 7.724544700909331 6.389948790624319 5.092777917681728
Ir 8.769947245414377 8.069334186887136 6.3888630988129576
Ir 5.8580829028078485 5.1957745912301565 6.167418385004418
Ir 6.635445950686013 7.400967139740866 7.2153755849601495
Ir 5.1116950570884 7.476579982706008 9.037186190046
Ir 4.1967327609371745 6.601499434800538 7.020834811631573
