7
Energy = -39.71788009 eV
Ir 6.513355390620861 8.06905378546894 4.526206389184799
Ir 4.788236622084505 7.718540480986318 6.209735627474409
Ir 7.247984028834401 5.756526201155798 4.61721697870506
Ir 7.0211167034693736 6.904556887117379 6.7523245084501795
Ir 5.171350127252369 7.057966979183764 8.516086831801125
Ir 8.171151199692904 4.623421954282524 6.554946474927948
Ir 6.168024210081386 4.930507410089435 7.893015035440832
