7
Energy = -41.06841835 eV
Ir 6.1012446564622085 7.791645654200032 7.521842519062059
Ir 7.982389942438782 8.534764470976238 6.666735316604376
Ir 7.574194632418826 6.059211175630607 7.521842519062059
Ir 8.894613317654127 7.355010975479531 7.291629178701233
Ir 7.230451008633739 8.737471817315033 8.466959096800654
Ir 9.140919446594905 9.030716194101228 7.899405046631686
Ir 8.142707515321533 7.557698231821456 9.091912803613692
