7
Energy = -39.88294998 eV
Ir 5.8563529682222155 7.083090013152312 4.184078250501442
Ir 4.652972088099147 7.098613664316292 6.428426812504073
Ir 6.934513773659776 8.132481638912537 6.24593956296482
Ir 7.825315234842873 5.960917493617765 5.312553086587188
Ir 6.629768148265328 6.002148888485677 7.494842574021489
Ir 5.534616183574059 4.933990930488598 5.486286565850235
Ir 7.205995775979829 5.46738859063499 9.537438783132519
