7
Energy = -39.14345769 eV
Ir 5.7306357896969775 9.063876119348766 4.84929411260992
Ir 6.480182390724808 6.354665318313886 7.744461064028699
Ir 7.434413599747307 7.732246468527724 5.90734985824294
Ir 5.161936397053696 6.8401926100170725 5.523631544180433
Ir 6.971505402121204 3.949969876237355 7.723900802944889
Ir 7.12832968387648 5.223768155973826 5.4665999669420415
Ir 4.870756789798777 4.6130415046007505 6.562522704070331
