7
Energy = -40.99300189 eV
Ir 6.3280888263936514 8.328960509915554 6.4812012019516905
Ir 4.764188776958029 6.878151603534015 5.391854492794336
Ir 8.152141459537857 7.081901480004174 5.55743460964615
Ir 6.585000525101758 5.337106851372254 4.905116297226105
Ir 6.32086512118358 6.913155790203625 8.41316560022794
Ir 5.167344773764193 5.204649481514259 7.115368301858227
Ir 7.789497952642006 5.363201722949596 7.2429869357892604
