7
Energy = -40.08681805 eV
Ir 6.288693220704847 8.413019721765707 7.279637937996792
Ir 8.303257533099881 6.8405271554797045 7.444986716916965
Ir 7.3786401214754385 7.940728539418004 9.327137508615534
Ir 5.155350247179504 6.66468667831854 6.221041834409572
Ir 6.993417083155105 5.235867120909683 6.362278224545987
Ir 4.574789356370035 5.707650192742137 4.170443043023402
Ir 6.412275320068001 4.286284811804294 4.308091740745712
