7
Energy = -37.30601116 eV
Ir 7.716915016277054 5.797834366454445 8.694501299999999
Ir 6.5313540312239216 7.922514273648945 8.588629709652727
Ir 5.345793046170786 5.797834366454445 8.694501299999999
Ir 5.345793046170786 7.264873695993402 4.368206762447841
Ir 6.5313540312239216 6.5313540312239216 6.5313540312239216
Ir 7.7169150162770555 7.264873695993402 4.368206762447841
Ir 6.5313540312239216 5.140193788798898 4.474078352795118
