7
Energy = -40.53760099 eV
Ir 7.5049466440587675 4.292984352534739 6.996422466331499
Ir 5.622980529192295 5.774932415841988 7.013259684458927
Ir 8.800919763926272 6.041452913332825 5.836902344873149
Ir 7.86986615011744 6.481000827723015 8.073181896296687
Ir 6.857532883158878 7.4383521261700025 5.892206450330564
Ir 3.644537672627044 6.728736953093511 6.262025779165123
Ir 4.8807851098751245 8.392048199742142 5.127392806584957
