7
Energy = -40.30045488 eV
Ir 4.532008522612235 7.787043876082436 8.145618876281288
Ir 6.787417987469936 7.12399519918122 7.851105146461278
Ir 8.65687326131493 7.298158636799237 6.297139829420794
Ir 8.130562238756324 5.133506041223492 7.458590179970841
Ir 4.948152969567396 6.670073202150687 6.148140439402498
Ir 7.139517299520459 5.682441748805631 5.298884833044852
Ir 5.102613753973159 5.596772114499656 4.088082770201242
