7
Energy = -39.64923043 eV
Ir 7.400057739961325 5.896906402506737 8.497322663363022
Ir 5.113631167187782 5.799055150033022 8.96208509126332
Ir 7.575232638426711 5.072166652892782 6.243686406974367
Ir 8.263040921203327 6.4370007098889275 4.481224487137593
Ir 5.610884522172379 6.437743085133058 6.682490349186757
Ir 6.386644367495062 7.8237528850855576 4.704051453772256
Ir 4.156208587470436 7.045255243246478 4.907248145590498
