7
Energy = -39.47359925 eV
Ir 7.7166399605709675 5.335270768688247 7.115960371336947
Ir 5.601656491414736 4.174269011453973 7.5827878761013405
Ir 7.8822028983660335 7.36908006207715 5.899797612693478
Ir 6.003276225091351 4.865090433124469 5.280540246255079
Ir 5.580183023839997 6.691555969443315 7.360649118009931
Ir 5.552366482652813 7.155233079645352 4.868851698613575
Ir 6.127409181040279 8.950367792626968 6.433092612486586
