7
Energy = -40.42210798 eV
Ir 7.648495085575798 11.151258460102634 7.315786856765652
Ir 6.767279699515001 9.092021147600677 7.905435658549707
Ir 7.852370783852127 5.556978959153273 9.657385887464313
Ir 7.4447126846778175 7.8302820116427405 9.856030331074392
Ir 9.022580374412332 8.211191135142268 8.012125620811313
Ir 9.425152848084785 5.9416218922882855 7.948015131392648
Ir 9.823006470329624 10.298091146676295 7.369606689693743
