8
Energy = -47.26373265 eV
Ir 6.6238640923589065 8.245868989716827 7.140903712567042
Ir 5.001859195000986 6.6238640923589065 6.106824472150766
Ir 6.6238640923589065 7.925276790464335 4.612645184717813
Ir 6.6238640923589065 5.322451394253478 4.612645184717813
Ir 8.245868989716827 6.6238640923589065 6.106824472150766
Ir 6.6238640923589065 5.001859195000986 7.140903712567042
Ir 5.322451394253478 6.6238640923589065 8.635083000000003
Ir 7.925276790464335 6.6238640923589065 8.635083000000003
