8
Energy = -45.20752645 eV
Ir 7.210745217566955 11.156146628938517 6.415978959549888
Ir 6.412742035982734 7.637220207198429 8.273927068831759
Ir 7.961347511888444 9.142021647938993 6.958662128398071
Ir 8.972041182034463 7.435002014827647 8.649398180010133
Ir 10.112926145016845 7.942502717828402 6.509415225318889
Ir 8.060062869282547 6.560081334310524 6.590714861442108
Ir 5.250482994159754 5.890691446099346 9.421922584170659
Ir 7.486219262941027 5.3514977617540165 8.739400524733519
