8
Energy = -45.21200878 eV
Ir 6.389876806457604 9.158353347146159 6.571116480347412
Ir 8.352084611922411 7.5922398681506165 6.785649666073814
Ir 7.233369270605719 11.380471584605944 6.716287835612275
Ir 8.315905874019258 3.7676339320785277 9.209123582552548
Ir 8.590702537920327 9.886444394118744 7.94479255360482
Ir 6.95117733773312 8.059016203516379 8.754178336036878
Ir 8.096307677189152 5.878518412338157 8.56141805363281
Ir 9.540690751721776 7.978292101499447 9.074057638382914
