8
Energy = -47.34570827 eV
Ir 8.319558153647943 7.974658188474439 7.346620259922411
Ir 8.151477204491531 5.656816660133716 6.559825305531124
Ir 5.9416306712833595 5.407844018709254 7.654811411704507
Ir 5.868910599803179 7.782297187926306 7.6456886182187045
Ir 6.758746924812912 3.768791645214577 5.794982238608542
Ir 6.82070874606834 7.3917456458097766 5.366217345987933
Ir 5.134837461865414 5.559226184257284 5.313396185640076
Ir 4.332073591309988 7.844856006599859 5.70386508163341
