8
Energy = -46.89223319 eV
Ir 4.4945300650092985 4.457751422288682 7.186713677697081
Ir 8.79028146809504 6.0247551527235474 4.8509656154478025
Ir 6.663604967667203 5.118788890979931 5.96745040401348
Ir 5.972377906787159 6.190684998818949 8.199959474597742
Ir 8.089263918024868 6.981832427697474 7.05176172006841
Ir 4.6686527541332525 6.745163711130537 6.1887317613857045
Ir 6.780286100607768 7.512023263698482 5.0405330347843265
Ir 6.102037327202954 8.571361787570119 7.272717062217055
