8
Energy = -46.37503783 eV
Ir 5.143754158212547 5.5752554993213215 8.518818324867416
Ir 7.161833906029373 6.896357198045044 5.077842566221952
Ir 6.7797245663795005 8.957656269264753 6.398023271453571
Ir 6.151982982941646 4.8032180474598585 6.392306241032981
Ir 5.243103641819348 5.580689399113135 4.221875026082639
Ir 4.9181044448919655 7.090679259689409 6.374048409801897
Ir 7.118055943145069 6.883295161108708 7.736762895535256
Ir 8.597899161441326 5.32730797085855 6.39478206986506
