8
Energy = -46.46000687 eV
Ir 4.765982858676403 7.961291533623947 7.930712848572723
Ir 6.26031342616621 6.4095935200454 6.505217011573322
Ir 6.880778112665366 7.636474577637943 4.543089373783736
Ir 8.163255925977893 5.784701729018545 3.832056831640064
Ir 7.6105932443128355 4.574215605748616 5.790833705821992
Ir 5.575350286261182 4.113042775857939 7.188880123123346
Ir 6.62513262338436 8.868111058483098 6.7004935235646865
Ir 5.507223499626569 5.883622451596773 8.820516983088757
