8
Energy = -47.41755126 eV
Ir 7.252016198412317 8.77521738080572 8.389906262190946
Ir 6.490964385253536 6.486112090474421 8.339595800564233
Ir 6.984133069069446 4.29655663844465 7.265304385257807
Ir 6.973295742402386 7.800322132509423 6.293145215896513
Ir 4.6800209461746505 5.193194027916494 7.24902003914827
Ir 6.923868615042756 7.4841950835100555 3.8924922981852115
Ir 5.1229748052967645 6.38107256241798 5.250501047657406
Ir 7.493708163299142 5.495740280415187 5.288328477119746
