8
Energy = -46.49025694 eV
Ir 8.321019318863387 6.586895016576108 4.999502328947649
Ir 4.8714601808365074 8.430050830256851 6.76881551615033
Ir 4.918294704308691 6.150982432443991 6.315075949381955
Ir 7.10145847447553 7.200407553238147 7.025191014760255
Ir 4.490395138465005 4.163124519811391 5.131325270774193
Ir 6.367300119571494 8.799313295917374 8.588093178383199
Ir 6.774381720135439 4.7141674223402 5.340275941908169
Ir 8.472441791311676 5.170359809333704 7.0308180813778725
