8
Energy = -46.55727657 eV
Ir 4.776015918182983 7.376422272772016 8.148545166564627
Ir 6.559975440588697 6.69156872582376 4.221067703735148
Ir 5.480597924264521 5.053423731741909 8.061713216141325
Ir 6.520751073345288 4.617311028525722 5.820532621321763
Ir 6.86435376036563 6.948621700061206 6.866325784414715
Ir 4.544334727614947 6.273385692086609 5.930673229478203
Ir 4.869832719923523 5.024021322127286 3.816376735639897
Ir 8.617463767915448 6.096893075507584 5.325134313750019
