8
Energy = -46.67650883 eV
Ir 3.52339470140674 4.773171328758792 4.254151226835302
Ir 4.561991904340789 3.9472167959535382 6.4236067004469835
Ir 6.881141600547685 3.0136050672718526 6.521910460983228
Ir 5.85853848662445 3.6950354495278823 4.29594882006418
Ir 3.3027249871112305 7.166375415068827 3.65995245996268
Ir 4.322036894135685 6.486388992728443 5.885804937107606
Ir 6.6650903023795225 5.408348612489361 5.9232305932433915
Ir 5.6156341236557505 6.240411338403535 3.765947801558604
