8
Energy = -46.21721309 eV
Ir 10.635553449903815 9.04360032033485 5.856707413084693
Ir 8.904288269240608 8.13635322531751 6.8579415747267065
Ir 7.912821980207426 7.94737622682709 9.20718278971049
Ir 8.569368434359697 5.880181657009968 7.90669229835259
Ir 7.0851330529310195 6.621752678998719 6.021557172702594
Ir 5.519295781793649 8.507156348637212 9.668516933892786
Ir 6.0860705874075185 6.406928517852227 8.397906691626366
Ir 6.448567443409756 8.672588481677284 7.351456129656096
