8
Energy = -45.95015006 eV
Ir 8.584452856154055 6.756656363407144 7.137151072546795
Ir 9.066155635469471 8.944319223405767 5.927663352816257
Ir 10.156566121861138 8.49657791832747 8.136592957448991
Ir 4.866377321641726 4.721134968512882 8.51378646467876
Ir 6.3528501737229455 6.349265829058078 8.13715221786667
Ir 7.869437537387627 8.025305555292958 9.183154858279138
Ir 8.388180553500447 10.211658864707394 7.96914162291133
Ir 6.7736939498506725 8.501019284808722 6.967741564231291
