8
Energy = -44.88082887 eV
Ir 4.561157717884217 6.94208307287278 9.924960795092872
Ir 9.619360554612166 7.618073933861489 6.978531023657691
Ir 11.342751740599876 8.960022685816803 6.0903449049565745
Ir 6.807621811937314 7.729915913144492 9.720844417597798
Ir 9.100552500971167 9.938793943919286 6.243081235187328
Ir 7.387887305704199 8.54696712122496 7.446920483625996
Ir 8.162197884147181 6.2150336769289956 8.252461270414168
Ir 5.694561558950232 6.704118422264064 7.816600291475905
