9
Energy = -54.06588476 eV
Ir 6.593124541226247 6.833928194723028 7.646340323078379
Ir 7.773161676092736 8.83900598889365 8.778009553694782
Ir 5.508726698953871 8.41955577947994 6.2184290276330465
Ir 6.703147245060011 10.266419819658399 7.2155152510077025
Ir 8.416887941232462 6.15970461127567 9.229859018771304
Ir 9.950483970464452 7.786535607794248 8.150634723329475
Ir 8.106705761002459 8.296614790495351 6.304619164029039
Ir 9.186066680700835 8.14941614688409 10.597980094759974
Ir 8.938610862824277 5.9686982058078595 6.733280759390115
