9
Energy = -55.24544432
Ir 6.978565826935327 7.710289972212628 7.506396442685018
Ir 7.768894622959877 7.747157561905566 8.666819284859246
Ir 8.205048485899097 7.741586343572637 8.012039631446532
Ir 9.039013593531838 7.7058023565140115 9.251075702744554
Ir 6.96243224642452 8.921614559571745 7.5113103865871365
Ir 7.753338670601121 8.886006608463292 8.671507864416368
Ir 8.189216904536762 8.920352821570638 8.016814694692542
Ir 9.022715502086673 8.957651051663946 9.255961339041907
Ir 10.418390984405395 7.747157561905566 8.640615816146546
