9
Energy = -52.35107377 eV
Ir 11.409159934410564 8.22496102057943 8.282964315976965
Ir 9.175518169084988 9.344663239180171 8.072933952429432
Ir 7.066582653374648 8.120550673788753 8.917474567103163
Ir 7.390286285491442 8.454438864377293 6.43254059734323
Ir 5.284217463932958 7.476767025879244 7.2719682185315255
Ir 3.050048063781321 7.685190521147273 7.230477957986266
Ir 9.370461964296613 7.034854955617061 9.078739010984075
Ir 7.56828516196783 6.144871505003528 7.434447677317756
Ir 9.714603192744308 7.368224829182253 6.631569743305885
