9
Energy = -53.2582399 eV
Ir 6.712412816891525 3.9968849608945467 6.713035417622101
Ir 6.712882585436101 5.513183651112489 8.804274011982365
Ir 5.3756254998301545 6.157912351332302 6.713035417622101
Ir 8.050174573228425 6.157363151208697 6.713035417622101
Ir 6.712882585436101 5.513183651112489 4.621796823261841
Ir 6.713247829516937 8.026565075211382 5.403036568568402
Ir 8.845890018120187 8.512266584281214 6.713035417622101
Ir 6.713247829516937 8.026565075211382 8.023034266675802
Ir 4.580954954330821 8.513394125650343 6.713035417622101
