9
Energy = -52.29286726 eV
Ir 11.926612716711643 7.752488989879469 9.401519305120631
Ir 9.810741464048599 7.748083923546281 8.785072021543408
Ir 9.122537421372911 7.735939877719746 6.063537068410912
Ir 7.906822263431263 9.08547804816418 7.840942424484923
Ir 6.666766242894779 7.83465079348948 5.922052506060495
Ir 7.820362833683425 6.488942055052074 7.842603041834031
Ir 7.518686982464582 7.785199344927158 10.018228503169242
Ir 5.673883029935186 7.877131622098734 8.280433619857815
Ir 4.307086976676078 8.008766528988414 6.338964032039096
