9
Energy = -53.66633151 eV
Ir 6.567320974689495 5.495378555678093 8.045899877141062
Ir 7.327603555216996 6.761900915771296 5.963115159510421
Ir 8.95610566951328 5.334201353127501 6.975991871949525
Ir 5.249797958514626 7.418102815545172 7.278734072558773
Ir 4.4038354719037045 8.813027723812999 5.429900396776374
Ir 7.4519022228684815 3.449376178894328 6.733289871074292
Ir 3.983276028350712 6.2596595829012704 5.52521889325977
Ir 5.9020628245030045 4.791464949408046 5.524285775642395
Ir 5.8069467355757665 7.326027733376256 4.172035710955768
