9
Energy = -53.33176921 eV
Ir 10.322235610767672 10.404541732293504 6.408513871293222
Ir 8.897705857183587 8.495486335878171 6.080870567109531
Ir 7.3262841673089465 6.622405754969669 6.3738964851994995
Ir 7.041193423508471 7.480109819409348 9.991698244263318
Ir 8.951476067655898 7.194883484771885 8.291650768021317
Ir 9.221109453005644 9.676147064981954 8.381139589999519
Ir 6.98071423408465 8.763737740603311 7.766729311019832
Ir 5.4215440271841375 6.862597825612684 8.11290490147529
Ir 7.336163293403948 5.341097420325806 8.626407252681487
