9
Energy = -54.63272847 eV
Ir 5.297974321705312 5.422504544614824 5.68619224538437
Ir 5.595763422098634 7.351820525912999 4.2728356666151415
Ir 7.028178808972248 5.0067787308892955 7.563104895193157
Ir 9.007994110225162 6.351874887340352 7.37880835098145
Ir 5.387500445153761 3.396779874125745 6.945717593084101
Ir 7.65633491328919 6.559139838279008 5.309219403089764
Ir 5.383590649326717 6.8939905951964615 7.636757305736005
Ir 7.465451436144517 8.259652180384185 7.164061850336348
Ir 5.342084391497669 8.864252348594228 6.165571765464952
