9
Energy = -54.26280668 eV
Ir 7.490322058798196 8.000737690300582 6.400735838240328
Ir 8.101665195186118 5.531455825668798 6.677104429418749
Ir 4.59891367532221 6.017531697403153 6.8802004890446335
Ir 5.612878488820802 7.382176905538482 4.9516142800766065
Ir 6.226150058343258 4.912113216140954 5.2234476488203425
Ir 6.137913666731863 4.167232763875079 7.685376214714094
Ir 5.0979506295045045 8.485776435182721 7.227740616419232
Ir 6.449128061923944 6.615694530300674 8.30560960284194
Ir 7.95960929171177 6.561811306834018 4.322701359539312
