9
Energy = -54.61619774 eV
Ir 7.832962984628976 4.169029706267095 7.092526340880394
Ir 8.964029366705896 6.02947572520388 8.146358948378747
Ir 6.380258813937809 5.988546225754746 8.092002161705066
Ir 6.765205074292456 5.619921095213583 5.530803566965419
Ir 5.533472220519867 5.693798323728919 3.491230587550182
Ir 7.7976453349211 7.531381144304612 6.681187415774178
Ir 4.797336819166552 7.111610368297292 5.247170647590384
Ir 4.4626329421533395 7.2837520751297475 7.715531720891915
Ir 5.875006335567572 8.93981810555905 6.414769544471945
