9
Energy = -52.58646665 eV
Ir 5.0376176718886025 5.529340145734405 6.815381120799321
Ir 3.961300998287015 7.674581725627106 6.832168490224281
Ir 5.395998776054866 9.76110127632733 6.807159180287437
Ir 6.446872133486209 7.593106302387342 6.831311544191487
Ir 7.627861525317778 5.161544405714087 6.820213302843139
Ir 10.006611860442698 5.284268621284256 6.819297384722814
Ir 8.940064144435924 7.423842173800413 6.814205198932547
Ir 7.920093680855069 9.598840109439042 6.832934602281482
Ir 6.05754447852358 3.367340715367704 6.821294513806075
