9
Energy = -51.4891956 eV
Ir 6.26510507744798 7.8400327827099625 10.686299477188093
Ir 9.020252787829365 8.044514441787536 5.29721119557648
Ir 8.807167990026942 7.758612120088209 10.297559652984436
Ir 5.0925330811299485 7.6682895135146705 8.402597912088222
Ir 6.97180591145447 7.66438760627589 6.513374171706095
Ir 10.053634850554102 7.6668220107270155 3.3327314699712725
Ir 7.262726967577975 9.015911456092427 8.67076587193115
Ir 9.238989130494483 7.703051422391192 7.67427196240097
Ir 7.273706116432469 6.400274318196683 8.781817657260547
