9
Energy = -53.32759303 eV
Ir 5.862876231464406 3.137462733096345 4.10314757755523
Ir 4.097700088764382 4.992691910105453 7.473656305158995
Ir 6.1415265331252105 4.771127961536286 6.120485260054009
Ir 6.881553851796595 7.016063979663953 4.998463971027269
Ir 4.507937474397859 6.7148158172691925 5.55939953184574
Ir 3.859218964431505 4.249961718862086 4.987964208728432
Ir 5.533332425231201 5.556667035031808 3.428825532944234
Ir 7.855942930687426 4.76287932900268 4.215862270608729
Ir 2.256015627292349 5.79443364262314 6.1082994692683
