9
Energy = -53.81882896 eV
Ir 5.928256770515448 8.216108266191664 9.472963874121165
Ir 6.429369298387764 8.060409726065796 6.957810727565173
Ir 5.778170298445417 5.998214558543351 8.30381979257947
Ir 8.270343747576343 9.713202540957937 6.261130245112495
Ir 8.139992321460424 6.271402138328147 7.370025438932337
Ir 9.985768961859401 7.920228027217279 6.697542251003092
Ir 7.662626143411553 6.438822842466227 9.887033479616536
Ir 8.299206310457087 8.486047252344255 8.516926393096949
Ir 8.092332080162867 7.481630580161307 5.118813730249096
