10
Energy = -6.92924024 eV
K 9.652749470926892 7.094527157469501 11.987871434910778
K 9.233658492041643 4.820276123546567 7.843441620227465
K 8.973654273875297 5.173520568220805 3.300434851612964
K 5.581516955793992 6.25652877122602 10.065143567079307
K 5.2350086832606335 5.93387636444107 5.679737738790918
K 6.054279031389846 10.128323453160178 12.04202391624904
K 11.64640333281943 7.810187593478594 5.58488237964358
K 7.456838179127511 9.349879137732056 4.085151475598587
K 8.641347187484177 9.36271005657781 8.31267745461581
K 4.386326612681058 10.022160774224742 7.787766080408955
