10
Energy = -6.72321013 eV
K 11.784224498218112 8.030892430072717 8.73008912955242
K 9.009911848262503 7.827994076828977 12.138677522389585
K 8.212338623675514 4.958206363876756 8.644456342451294
K 11.144605629958008 5.70243434557902 5.221959573579003
K 10.999385374106039 10.73471566976278 5.52446195321072
K 7.313128245254199 8.062148994376843 5.736604157089448
K 3.8651437130730444 5.365613658250904 7.011830001685078
K 7.993396190011626 10.913468810077905 8.932031498362749
K 4.967124460403917 7.712317157084201 10.393788335145043
K 3.6878468734434975 10.35817617479603 7.2984469830664
