10
Energy = -6.82166589 eV
K 9.442709578062509 11.363267006480216 13.603657759937269
K 11.273839243356184 10.24185037389062 6.057220891459294
K 8.243269443739555 11.520661147953613 9.168300942281242
K 6.843830064528149 11.057605553839348 4.8881183517166145
K 12.489557322443966 10.279322462176351 10.255995579843914
K 11.420024261540796 7.153509706162663 13.013643084776426
K 5.800840974329254 7.963806934415298 7.643901876852928
K 9.06316661471805 6.861033463355812 4.45732279721444
K 10.195550533438658 6.766021141575192 8.711843954702822
K 7.183729904469161 8.036144735649449 11.794806036835416
