10
Energy = -6.8613863 eV
K 12.55837742183305 7.953096990959786 8.719731257168979
K 9.48558640263475 6.5238937629591405 5.5055400637688985
K 9.113199922184704 5.386030156550848 9.856536369763564
K 9.17666109004825 10.557736307456173 7.77882363221868
K 9.473364941450004 9.284619858216594 12.07381593076056
K 5.778109800025403 4.592204400916306 7.232149525367551
K 5.712877423250053 8.35601236145684 9.642171522434259
K 6.040598927029654 9.448418937394758 5.163962318991669
K 5.755366916808668 5.73329663490472 2.909471888141041
K 2.4106011178339104 7.253297776464103 6.496880669442337
