10
Energy = -5.55403636 eV
K 9.992267187524922 8.39130075496666 6.644338279180756
K 9.421554923454051 12.762822638233267 5.534001148942369
K 6.358291186198886 5.927439670986577 7.272027101934708
K 12.720845074372964 11.900951440091067 7.807133331102429
K 6.037953154628527 10.270002714592463 7.266162074649585
K 5.741249140154017 3.8289483279082415 11.149033956178117
K 11.381917811970313 8.765620700903847 10.82407815123201
K 8.751476546821458 12.033736851817295 10.033835408652186
K 6.969082001581768 8.20915817368106 11.125080750978551
K 9.726253038755779 5.010908792282491 9.44519986261225
