11
Energy = -7.70296384 eV
K 11.443966509941456 6.309640104703366 5.13656833366573
K 8.107909499456902 5.858154334849418 8.066493502581736
K 11.04325513026331 12.850366379965841 7.592755119091786
K 13.00522939282347 10.27482733735316 4.824433435195858
K 8.43699894882234 9.632598166978216 5.839004559726396
K 4.743351972129873 8.610747411326788 8.071714264738974
K 11.484612728774374 8.584094282232488 9.000410550536822
K 7.861732106093484 10.856352021550677 10.053822015129308
K 4.835830183158668 5.144367707365876 11.000022986654518
K 8.732148113102783 7.148864718884762 12.17233190942803
K 4.6751643979515976 9.10018651730739 12.612642305768677
