11
Energy = -7.54483926 eV
K 9.32149975189368 3.9310190212269838 5.780128939347488
K 5.407503650958479 5.27515074142813 5.3812879316009665
K 4.829665291641207 1.4232987001732347 3.982675435102994
K 5.104585863596177 9.239130786065829 4.238708878155781
K 2.011715270180081 5.41501901651268 3.006051711075483
K 1.3635201485612403 2.75134835378026 6.522460452794823
K 9.496291356468868 8.0814668593665 4.241316188718763
K 6.963785423034049 5.4807391420388845 1.5906675406798365
K 2.378143700017551 6.921514821643155 7.657591895140125
K 7.32590666887891 7.709600375358712 8.116252874481548
K 5.167851644827072 3.1421803660118024 8.853327802635961
