11
Energy = -7.77353966 eV
K 11.271779517137036 7.830829446545467 3.392660912946899
K 12.723352745246318 11.082885117684997 6.315582358128696
K 8.517831102858445 10.032200735634223 6.0967243550278925
K 7.864818843250143 5.5763606082370885 5.9246238685378465
K 11.65078743524022 6.8105809343578985 7.793799182353661
K 5.159928666389785 8.236961357768886 8.342558122904261
K 6.715854401906215 12.35357002157557 9.395469061155705
K 8.28326625287214 5.97021692436528 10.483304034424219
K 4.0461069467597115 5.619709624570063 11.982374754452064
K 10.379793899733215 10.052453937191862 10.433477173293934
K 6.298031503788907 9.345782607250811 12.750977491957107
