11
Energy = -7.44729436 eV
K 12.908270574018458 6.314697681502967 9.723437926706039
K 13.676890697663136 10.3400363644613 10.692517288072722
K 8.935853316414299 5.482458787741136 8.606299047228992
K 9.765571571013671 8.885538209641467 11.64859543813303
K 10.46885442102118 9.312159705843369 7.407670394959095
K 6.695188319847311 7.775583546529175 5.579358699191804
K 11.17210035099222 12.709442800186611 13.488038259591155
K 7.119012331319216 12.324918598077895 11.646172838330633
K 10.609810276874075 13.038955764182653 9.251896927359653
K 6.991831289344735 11.881965964397674 7.22302513773932
K 6.084035253150793 8.554152493864278 9.784593907952749
