11
Energy = -7.75329487 eV
K 10.562480686350254 7.426411896889044 2.819462884238819
K 7.678033706457162 11.463236813735502 6.11287571510544
K 10.765585477646116 4.72268181974633 6.390134230875517
K 11.214965863151908 9.065376015153586 6.793935815221654
K 7.185211155504361 7.131652094337405 5.543504377463315
K 10.825076042015558 6.931749948649141 10.545518877581264
K 7.095044415466953 5.144997454921709 9.386790431568086
K 5.277194324413198 9.143139695947283 9.060123493552052
K 5.423942776598084 12.15703507089591 12.28054585955234
K 9.17552887496523 10.959188319791192 10.307019500951528
K 7.0527158990937 8.110310091596183 13.015868035552964
