11
Energy = -7.49310083 eV
K 12.067357021576873 13.10503593858323 12.829444705873547
K 10.955016499144024 12.75697173880943 5.2765639917296685
K 12.065387584337623 8.662170881411177 13.217860290402841
K 10.382894073966336 10.742354998621217 9.359968380003407
K 11.362018070303458 6.3470151502866345 9.352691388767859
K 7.097197129731968 10.939925190705015 5.621097277721686
K 10.914851251240078 8.303046816312738 5.260277412273298
K 8.282879226759805 11.254825292979362 13.929570665429624
K 5.9562578429631685 10.584352100331834 10.092524301875136
K 7.2520913836135 7.094079464273371 7.542108393508227
K 7.970881126482108 7.185791888909032 12.09793082767891
