11
Energy = -6.88968601 eV
K 5.184266708153927 5.3949902907705365 6.164432439889101
K 6.445971551379477 9.79532746726285 6.225235569690677
K 9.469643175465555 6.698630717735018 7.065443825952878
K 10.772819113119315 10.691209390239598 5.939671986098947
K 2.2503107461963636 8.279649638150413 7.302453687181631
K 12.992866425268756 12.990198003647876 9.019483415279815
K 13.010000345647214 8.734130969244303 9.307089079856938
K 7.3471070228612545 3.584841548485626 9.32242164147707
K 8.90668381253051 10.817673352567954 9.791460390520438
K 5.694993593011573 7.8106856834518315 10.018033110253699
K 9.63088998766043 6.908215419737125 11.549827335091788
