11
Energy = -7.77241784 eV
K 4.166001643018311 6.914661532374455 5.2441258972296865
K 5.9965731937867846 10.848292752530242 6.537441817602638
K 8.498181863567495 7.222771139956464 6.454059043986703
K 10.470924647374458 11.237290725312064 6.248092595806805
K 5.947735286721117 3.930959312429681 7.873742579054374
K 12.680379698312995 12.386668996301308 10.0073509763361
K 8.92511373162984 6.103611012544057 10.763681215690642
K 12.236190268281804 8.087821015989451 8.664488206214116
K 5.077454246083007 7.863562831324745 9.557377766520798
K 8.574726608456608 10.534664265609429 10.140431687879046
K 11.78121052532901 9.22418812818912 12.863699926240383
