12
Energy = -8.56305063 eV
K 6.810229048010486 10.638042877884079 7.184125273147381
K 11.01941263933781 12.300368005111013 5.539150598011833
K 6.49231761293731 6.123788452068708 6.7656922269953785
K 3.1906105788831622 8.638721350206628 5.055882921423149
K 10.603089746353033 8.146950911573311 6.917468452781285
K 14.310998542687345 10.625358551447318 8.120148019449784
K 9.720796825363974 4.619443852481192 9.349634126456257
K 3.4519788001508167 8.094019936795506 9.396412133569527
K 10.240139977682066 11.591790789692256 9.924376499569789
K 5.328623837849833 4.338537613634859 10.828397472824905
K 7.696154235739854 8.258218019111455 11.038210373205574
K 12.425563795759922 7.91467528074929 11.170417543320903
