12
Energy = -8.60403026 eV
K 6.282427968757632 2.491395250615173 6.532590283993407
K 6.339990773080386 6.834630114539128 6.484274803964112
K 2.2709538758876264 4.661353502466266 6.503467243407236
K 2.6223263546577984 8.667715706061452 4.300024356686419
K 6.339990773080386 6.834630114539128 2.1157739094088672
K 6.282427968757632 2.491395250615173 2.067458429379436
K 2.2709538758876264 4.661353502466266 2.0965814699656042
K 9.788501789567388 4.7718696310227315 4.300024356686419
K 9.246763430038515 0.2156754068314012 4.300024356686419
K 9.788501789567388 2.4662236656893834 4.300024356686419
K 2.8388374731479344 0.6852721841184205 4.300024356686419
K 9.889034223417315 6.818779066559821 4.300024356686419
