12
Energy = -8.69546818 eV
K 7.37721456257101 9.269264347932756 2.9814867224581225
K 10.415369016442263 11.93880446615337 4.669596752864447
K 6.312311257229247 11.189991574300723 6.881679932240413
K 5.121917298465215 6.84182147383489 6.845691762814098
K 9.61546739835991 7.757816904378578 6.602464911922231
K 13.469593064319852 10.00795298183819 7.282861889133482
K 11.045758232958725 7.359166960884015 10.987683189217432
K 8.080154572555621 4.49337274366763 9.240908963598047
K 3.9525369774665724 5.063022924744347 10.797107350762689
K 9.974134246186841 11.553846217593975 9.27984476774835
K 7.720214874829296 5.445911342803366 13.496255455427763
K 6.6542613963051735 8.817960959558334 10.673351199503264
