12
Energy = -8.28340664 eV
K 6.3303077417603255 1.763963219231845 4.529500862869325
K 1.5440144616793328 3.5952314869846766 4.4439991400961265
K 8.365146158713019 6.374567028010417 10.230362851688813
K 3.439978850256422 1.862950906344733 1.0603842892214064
K 5.133900484456369 5.986097462136307 3.3716220559364842
K 8.309442749947863 1.8428494056445026 8.635854655386138
K 8.985896438065577 5.315048033925372 6.012055367333469
K 1.9301520857968872 7.579271564590566 6.357780338206227
K 6.152614385229691 8.997006712817193 7.552272324835112
K 4.090886424602591 10.514201855706675 3.726647778356496
K 8.309998956161245 9.019340952609731 3.708342499542168
K 4.8915881825536625 4.633398291220973 7.855104755750783
