12
Energy = -8.38905434 eV
K 8.181793796984461 5.13147586353221 8.756794457363366
K 5.6450673183558555 5.627872894286546 5.216612722288121
K 4.924515071767106 8.593463820537249 8.365995414702175
K 6.5862710117472005 1.333032034517184 6.564063024113228
K 8.735998121635449 8.426345593866072 4.846745409954757
K 6.543768635759209 2.8548901635252015 2.0336545237893504
K 3.2406114202363074 6.207387804975439 1.6398196108424918
K 2.5508057537497835 2.601939024920626 4.750333706124338
K 3.6635928466570173 4.200741379526811 8.878800986686139
K 1.3146135050499077 6.956320652889794 5.8591189195614355
K 4.379375653593599 9.944526335143921 4.047421953958059
K 9.99507880021971 3.8834957815834024 4.802132086048863
