12
Energy = -8.5930241 eV
K 7.15556217852137 7.941748917201224 4.556952545655425
K 11.266351453591232 7.621928404708303 5.962477630160112
K 8.393131354661172 4.014544546456432 6.002023699395266
K 3.927548414417541 5.394827674138381 5.958287315919733
K 4.206112231496184 9.737847880193094 7.322949082423378
K 8.982107787477227 10.840356392472781 7.847782244444029
K 6.9128268953967815 6.971058271377219 9.268169709839862
K 11.063415162221865 5.618445669281371 9.781390256218215
K 6.311724234803993 11.488318370536232 11.222207785456536
K 13.142323267381093 9.836127194493391 9.72585850926583
K 10.497063883315581 13.169237283949538 11.605418371077642
K 9.734576329038815 8.958302587515162 12.339226042467262
