12
Energy = -8.40732619 eV
K 2.7211433378403656 9.232689383616671 4.761151715450576
K 2.9684708713610513 9.440853393698912 4.76318881609031
K 2.3759594393806696 4.451041894390301 5.1370348474905905
K 6.665993257887667 2.0420544545954336 3.3295015964083
K 6.222167899113627 6.563144863758458 3.6463625084007902
K 0.1365665619530405 2.2206553542809226 1.8404617840867756
K 0.1792287078206521 6.745595300122655 1.8618061040463283
K 5.461186605243961 2.2962769887054613 7.604686411260586
K 5.15922705658968 6.998684474178691 7.769802031269168
K 3.772602812518385 4.227798606284406 0.7396643050823116
K 3.88956582217951 9.232689383616668 0.553059748631339
K 9.053492126840855 4.405006841681783 6.598883794378329
