12
Energy = -8.53530371 eV
K 5.634431801520369 8.930814702054708 4.862171950121091
K 10.825376949517118 8.233441543547523 5.773961644484149
K 8.212728348296991 11.151909722254231 7.6295087478914345
K 4.071587047320299 12.62928162893282 7.093079712326836
K 7.804557399928881 5.944181112968681 7.816354709406058
K 11.563308186150145 3.7457301005932697 5.979474980561834
K 4.582657711251874 8.605857122743222 9.190496096704228
K 12.18736734319753 5.829455077124156 9.671164650458298
K 11.908235828753458 10.415999953036183 9.718353332107577
K 12.694164872793191 7.832901447729044 13.41080913802997
K 8.39215673950049 8.25231558144601 11.529920719726256
K 6.003766703530112 12.30845093933032 11.205043249942744
