12
Energy = -8.52367799 eV
K 9.159388592983403 8.615983838109193 2.810203131741351
K 5.929363507701002 11.539489844331802 4.2196883188784735
K 10.389511062557169 5.759056762441941 5.913196302558529
K 6.319495776084512 7.838092626220038 6.591381779338763
K 10.178102954969704 10.353048853994474 6.578165414426818
K 6.468348484291424 12.187919877539255 8.436073194812996
K 12.720422137926025 7.690801795718889 9.121527079087526
K 5.222148698824255 8.83173206232437 10.971290436217148
K 8.426795632515454 5.863894528096319 10.163871239845237
K 9.602170810057068 10.26503295988525 11.120078295776382
K 11.46380353786601 6.569613966954558 13.259024068228854
K 7.663191914129876 8.028075994289821 14.358243848994327
