12
Energy = -8.54608042 eV
K 3.9609358592045396 1.94474916431094 7.218833795736103
K 7.745368836801806 3.939179991080607 6.653775488256962
K 3.960944924803995 6.400374240491354 6.685563578228151
K 7.567213680017085 7.947497493992252 4.466042399819631
K 7.745368836801806 3.939179991080607 2.2783093113822988
K 3.9609358592045396 1.94474916431094 1.7132510039031599
K 3.960944924803995 6.400374240491354 2.2465212214111148
K 6.922103485839368 0.05635564265718257 4.466042399819631
K 2.3628112654852 10.414156512482347 4.466042399819631
K 0.40770353173940477 7.991921926563745 4.466042399819631
K 0.9968246513897598 3.5714051182523465 4.466042399819631
K 4.001353499387838 10.414156512482348 4.466042399819631
