12
Energy = -8.09782187 eV
K 7.976654813089355 7.756317534614905 5.215940356175358
K 11.552264459704908 5.613236041980447 3.612798202105203
K 12.415519013515317 9.572537570282591 5.002536485019777
K 11.114779575216478 6.523214701571928 7.936244245834684
K 9.08201919664051 11.198505688171668 7.681952055989668
K 5.222232367240625 9.43133383777095 8.205689083918069
K 6.9435226551048626 5.516836963920932 8.979356969448299
K 2.5398847848924326 6.0791818758253795 9.38378315245305
K 13.052915686874243 10.335781410046366 9.203931748841546
K 4.801505344541651 8.098491429879054 12.409289359745538
K 9.210528662649292 8.468834163813883 11.252786959479032
K 6.60650633805863 11.924061679650354 11.634024278518087
