13
Energy = -8.99593681 eV
K 12.072332263445826 6.5769268523512965 6.437188063698462
K 10.131628259662772 10.406607652566672 7.658279197860198
K 7.800894999025067 8.254083416419435 4.402959085367618
K 9.206823704723295 3.874774120181113 4.603988767763266
K 11.111895274196618 7.686025185550211 11.173865476838783
K 11.890851228479866 9.672449601408244 3.3102938848351977
K 6.289354665159875 6.31007239790735 12.746826046446902
K 2.762353168308114 8.705618535107785 5.275836432890929
K 7.872183924830073 6.3041840374108205 8.537307220511897
K 5.656914992460982 10.558120717507865 7.948340393942598
K 7.68974621594161 10.334201533183386 11.686475461320182
K 4.975636285567759 4.962542566605721 5.480711923171316
K 3.419763157137641 7.0624152196276935 9.585045951005732
