13
Energy = -9.36822276 eV
K 7.530445198443461 6.244070104735815 3.458846827934915
K 6.41762614465464 6.900604299476145 7.569367878917434
K 6.261572541262762 2.8763511913395345 6.079745378621638
K 10.384204703090713 4.612067501277585 6.40193913110865
K 10.110112988963452 9.058891759542627 5.875107738254537
K 8.850102758017135 14.911226795102207 7.845948021706893
K 6.712167243042739 11.16735255652594 7.79444059243161
K 11.087793850913306 11.674593663161037 9.411472754654037
K 10.812948967721798 7.358764799714755 9.878264217507748
K 8.082940160120888 3.851285947023053 10.086527797093066
K 7.459199931642994 13.17741649757418 11.680077606817873
K 6.8904800833179545 8.729992268169278 11.461388468135135
K 10.411768951471789 10.448746139021459 13.468237109480734
