13
Energy = -8.56599232 eV
K 11.465030828380764 8.11189646626729 11.090882737709991
K 7.734878932061434 13.129303634343795 6.266260919716348
K 3.822099412596897 11.893684289196331 7.739616649745463
K 11.646868843740222 11.148852081031182 7.7405427607850825
K 10.423094009554411 7.027015631087713 7.011696163767113
K 9.64216708045095 10.036847028523107 3.7375870484690807
K 7.429179132708463 5.861559547088873 10.516095560148354
K 4.017219079082047 4.40943536087557 7.779662110490741
K 3.5911250087387434 8.124519407666208 10.003838999837779
K 11.414540333751061 3.6622336244978553 9.759551925005669
K 7.734600435586193 10.39122997138417 9.910226011152664
K 6.263795382892305 8.147469101957876 6.295757572870079
K 8.108458840386874 3.3417913905004313 6.645706453004684
