13
Energy = -8.78696644 eV
K 10.277827973313894 12.157234928325037 6.954285288352538
K 9.220032764378752 10.995815017053369 11.241111847245683
K 7.68303453170971 8.545893272754833 7.719477429258115
K 12.290810294278804 8.476974977539731 8.506484246085662
K 6.971984085024476 8.823722386757446 14.42668920106261
K 5.678486573762797 4.402971221757508 7.771528014288704
K 3.395574102148505 8.051793893240406 6.502411368337491
K 9.081123164431856 6.413153618099731 11.254047952063297
K 10.04612665432009 4.868936794494497 6.922620589862596
K 6.6218479258018705 10.65809552638684 4.0782637035444855
K 10.704261642206609 8.48644397554028 4.1657775575812765
K 4.578475370402565 7.387594929886477 10.967166758921506
K 6.911944270399388 6.187625805412107 3.7111682695273425
