13
Energy = -8.9621705 eV
K 9.466418309837588 10.424922827602593 3.8752412690120868
K 11.638790457113778 12.187838519942794 7.656210596390315
K 9.05432001780182 6.251925159531056 3.298892573827688
K 7.563096308953219 10.299651695899357 7.791954104038634
K 11.389097236892402 7.781003323628873 7.323832631109445
K 5.273009866146714 8.132013193991957 4.351964142767105
K 10.438208011645264 9.979985212089613 11.322619304441895
K 3.138930244752067 9.96843563876059 7.723714980562548
K 7.726714596161884 5.453024953911024 7.425098697617482
K 6.241710127014838 7.832929082481488 11.131810247984147
K 10.182471325245679 5.35632307778523 11.235391835110502
K 3.375451916085379 5.825334000688742 8.046724131354527
K 6.224963521537428 3.4296826345195446 11.138902117940349
