13
Energy = -9.36189853 eV
K 9.662371647291254 6.244209462715202 7.358852685231149
K 4.454154131488573 11.536141771593362 5.661435119849864
K 8.909322606042837 10.376477553143362 6.133803151258379
K 5.499979001137603 7.31869158743431 6.066596144142288
K 7.399618844594748 14.42327105086781 7.128627437849601
K 6.368909793962571 3.0692693392138937 7.419940518688542
K 9.37739183555512 3.571662620518822 10.74998539096547
K 6.321551456060703 10.673285381988888 9.525508464905453
K 10.432470530698936 12.767782105319382 9.73878859508518
K 13.120306393181675 5.748856812352001 10.515818174581574
K 12.78226864040766 9.446924978783237 8.25729002534696
K 9.719418655511785 8.454104696465855 11.254499545471187
K 6.003170969865472 6.420257145402642 10.239789252422659
