13
Energy = -9.09034252 eV
K 12.372976436898622 6.915262498097576 9.484194381383901
K 9.466786526250557 4.009528313154059 11.318926638118148
K 10.917200647085583 5.484861653759539 5.540260455419726
K 8.000306788840602 7.828635832321292 9.478013738145165
K 10.161439230968949 9.915628178927237 6.447089939487588
K 7.736595952643343 2.9995904594699363 7.572459268824301
K 6.5350282880184105 6.6856849848387805 5.302430485087792
K 9.61620327625831 8.384307358215025 2.324623460199424
K 4.59110579003368 5.376378080402102 9.885673856581942
K 6.721864518788053 12.07939264702869 8.75248250127441
K 4.3617666839954445 9.46731010386906 11.915561701047482
K 3.604608861449752 9.164441944873271 7.612347107345257
K 6.221087019872578 11.095050550192335 4.399924102326868
