13
Energy = -9.32790629 eV
K 11.624164922177789 6.011826149425386 9.211414842207118
K 13.672138952631087 5.826673566051716 5.482665954524778
K 9.338528473906551 4.4797890935104085 5.861146172664625
K 8.73225455116992 11.026535172293816 7.769931259322148
K 4.366912819772033 11.240274421130096 8.643072136909051
K 9.90950801464126 9.375925213623557 11.541287291097206
K 10.401093667023508 8.453817362542523 4.6689402268544615
K 5.403738377801432 9.19331883842932 12.498005616776444
K 7.053397327460171 13.035915196269517 11.52849319455433
K 7.3030376964803345 6.341833161536234 9.657180534679533
K 2.941778851518173 7.293874887756348 9.423090601645828
K 6.114783222418527 7.996771193033759 5.906771807355471
K 13.146492928508522 9.73127554990709 7.815830166918313
