13
Energy = -7.18641645 eV
K 6.337189464517542 5.466785071867682 6.6271687911293835
K 5.589657207430386 12.884099283271699 6.602294454858999
K 7.615170776089624 9.404147777949008 4.860278728661901
K 10.379047356924485 7.240687199884575 7.587516055726319
K 3.3497337368171505 8.951311158564092 5.841318979011264
K 13.685377694788368 9.268437363622768 9.857064250666854
K 10.048053491849885 11.598206060340141 7.735397614856693
K 9.9657462308497 2.8963092891945474 8.02571691458737
K 6.2719909067799415 9.269037394965945 9.098118480367337
K 7.851277238478655 5.53894786167845 10.843710930385924
K 12.25017390026807 5.315742089199659 11.150098291416553
K 7.382918316815562 13.341513615538343 10.608157856652905
K 9.796189943640925 9.347302099173236 11.685684916929102
