13
Energy = -5.23450273 eV
K 6.220152911199953 10.093278308756336 2.9392401970259314
K 9.683598360527112 12.339897173377329 4.169240901982087
K 9.178146507973828 7.807305189112511 5.452606768206091
K 4.536353113613959 7.011328927973888 5.439184911881364
K 7.29896590128108 4.672219102080924 7.910178666846935
K 6.667238001714165 10.666607986822799 7.3869253234298755
K 10.831722773623161 6.745330542930667 9.396567395607853
K 4.694424948485836 7.608074345357551 9.815198485926947
K 11.139119479899163 11.07422773418522 8.029546330776812
K 8.317933477863388 9.598596346953268 11.341296815520273
K 12.984504061226236 10.162894788684355 11.843664796587996
K 7.385971530049506 5.128452733664329 12.272344829807578
K 10.927774233536184 6.957692121095005 13.869909877394287
