14
Energy = -9.76814961 eV
K 12.875466026655378 9.201294859626536 4.039420784990631
K 9.396768667684931 12.05474519202713 5.438813416163365
K 5.286984524104754 10.067560407361492 5.994862652106252
K 9.209360510715339 7.481573310692299 6.187824960794029
K 13.176250277392072 5.638682531672179 7.07207243569038
K 5.641955066970787 14.036659900112179 7.713584921594067
K 9.55248349166522 3.1307285079285405 8.172428237972774
K 5.666280741070688 6.449576502423122 8.925144799941709
K 12.509693699069437 9.898926871279182 8.199491587987573
K 3.3635935452709753 10.630541161235763 10.004329458292975
K 7.745425151927863 10.453531305042882 9.514421251884514
K 9.882552050460472 6.547439475376169 10.568602772987951
K 6.997629986105245 3.423353401575993 12.147622738168023
K 5.634964513594357 7.924794826334503 12.960788234113421
