14
Energy = -6.0278298 eV
K 3.4493477951276916 6.680662982254832 2.925076968866067
K 7.8392631449084424 6.612978432423639 3.5545655886211347
K 6.7633274353247295 4.9777086430876505 10.469232008035206
K 5.1547152965793135 6.719580652941764 7.119181227905069
K 3.986096464215767 2.421231107853315 7.119181227905069
K 6.7410615768584305 4.057504691387566 10.299493844528612
K 2.3997501839366473 5.083307069407512 10.299493844528612
K 10.001165000000002 3.0990599421427216 2.126270717373181
K 5.691463965667387 2.460148778540246 2.925076968866067
K 2.377484325470351 4.163103117707427 10.469232008035206
K 8.504405055878411 3.2571841782079205 6.360538489014665
K 1.3015486158866356 2.527833328371441 3.5545655886211347
K 0.6364067049166646 5.883627582587159 6.360538489014665
K 10.001165000000002 6.041751818652357 2.126270717373181
