14
Energy = -10.1596181 eV
K 3.571825911477891 2.107515321453408 5.294939443396751
K 7.462617658106368 0.16217424499919134 5.670059867118254
K 11.652149376470966 0.6707754588804361 5.34160367578766
K 5.820020493862561 6.0055733114724035 5.6710144052294265
K 1.3915392471890702 6.00385236920366 5.354007964870939
K 3.692708991194263 9.958507851552616 4.748568552616424
K 3.2300928081985862 9.958507851552616 4.99001523377599
K 3.565464807115538 4.014902816514221 1.3501448705382215
K 7.857174536346776 3.5631354513112408 2.6708973748191984
K 11.331864830628417 3.9271114197173276 2.2295186463660213
K 6.026587823466229 7.7484691697527595 1.6077685615212547
K 1.3937813359185312 7.972633310704605 1.4041442464100182
K 5.676899581586237 11.90612267791933 1.726401810299716
K 1.2813796510718696 12.165460383712894 1.4737457024571985
