14
Energy = -10.20298924 eV
K 5.555650833331966 8.648425573498885 2.5277404059250816
K 9.376154927417168 7.57981107447326 4.320601969873329
K 12.549029189848502 8.570545166515863 7.372081046322129
K 6.503076237293832 10.301962135551939 6.465548872281929
K 8.941947432319344 6.491882913965463 8.729853718284724
K 5.154277054684664 6.168534199805994 6.180490101139668
K 10.552815927460149 11.94231576680724 5.382925498710027
K 9.365488740380437 11.009029040679819 9.786426399588397
K 5.399209970814386 4.244163680469521 10.275019791569303
K 13.401646863454843 12.647529485598469 8.87782041455638
K 12.8470301146642 9.280262805147682 11.716667674652417
K 5.356499914683507 8.672766962121147 10.414720091832063
K 9.025076519508286 7.664552666588111 12.987607448389024
K 5.239642038260998 6.045764292899198 14.230042330998591
