14
Energy = -8.68730992 eV
K 4.332968140153261 10.384363 4.013116391481092
K 6.540184150140927 2.104155825822473 3.3340750090876434
K 6.540184150140927 6.561780454484044 3.3340750090876434
K 7.098149996245473 4.332968140153261 7.027314176024017
K 4.332968140153261 7.7352125173463175 7.441508546437533
K 2.1257521301655933 6.561780454484044 3.3340750090876434
K 2.1257521301655933 2.104155825822473 3.3340750090876434
K 1.567786284061048 4.332968140153261 7.027314176024017
K 4.332968140153261 4.332968140153261 12.08029048644249
K 4.332968140153261 8.691631990564096 12.06213673101862
K 4.332968140153261 12.077094009435902 12.06213673101862
K 4.332968140153261 0.9307237629602056 7.441508546437533
K 4.332968140153261 4.332968140153261 10.465182023797857
K 4.332968140153261 10.384363 4.013116391481092
