14
Energy = -10.40138735
K 4.516855237049123 5.001260512221897 3.761218264445102
K 5.80209929438465 12.045163076797616 5.77489856524561
K 5.782429350377223 0.9533699911852556 5.8098854943086575
K 3.9937076975318213 8.102594045984532 7.342903368313072
K 11.278738022427987 6.069846999067638 6.804043892601588
K 8.749178143888455 3.761890004326955 3.8405018242096745
K 3.0061754846450612 9.446502269343517 3.3640331161656865
K 7.065664151166369 5.011794291316218 7.828834229720484
K 10.067797080433422 1.6415100455360545 7.512457528903031
K 7.602063475685831 8.07839711655448 4.227459954171514
K 0.30909344929486626 6.084610694481435 4.778770381602558
K 2.830330133925341 3.7960755448997583 7.758826477143357
K 1.5003621210495475 1.649247506443694 4.101067580907318
K 8.59474775885394 9.45697930255459 8.194340722975822
