14
Energy = -10.25991446 eV
K 9.310431558046805 9.705495984763425 3.284806084388178
K 11.023295624683104 5.439035295591191 3.587252271744909
K 7.822031629673068 6.171134737531293 6.68071463659052
K 8.522802001953439 13.641171134250497 5.717389754468436
K 6.055615794593293 10.066138761252581 6.22901597781861
K 11.54339237074823 8.573269712058769 6.849293145188762
K 11.45685290951327 3.935962676232068 7.888671000862544
K 5.387930268547999 13.099253557822 9.486945379532598
K 7.7169134129982755 3.58371470046201 10.519500830975387
K 5.6013917626867515 8.015955610350545 10.040892178068136
K 9.278960017562234 11.187861362513555 9.304024982813862
K 10.05155288096928 7.278857193977864 10.919495497513907
K 7.010517787708046 10.741102626576126 13.161041844339174
K 6.954562079740451 6.297296746042009 14.067206515118915
