14
Energy = -10.12734863 eV
K 7.5491810894163685 8.382289488131846 3.041092663920892
K 3.797915087383063 7.471416714908599 5.625739293748306
K 11.197873214396786 8.545905713224448 5.780917381417765
K 7.939549024376681 5.175946976617899 6.12952700070141
K 7.229728857962629 9.752314992881791 7.394318183045698
K 14.05021600315414 8.136761966778836 9.45490988594821
K 3.305202413471518 10.318245659630128 9.446761266240882
K 12.496764760091141 4.528084015913532 7.150373411823784
K 5.25927177357807 6.275185472989174 9.692366916427462
K 6.6893451791767315 13.490237882608843 10.023380420171355
K 7.178469244113851 9.652637303751535 12.188491371121737
K 10.74958278787855 11.406440852661973 9.706639713802351
K 9.731448524601257 6.72150268745811 9.945717771533175
K 11.692570037547611 9.010148269592142 13.286882717245815
