14
Energy = -10.29523319 eV
K 6.201492918424414 7.689752926420689 2.55154932299234
K 5.202345716641068 4.773560448561177 5.881929817591231
K 6.970157135178814 11.476754185501209 4.707157451723106
K 3.569534189531422 9.035780576009948 6.211980631344414
K 12.600112881075939 7.320325170318638 8.198619979504961
K 8.371153562098355 7.771890935705381 6.574320290313234
K 10.7590493300269 11.34154343483485 8.11321607175314
K 8.874970691327992 4.654091781060919 9.59294123194369
K 6.296657135201754 11.102895944379933 9.221070113268535
K 13.675567875283896 9.988743176826643 11.430657969056504
K 4.819201624549196 6.962984243240111 9.823189919199104
K 9.173160556815489 8.459552674283918 11.615305941527486
K 12.466165013022362 5.80274203025372 12.527261674066985
K 9.955521236157338 12.554472337938094 12.48588945105051
