14
Energy = -9.53153428 eV
K 2.1649264968490525 4.821032364643907 3.0819106963073084
K 4.8444616352481065 7.861134949860576 4.9510446173423555
K 4.847156367247017 7.13918791601109 0.3491778541986773
K 1.8447425869456346 5.918825617668039 7.489831110565165
K 7.867041574180235 3.7929585434578255 7.489831110565165
K 5.621641995498538 7.104093676162046 9.348487693072812
K 4.090142165627333 2.6076904849638196 9.348487693072812
K 8.244893463726852 9.320296758558229 2.246990829263669
K 7.546857664276812 4.890751796481962 3.0819106963073084
K 4.864627793878854 2.5725962451147786 0.3491778541986773
K 8.965178197126722 8.180695558565919 6.5238023208344424
K 4.86732252587776 1.8506492112652912 4.9510446173423555
K 0.7466059639991445 1.5310886025599515 6.5238023208344424
K 1.466890697399015 0.39148740256763465 2.246990829263669
