14
Energy = -8.78735425 eV
K 8.032981292535583 7.659950216582 2.7804820114219746
K 10.59130386044707 10.423496334629885 5.095140187917393
K 12.254303984684498 6.5222907191386 3.643175944317567
K 5.627431168202575 5.641678399869754 5.786432249887415
K 9.070570424046997 3.5437421730494854 4.058871952091379
K 6.627203026971221 10.001464768030575 6.891342755538985
K 7.540906619766167 13.385713650025103 9.864561369745184
K 9.881511021016198 6.4700816546879985 7.317359013573931
K 10.238824322350789 10.136786538025913 9.317902090985132
K 4.795310250009045 10.397578101238127 11.319801152079208
K 6.617743018108708 6.768655239353028 10.072751338473013
K 10.313533816187569 7.034187084683784 12.52278746319491
K 6.414811049865201 7.656776488824293 14.47308123494914
K 8.761029231940121 11.125061717993203 13.623774321955727
