14
Energy = -10.0186567 eV
K 13.853263379310583 8.591721833155582 10.480044984694848
K 11.98889381897171 12.739266154070785 8.672080045123428
K 11.484674376782745 11.20913842108973 13.221417144673655
K 12.626711298714877 8.621540457791577 6.083323336994551
K 10.523006765839257 6.749535531803398 13.102659885097186
K 11.221941215192125 5.224072612342091 8.699327612821143
K 9.469218077492563 9.364071167697706 9.463519804462775
K 6.689498427362907 12.358536083624253 8.031503631976877
K 8.59379035647292 13.915213761002402 11.633975111467286
K 6.774930914721828 9.784029711718503 12.784807969468398
K 9.691372127004424 11.566261576503313 4.910407071664667
K 7.088395279532192 5.560999441866841 10.496655199148115
K 7.834197246538262 7.482761601074051 6.025797515642859
K 4.4660901919895535 8.646029275661853 8.992672809361583
