15
Energy = -10.95223538 eV
K 4.103700896985353 8.916016721450058 3.6779798510514303
K 8.033003744640991 6.881636829338675 2.933380488392228
K 7.970410869879933 10.585047972392802 5.685781203704664
K 11.728407359092445 8.230394147888948 5.8270831971018096
K 4.935150907985508 4.941652618675227 5.666083784938219
K 8.740751997618737 2.82148714081343 4.734011372394744
K 4.13392435114994 12.646336057587618 6.241216529039158
K 8.46792586771762 6.637454481165481 7.730522190216056
K 9.875884380425878 2.5612487752581545 8.941084558535112
K 4.63362852180868 8.5872042931785 8.43871235467038
K 10.787407341508644 10.019703210646592 10.052326997063075
K 6.209369734691858 4.77328700073274 10.656055906120546
K 6.932084180953112 12.40152414189944 9.866938383092858
K 10.744325431830438 5.885509949739168 11.745637177699388
K 7.359336708974522 8.766808954496783 12.458498301243988
