15
Energy = -10.01424108 eV
K 11.32420668081342 11.944654909027717 3.8164900162480695
K 8.782546841971657 8.545116512624684 4.581487126440253
K 4.059383796883764 8.16173519533763 6.109589551842626
K 6.719119135018548 4.433427488731137 5.717556262913372
K 13.385081899357528 8.708603582512817 6.308871327021494
K 10.660856084723427 11.716271791240247 8.165451338235338
K 11.126317464549269 4.979676562455287 6.7393757952960165
K 6.334250303490058 11.900759828612477 7.363160113390838
K 7.667849629722972 7.80337026132391 8.58939686269931
K 4.026986862803047 5.127572163546267 9.505378962903308
K 11.504535362801018 7.769748139763938 10.39663405138222
K 8.261103367255915 3.4852723954034994 9.998336958672882
K 3.6803721703320464 9.610745522984985 10.395922702090242
K 7.831874707719641 11.129068970990291 11.696658096035895
K 6.703414093409078 6.751875076297623 12.683589235680511
