15
Energy = -11.07765738 eV
K 4.183888639644884 5.1012478611550325 6.762554240505812
K 4.3912169216927674 9.74818777775855 6.099205784732634
K 8.855528115531724 9.725048289014364 7.159369612977379
K 8.129482472661506 2.7577319482935687 5.237745784708227
K 11.413942618291287 6.031938016573807 5.653118123703094
K 13.29799671735584 9.740987307961127 7.639181393397537
K 7.1702990306302645 6.980078800773155 4.139025226169576
K 2.068453161980723 11.493313393032032 9.529312434152935
K 9.225814548433773 8.901452989442003 11.602178318892577
K 6.379208985186381 12.312105210485399 10.088970904832664
K 13.630037578711425 9.887439525377184 12.145910133389707
K 8.136160489012214 5.4528195938250645 8.701598304267161
K 12.345373939492067 6.130793078758215 10.083507298847719
K 4.925337829961782 8.024059708490817 10.112934889022354
K 10.872455064410074 12.737992612056711 10.070583663397972
