15
Energy = -11.07810834 eV
K 10.470161346854042 11.697530724096378 3.198072917444387
K 8.042383258154505 7.848501046997008 2.3961485456354636
K 11.666814286546607 7.6761781494977575 4.999811385166969
K 4.24318462764638 6.915254959466787 4.637022661568478
K 7.65087152540089 10.046258261478648 6.2211285673489085
K 11.626378697559014 11.558799029666204 7.562515863139578
K 7.934699505625512 5.360550391669646 6.452356921077177
K 3.810965246396089 3.9979865828970804 8.242181588575416
K 10.428739713498807 7.465050863444487 9.332213816820358
K 4.933337605449809 8.19631925979528 8.990434441930457
K 7.939940636847977 10.798638882308271 10.803713370678466
K 7.1808251438261665 4.899680732731292 11.109505442872983
K 12.401106231640547 10.659776428225086 11.931052528458395
K 5.113837765893301 8.235716902824064 13.369279163296513
K 9.579487395228242 7.666490771469737 13.777295772554023
