15
Energy = -10.91671776 eV
K 4.722523251525369 8.287827588054178 5.540730438776024
K 7.8414135921152806 6.712477289738657 2.8387802674308746
K 11.270856135915007 6.376784506861199 5.887379459510808
K 10.431937950928852 3.661034566359686 9.336872402010151
K 8.971711038118736 12.274776118433756 9.372523000493002
K 7.424150327345208 5.58831037127962 11.976268537000168
K 12.604498656397377 10.474027442024576 7.4561503797606274
K 8.155209809881411 7.922438388206855 8.307470626649726
K 8.967095820319566 10.549685316245704 4.782205193193787
K 3.992671294542095 5.5662224021933575 9.009266143556285
K 11.606868361792714 7.82014317956434 10.884525850232114
K 4.787091030087058 9.882748222443302 10.120031654644533
K 5.535636958002837 12.7093041460491 6.665913920136007
K 7.097519650806833 4.041556014864589 6.320550308967464
K 8.212241669906792 9.754089995366346 13.122757365323118
