15
Energy = -9.30264067 eV
K 8.499131023990842 5.308890204684479 3.6158271949571312
K 8.64201438248361 9.688238625212842 3.760938260045564
K 11.713481312662534 7.369781214022155 6.132286528527432
K 11.03788815547552 12.002968706944808 6.57319157056457
K 5.051665987497947 7.472544020649878 5.3615082889912635
K 6.164849596566458 11.676305388930503 7.407693356875195
K 7.428599994028642 4.710242617424596 8.01508498263127
K 4.15679532954899 7.839378941771813 9.597319689343474
K 8.676451934779035 8.832353302818351 9.001506049072484
K 11.277617216742032 5.769290209799996 10.55009347184741
K 13.197580673386016 9.910937465473546 9.983226653165485
K 7.149559380333545 6.158532216169022 12.553595493632548
K 9.906335137383445 12.860660374403901 10.87832260561938
K 6.208465351079485 10.584215353142922 12.506555608967277
K 10.369547403195572 9.29564423770486 13.542833124912894
