15
Energy = -11.09194742 eV
K 6.8647603067639125 8.661816623064837 2.88135520055208
K 10.86393826924683 10.267276820590249 4.748647246973301
K 5.311409786057878 4.727510797343103 4.688770588210233
K 14.099870275275148 11.34041912673265 7.793638488382532
K 6.811785178549012 11.593044868573028 6.305372198290301
K 8.168672724465985 7.269217087020737 6.838462341991425
K 3.674649464942226 8.439686190505398 6.321375891687509
K 4.999539970963185 5.219866402011384 9.332092189995748
K 12.563868160645589 7.220296236919575 7.845002873647864
K 9.999373607678853 10.823062284839663 9.333585976054348
K 9.375835519838331 6.287920745527578 11.032963756378074
K 5.886745465052073 9.494482053939466 10.316059304694496
K 5.803508897879236 6.516797750788548 13.666130099918947
K 13.18924618221706 9.030253980455935 11.808666248465974
K 9.004293653476358 9.725846494740113 13.705375057809288
