15
Energy = -11.04007625 eV
K 10.393867184267673 7.167753603710992 3.116145916306248
K 7.730037380001564 10.66542683324749 4.13587031013712
K 6.51312489516721 6.523699049261227 5.848288617085953
K 10.636209645992588 7.127804571805652 7.608944789818235
K 11.951949405509975 10.793552666229964 5.57185580096591
K 9.697626851169353 3.3041642731714904 5.3748360592207325
K 9.183166970878595 13.987385500100732 7.033361228189809
K 7.669795987703629 3.7562507543307495 9.407983322308095
K 10.99748975597069 10.913761699674945 10.101246310002564
K 4.530349382878787 6.873497315675215 10.044477531386013
K 7.100887970270625 10.028842637826948 8.47404130274884
K 7.51204569446504 13.64210436164692 11.166192366210105
K 9.72772068385352 6.911793600533367 11.842996373616412
K 6.223053055606237 5.077937061349472 13.665908057794734
K 6.604756035257848 9.698106970427391 13.079932913201958
