15
Energy = -8.68344452 eV
K 7.339020613141185 5.104366189780718 7.19754326349034
K 6.7763392586180515 8.372404631804487 3.9779365268167863
K 4.513793187433676 8.191892637519635 8.052153414619626
K 1.11431196839438 2.1289547661740733 5.491083176446006
K 10.784408046651858 6.426763909083128 4.44935261952618
K 2.4722401511962664 9.716292798259014 4.630227907799225
K 3.455061774883054 4.0593854341312925 8.607889683574225
K 7.595269817052469 4.237343013955239 2.8109570855212924
K 0.42092842006072634 6.457348702567949 6.802064279793127
K 5.489839263051762 1.3972591636604859 5.557840289561608
K 5.890616334605784 12.008914219842243 6.30428978590496
K 3.662204891312581 5.4092407020539035 4.299403586229961
K 9.094563034892603 9.136588827348602 7.511403120985206
K 11.380636828270848 5.2786594721675915 8.52585101532506
K 9.991585848858536 2.055404970075737 5.762823682830503
