15
Energy = -11.07262865 eV
K 6.131308896051787 9.000809547923117 2.6082311610971822
K 10.48536077457859 7.52205784214043 3.846120067494478
K 8.631573022203533 11.33510628658278 5.511438659298662
K 14.37781723124388 6.57176595823471 6.4228291988421695
K 4.254139460971384 10.841215997459615 6.570421375331212
K 6.950390746504733 7.186749496929592 6.714783297289404
K 10.424742677878351 4.362167188332179 7.161354070020171
K 7.727849389125365 10.786713510430195 9.822433174812744
K 12.98771441802267 5.4808040347245095 10.74522372331724
K 3.8961103838134723 12.375538331543693 11.0187321859947
K 4.043512695025451 7.9062164568525874 10.060536271958597
K 11.185224804306062 8.817842726652321 8.264111260288155
K 8.176386783900666 6.047815518644374 10.776738243697766
K 6.256178300893022 9.3527155294964 13.7669175794922
K 10.774747211589892 8.715538370161886 13.013186527173701
