16
Energy = -11.85376162 eV
K 9.00757376544022 8.048643561193927 4.627156539100853
K 7.662833022624178 3.7462775846784795 4.177492541488871
K 9.983663210056573 12.314784983808387 6.1432077961214855
K 11.099060719555034 4.89460880255354 6.85262340664165
K 5.9414242564042095 10.426073926853272 7.153549484788687
K 13.310152229680153 8.888477882470141 6.463731045315263
K 6.314246955582544 5.9151740918253015 7.745634757318046
K 8.177500565560518 1.9399494139345586 8.288706944150245
K 8.183819972198625 13.01628697298485 10.183883444012526
K 9.385132150363987 5.2815138683801495 11.002721284832264
K 12.769920463918359 12.246662101622523 9.535247062529953
K 9.89809577587687 8.869819956409907 8.798579671227825
K 2.644735443124415 8.00825671642831 9.210640217512182
K 3.691730078376011 12.219530354351466 10.560670469529796
K 6.415797408905309 8.816570606596365 11.36976132861104
K 10.415205063661036 10.268260257236538 12.7872850881475
