16
Energy = -11.94222275 eV
K 6.240325367774149 9.289558930368724 3.018095014300973
K 8.248139578622046 5.753798703325107 5.211119894647716
K 10.590650278741899 8.168683226240695 2.2487580752917764
K 5.169782283229384 8.549453763174855 7.384649241487365
K 9.333890154133952 10.703848015799888 5.835114882086154
K 12.513009613444648 7.1447087748961575 6.202680103301783
K 9.227805362035278 7.950702649492286 9.130353979613126
K 5.226696691634078 12.695827250849218 6.103278996168033
K 10.706572959315775 3.649958743924715 8.578838703061182
K 7.493186745213787 12.017837554268814 9.986582128869115
K 6.324219645833441 4.599409065844724 9.309800961848365
K 3.0318839739710794 11.464878461705501 10.030427330465116
K 13.021635658618576 6.74662251439891 10.938250607337789
K 5.6738459761296545 8.331148389173626 12.027061994400741
K 9.958329527820391 9.651801105252432 13.123033908987997
K 9.159399718255509 5.201136386057997 12.79132771290595
