16
Energy = -11.88225812 eV
K 10.111075865454458 7.50548812891153 2.312312902647295
K 6.1395815342283315 9.703957998236582 3.3076626684103334
K 2.9757817483433344 7.526461400887323 5.730418995737138
K 9.829094800017701 10.073381625818497 6.03382543259551
K 7.357668093002933 5.897729942379877 5.503941052948794
K 12.170802372950194 6.288937406946224 6.272793811095829
K 5.775304035179428 10.005308872056204 7.853003968242444
K 13.047832060308474 9.540547533176651 9.352828152200429
K 9.176772173802007 11.594926337779393 10.279182991962669
K 9.04626411232309 7.000119430267093 9.515671246516543
K 4.9104451097252975 5.507918948821186 9.187194175757568
K 2.0772248308968 8.964656988745586 10.10505610609279
K 12.92267078584113 5.438953682776028 11.061574896832175
K 12.767595548140948 12.499063747188048 12.639169206267612
K 6.031930788799588 8.832629795838576 12.402559781997825
K 10.61491852345223 8.57488054263699 13.397766993161627
