16
Energy = -10.85874555 eV
K 5.41311722240712 10.457896259222702 5.427236682116546
K 9.673036041090555 7.874806336873243 5.287047404061128
K 13.011119243825513 10.617203897860612 6.168171680257773
K 9.354537332597019 11.905290434577323 3.4861767988707233
K 5.4584299700241665 5.736375697098953 5.701353481315251
K 2.429565710288543 8.02188116636277 8.035541074373768
K 13.551001723142988 6.081174752364789 6.835753864268176
K 8.927156731614932 11.865852462566355 7.986935687087008
K 9.650021298176503 4.402972907656423 8.009444040394914
K 6.967625347451018 7.928842323640839 8.958384911541144
K 11.53570659149152 8.647751045204727 9.981826143361772
K 4.4996191648811354 11.733980295567054 9.730026954487892
K 12.721470777523376 4.585030726575381 11.17866317227201
K 7.96803263563159 10.444981805406831 12.26053268145619
K 4.230630522353506 7.8599076088467275 12.378574376896868
K 8.61894493544605 5.846067528121554 12.584346295184663
