16
Energy = -11.93972751 eV
K 3.8225790602291694 6.027954218441373 1.9310763213635898
K 1.6021999863269072 5.988220851722649 8.55573366890025
K 10.406804033939093 8.20711818461468 4.73126728711314
K 1.5861929277638325 8.206008929002394 4.7654143357595045
K 5.993507155678551 9.616439253660154 3.945158163046853
K 5.99500671169778 2.4133849386596644 3.900111893318356
K 8.167577402380305 2.454144203487754 8.007652091451439
K 10.404073465030152 3.80935812139197 4.698132570383537
K 3.851679321121869 9.52151784153733 8.06915672463761
K 6.018046723563381 5.9786485841862325 10.159052699809413
K 1.5837321323685472 3.811781511813869 4.7412235655028745
K 8.173283628300283 9.51908318678722 8.052211874562609
K 10.423868506553337 5.984578675222957 8.52026351979395
K 8.143494125538787 6.02526580236806 1.914488594539049
K 3.8490654678625176 2.456208200136837 8.029635972185474
K 6.000454358167476 6.001852503489145 6.000985724153914
