16
Energy = -11.90562063 eV
K 8.233575282565663 5.325806858349332 3.885523797230795
K 11.342910305544343 8.777359053097388 2.8257280093591617
K 5.331512365365528 7.814715405235157 6.768725210964798
K 4.6307315452648306 3.498110372586748 6.222374073011147
K 13.821155705994627 9.6916712760843 6.562012088130986
K 9.537301666133331 8.834393922472245 6.780270366698581
K 12.338814461582905 5.329136251265164 5.625677877898931
K 8.521348173561421 4.565651352862738 8.245617359711705
K 2.1114822291427924 10.345323972534635 8.346146688540141
K 11.164816879365048 11.49968920154771 9.890877168324998
K 6.451047581422724 11.67407438185823 8.737802435310067
K 12.334633125014873 6.8811727824059545 9.754628922549562
K 8.057883696509132 8.100185438066541 11.041101903387265
K 4.1985145149773135 5.698298392308666 10.305703338656205
K 4.175225570849006 9.777502199072275 12.246033111982577
K 7.883372822862296 12.321235066409074 12.896103574399387
