17
Energy = -12.70535263 eV
K 8.268301261032985 8.02973066604465 3.940123973496772
K 12.070611186973531 10.00205490171798 5.809795199487305
K 11.551404786216782 5.2179747452643435 5.078393207635991
K 7.557993290929797 11.692818915509482 6.526037526616137
K 11.178605288676575 14.087580217401735 7.518173654760038
K 7.2244033634345035 4.012660650701496 6.040200338107721
K 4.69316601237343 7.937206359984581 6.9957106108495255
K 8.976613656413667 7.590638307143828 8.192397504607806
K 10.421223097386854 3.2284995423557343 9.176474322394297
K 3.9001236882337014 11.847238839230382 9.01317904554718
K 13.334887586237802 6.798939278136713 8.974479076464059
K 6.0816756035564845 4.885277379349709 10.433712527376235
K 11.129188403405118 10.752412332759267 10.45089190060116
K 2.676618799659104 7.858861116857549 10.9850845170712
K 7.776956754856812 13.714523324425373 10.602927632101146
K 6.74895609421731 9.54021206203241 11.705717075135862
K 10.081445855690571 6.475546090379494 12.228876617042138
