17
Energy = -12.76762284 eV
K 2.90979168942942 6.871229042688072 7.551539972459849
K 5.910742046148884 4.729257188793246 4.71364465065641
K 9.32571960023776 3.0100692480337585 2.4737792849033853
K 4.842275539017551 2.1721161352438063 1.3360577461220375
K 6.803211395780986 6.303334302847955 0.6280781566692304
K 6.762266291103618 0.3449738617816741 5.115047165089116
K 9.550386119479551 7.266558418335927 4.195619991948973
K 2.5397081550519975 6.148815302032504 1.5648594291884401
K 5.378448347224489 9.077629747466574 4.28373241751558
K 0.9263784010965913 9.143534254357991 4.359666413919172
K 0.8823929161479385 3.196633972711967 8.852632998148835
K 5.331805729975122 3.0943507351157162 8.758881101649168
K 2.5067219071038496 1.3025384912395543 5.220559415375047
K 9.528267632821555 3.4879571565699545 7.031246387045864
K 0.40362992550007853 2.2987646783869216 1.4835888876814656
K 7.2878453070537725 7.2455908390304 8.100956094462997
K 9.550386119479553 4.922559831037028 4.94602141990668
