17
Energy = -12.74057755 eV
K 8.115688474660965 6.913798435505699 3.1215692071899617
K 8.326768457593065 6.934411993263715 7.432214479178501
K 4.660661504118813 6.9214325532052285 9.788850263279521
K 0.9945545506445586 6.934411993263715 7.432214479178501
K 1.205634533576661 6.913798435505699 3.1215692071899617
K 4.660661504118813 8.288017950222873 0.843163127112756
K 8.115688474660965 2.4075245727319285 3.1215692071899617
K 8.326768457593065 2.386911014973912 7.432214479178501
K 4.660661504118813 2.3998904550323985 9.788850263279521
K 0.9945545506445586 2.386911014973912 7.432214479178501
K 1.205634533576661 2.4075245727319285 3.1215692071899617
K 4.660661504118813 1.033305058014754 0.843163127112756
K 4.660661504118813 0.37257041455156487 5.397683179122904
K 4.660661504118813 8.948752593686063 5.397683179122904
K 4.660661504118813 4.660661504118813 5.934939142481315
K 6.913638247667282 4.660661504118813 9.78885026327952
K 2.4076847605703438 4.660661504118813 9.78885026327952
