17
Energy = -12.87902395 eV
K 8.636020617198987 2.631229721620395 7.514674654093041
K 2.56958941289581 8.951257590732263 3.753686716755006
K 7.085669313783992 6.267868841680381 0.3205214553441873
K 8.63596737848519 7.088888069929811 7.513770721136944
K 4.86306256359185 2.3164212310805286 0.4194089032281614
K 1.0901577486985063 7.088888069929811 7.513770721136944
K 4.86306256359185 4.812044301708416 9.183664595382151
K 7.185135103564354 0.7236839709177777 3.738666420004153
K 1.0901045099847102 2.631229721620395 7.514674654093041
K 4.86306256359185 0.41086331547500166 7.817769482710002
K 4.86306256359185 4.830993127196894 4.527279419987837
K 4.86306256359185 9.389031156175761 7.659102983897345
K 2.6404558133997043 6.267868841680381 0.3205214553441873
K 2.5409900236193455 0.7236839709177777 3.738666420004153
K 0.2903981271836975 4.79342702983185 3.6910994094160174
K 9.435727000000004 4.79342702983185 3.6910994094160174
K 7.156535714287888 8.951257590732263 3.753686716755006
