17
Energy = -12.82984995 eV
K 12.176426641902934 8.232706928323418 3.4697294994935133
K 8.286952981832174 10.813279223214879 3.234435910634178
K 8.306324391075842 6.580729578221204 4.823710408989871
K 7.617130952786985 13.866902523875407 6.638484619854281
K 4.6143375904275 5.429137209803511 7.412096350121618
K 12.166750266589247 6.238343307924963 7.6658623679348
K 10.6148823669105 10.543976939736286 6.979725710922443
K 5.381230461067562 9.989216940790214 6.562684476488671
K 8.648006672322275 3.279695445685084 8.103900401895022
K 8.108214735107524 7.598839279274223 9.202426986468312
K 4.004559463352392 8.417565063255566 10.789052361218834
K 6.014349474278859 4.379930882128637 11.684719964088274
K 10.955091206043502 13.9363345547868 9.881187331424462
K 7.217722931564435 11.752553878461757 10.65151121814137
K 10.64410505957156 5.081138193174629 11.856558944019127
K 11.503990776406294 9.57323476876204 11.362875250829514
K 7.660654081214033 8.207145335034996 13.601768249928895
