17
Energy = -12.69687665 eV
K 2.151035678190195 8.382967489139595 7.644608814620834
K 4.354088650675553 9.863129 4.002815902857875
K 0.7319595433178195 4.354088650675553 10.921206820392637
K 0.3123573856442199 4.354088650675553 7.340789395126968
K 4.354088650675553 6.873086184009361 0.6241463245461683
K 6.557141623160907 0.32520981221150713 7.644608814620834
K 4.354088650675553 4.354088650675553 5.296128021824436
K 4.354088650675553 9.863129 4.002815902857875
K 8.395819915706879 4.354088650675553 7.340789395126968
K 6.557141623160907 8.382967489139595 7.644608814620834
K 7.9762177580332825 4.354088650675553 10.921206820392637
K 2.151035678190195 0.32520981221150713 7.644608814620834
K 4.354088650675553 1.8350911173417435 0.6241463245461683
K 7.712644283181881 6.897873715213893 3.60079665492392
K 7.712644283181881 1.810303586137222 3.60079665492392
K 0.995533018169222 6.897873715213889 3.60079665492392
K 0.995533018169222 1.810303586137222 3.60079665492392
