17
Energy = -12.55408012 eV
K 8.790116346077264 2.571787552786534 7.839482272306393
K 2.5706967366277595 8.684644993275233 4.088577921982604
K 8.189543292625824 6.693315319177246 0.3278459641025348
K 8.924630232250818 7.1253961957329865 7.8968919653420055
K 4.822557364233268 0.9088759607038959 0.32910155163000404
K 0.720484496215718 7.1253961957329865 7.8968919653420055
K 4.822557364233268 4.828742001441593 6.740036398411108
K 7.087633183539613 1.0332215167768557 4.077983759372478
K 0.8549983823892663 2.571787552786534 7.839482272306393
K 4.822557364233268 0.232440946208942 7.896229556281825
K 4.822557364233268 4.823061834441736 2.5428721864771684
K 4.822557364233268 9.327490353097438 7.84021451652999
K 1.455571435840717 6.693315319177246 0.3278459641025348
K 2.557481544926923 1.0332215167768557 4.077983759372478
K 0.25294822846653525 4.8230661914656 4.086728050567951
K 9.3921665 4.8230661914656 4.086728050567951
K 7.074417991838774 8.684644993275233 4.088577921982604
