17
Energy = -11.36922579 eV
K 7.098350604746468 5.4138184999677765 4.266881888567381
K 10.519599078026573 8.326805279040476 4.332162929724887
K 5.6441610429065925 9.463411923937636 5.605892276779678
K 13.494836247123065 11.571312463829129 5.547488274273495
K 10.600978343578575 4.688461478648956 6.99761344086587
K 9.319012237572135 12.06108481147176 6.263240064896165
K 3.046889510466993 6.002649521406245 5.760037233846245
K 8.563617380564182 8.164078752765077 8.485358732132939
K 13.72888222010542 7.667925769378165 7.568297401335249
K 6.170968741250353 4.469069601477594 8.562760402149722
K 6.67547256929653 11.774567887538801 9.919916460965094
K 3.8618934128483633 8.342829001087162 9.536863968249062
K 11.806051407660675 11.152200930639532 9.77539738921418
K 11.481874151839206 6.86643479423863 11.263475957206685
K 6.960635383606413 6.551949277818821 12.344976125740954
K 4.854055472332393 10.304532953019637 13.52492494245283
K 9.236138685211372 10.242283542870068 13.308129000735027
