18
Energy = -13.71168203 eV
K 11.45231625143582 11.14472738008964 4.360462867199106
K 6.325896633301145 5.856862521037585 4.632204578015267
K 10.680200965803357 6.871733874816659 5.180800525611217
K 7.203826101568208 10.274681120504738 5.185975997061594
K 14.128897077416278 8.681200260461688 7.250464186112083
K 8.917132206846576 3.416976459079148 7.431848579976964
K 8.527967089801672 14.055124323913047 7.178502529921324
K 3.518357897629996 8.534636433837242 7.261377200194739
K 10.418134078235648 10.529042673018637 8.483733229773822
K 7.440876021424963 7.37983028107136 8.539682931816644
K 4.385198441359814 7.7977415523028775 11.69085391088736
K 4.441147291542578 4.2393061125268 8.553419262386024
K 12.88798435567266 9.98911422214854 11.828421539398567
K 11.53222520481559 6.208473380776459 9.836798628778155
K 5.849663129647046 11.540879408038718 9.742275315999256
K 7.679579615492309 4.596708561047911 11.76109774893549
K 9.351251745367838 13.224534186673678 11.78585640501339
K 8.593733961175543 8.99281531719232 12.630612631455419
