18
Energy = -13.80313297 eV
K 5.616979551885752 6.609889112595819 4.357119064487329
K 9.99382441757921 6.2751917378156605 3.231639444395656
K 12.215677688170345 9.839258759544954 4.972933436249004
K 7.885449538782984 10.35812188040461 3.467995506596665
K 4.955338042040314 10.54412747800606 7.064343435952786
K 8.841041279142969 8.118942840839297 7.268180213674762
K 9.244322248672786 12.496709200596522 7.343132504511282
K 8.535578887657362 3.6363367049336883 6.693111090566301
K 12.715066921845223 5.724540277535698 7.067801830821239
K 5.271488945027206 6.186435484250832 8.894345514989563
K 6.821709307952931 2.326011522303079 10.71694105025437
K 10.655450489181366 13.366327234265393 11.465708988851038
K 10.017665218009407 5.447976987253022 10.71762328224933
K 6.078240992482861 13.55307264904555 10.326978275944313
K 12.44271025656705 9.52217522954549 9.705029993886383
K 3.807770192921307 9.685581469142848 11.41328738621006
K 8.194392964521441 9.649664324917802 11.414148883645648
K 6.0675435179789226 6.019887567422998 13.239930557133702
