18
Energy = -13.90171577 eV
K 9.655861875383332 5.572597289087773 2.6839631557252894
K 5.85946299963916 2.807823464271112 2.264828953636151
K 5.634411520763805 10.976087841030036 7.910697175383703
K 2.571029264202287 9.045927370255006 5.111244490641339
K 3.375104915858312 2.8808375572749587 8.969234861776783
K 7.940820333971993 7.488223998650799 9.499042221927338
K 5.760760454651708 5.385404343058493 5.878802646846595
K 5.7813071880142335 0.3603101891661467 6.12582026872791
K 8.042025880995162 2.9762304007645213 9.05823545937681
K 1.8659461195388296 1.7109231903950386 4.712141668892842
K 8.87919671251104 9.162959430006739 5.293716890492973
K 9.718655988081801 1.8173295121831379 4.899211314226688
K 1.9899383871524268 5.429552594494241 2.5114750131754726
K 3.397895235229643 7.382424362398489 9.357718676586297
K 11.101313373323709 5.532976117589516 6.966501323149095
K 5.795282722951304 7.709784775657222 1.9615005941922465
K 0.36980477902352543 5.389533194830347 6.743431123629924
K 5.735446586959631 11.845338707138179 3.526698499864291
