18
Energy = -13.78567652 eV
K 10.05353927567877 7.096597396158712 3.2517282019186964
K 6.370102503183622 9.363028417671515 4.110048596248048
K 6.980403899006026 4.7489700656699405 5.852622843732712
K 10.79038932337153 10.688488759150458 5.854103976942036
K 3.466344107110508 7.286511724718885 7.149015787973948
K 10.948449392892915 2.9699603124667995 5.002223335674333
K 2.7065480329465235 11.440151697134992 5.909653169152301
K 13.132026355633933 6.786330941507352 6.305916907786606
K 6.747952429303637 12.907635965532009 6.78552404452127
K 9.175252662690305 12.236155326211406 10.531840955140106
K 10.24757095810872 4.3900800426082265 9.096790913280694
K 12.362301405630733 8.901852004912705 10.080798728299238
K 8.154098389285553 8.41613954924005 8.289841813389216
K 4.4106515933166035 10.507220791161542 10.043999796873488
K 5.939798198917672 5.852913684700075 10.85895544594614
K 11.323750407357437 10.48448391550868 14.024880177136705
K 9.937196171057034 6.247469691289913 13.086507795741396
K 6.955041173674159 9.377425993522897 13.466963789409231
