18
Energy = -11.03875859 eV
K 8.346652213446767 5.161580274027532 3.6248700454324982
K 7.541499262978273 9.593065811352403 3.372586241603379
K 5.010516852552808 7.11219280499463 6.374930256864274
K 11.75001936451913 8.666108955085509 4.3575280042248465
K 12.468349441171618 4.71125019015743 6.6079758137571325
K 4.889183963516591 11.578928865313964 6.175749143342975
K 7.8658142358795615 3.2097183849503774 7.758350051865381
K 9.486540400051451 12.003974472787164 6.606310987662888
K 9.161892715675561 7.096659016514848 7.177344000455806
K 12.460001604175444 8.554515975761909 9.348196848996446
K 6.425690027315314 13.624679234295334 9.871594387640489
K 7.635436339361852 9.69218808312833 9.60657367772296
K 10.835491560780929 4.439487837330516 10.800269422731667
K 3.509849662342822 9.654017634501816 9.929386028298781
K 10.432728210601802 12.060537057863911 11.539642611914713
K 6.654108444798642 5.941633218821468 11.283303676092599
K 10.342345874814278 7.981148008583985 13.234472922761855
K 6.370035932302199 10.104470280814066 13.517071984916662
