18
Energy = -13.86762973 eV
K 10.002770112462283 7.961918010555268 3.404434106801347
K 5.9047066327674 8.771585270458445 4.371091140155667
K 8.939886882522408 11.826255612886316 5.71692309140204
K 7.5269707820001654 4.525110179283646 5.465828757472746
K 12.224622386214632 5.443291666865029 6.033894895388401
K 12.89657723414269 9.784489644153043 6.155451534428284
K 3.541215934330732 6.6089191647616214 7.173401954084079
K 4.816345212753147 10.905074899285857 8.1505823397464
K 11.321660774507613 12.063989548259407 9.548167113964269
K 8.40431760266334 8.035853099464719 8.088564834547618
K 7.647779593178011 14.214190886940987 9.299451947654251
K 10.015637171018962 3.9944175204150185 9.377102473812675
K 5.765877754717491 4.0892326134337145 9.78562542765858
K 12.4928877469941 7.687803171754131 10.064748050638306
K 4.143402230922111 7.861129757789808 11.352908517725917
K 7.00058264346989 11.1046890605742 12.138210225846546
K 11.008935508320546 10.307084895956262 13.409816646132453
K 8.340636186853295 6.809777387000908 12.458609332378789
