19
Energy = -14.82238886 eV
K 5.5941810589853995 0.3473164494768655 8.348651582559565
K 5.338515645600884 8.170901165864917 0.8521031862704034
K 4.13914405663891 10.544088538873723 4.5564629649847035
K 0.8978602979733873 7.991656133414988 2.246738938110182
K 8.491294324603313 0.7327976065921814 4.5564629649847035
K 0.8978602979733873 7.991656133414988 6.866186991859224
K 4.2112260947691125 6.145487427946041 4.5564629649847035
K 0.8786893842996367 0.38386377195149135 6.993922030316044
K 2.960930887758496 4.146759779857365 8.27411126368258
K 7.422873896194719 4.257969256770904 2.02131465492949
K 5.338515645600884 8.170901165864917 8.260822743699004
K 0.8786893842996367 0.38386377195149135 2.1190038996535074
K 5.5941810589853995 0.3473164494768655 0.7642743474098466
K 2.960930887758496 4.146759779857365 0.8388146662868291
K 8.183536051186488 8.084813337772914 4.5564629649847035
K 0.15793444899961545 4.150537533504677 4.5564629649847035
K 11.009029519030205 4.522489063189587 4.5564629649847035
K 7.422873896194719 4.257969256770904 7.091611275039919
K 4.194530055499871 1.7956491545132836 4.5564629649847035
