19
Energy = -14.67361845 eV
K 9.718921854824785 10.395112202673415 3.244568339339913
K 5.470483011039626 9.548833005163086 4.390339303109618
K 8.470463601947419 5.970355480229284 4.06759057115391
K 7.567264871742236 13.029306356333882 6.169820344820804
K 12.513581111249378 7.496134435794613 5.625067187714747
K 12.000981562255195 11.82562223251101 7.050635998228453
K 7.417484507857764 2.2137216871734458 6.30241612947668
K 8.726132370491946 8.928693270855451 7.2844512340520735
K 5.358493461760066 6.123305589534445 7.398422869796576
K 10.142182991678553 4.73369828224838 8.355312094203528
K 7.963289663431853 7.3196552618490855 11.348921454340084
K 12.217347540870229 8.171773520988094 10.114905929333412
K 13.382297375958903 12.054798511876628 11.326657861076216
K 3.617916602380948 7.018896991038015 11.35489059406636
K 4.845628552892182 10.480810050160283 8.869836295784998
K 6.489655456219704 3.321079178914923 10.606512779081406
K 8.934562876686076 11.997399783376634 10.4004732149193
K 10.405546195977479 9.788901689210702 13.9239622298512
K 5.806100959954823 10.63023703928808 13.213550138869715
