19
Energy = -14.69626536 eV
K 3.836001710759689 7.250323112826897 9.142014882787423
K 9.232768646315607 10.92480774883867 5.139371575863633
K 7.836137784077658 6.760370079445619 7.2661186272489235
K 8.398718371806396 9.761690680060298 9.64322444338495
K 5.036369403757984 4.015507727954009 5.87423856374111
K 6.263942149255281 3.609277194449284 10.318065721067132
K 4.493869389075536 11.388618226033547 11.057502783505425
K 6.248736313140375 7.837218806248268 3.3496946841250024
K 4.962657006609544 10.717213919389602 6.576848280950072
K 11.713031328536317 9.14197178065442 12.484956968589692
K 13.550746592163737 10.068556197996182 4.862015156513086
K 12.312291585200397 7.3999838573566645 8.169886731136884
K 12.014358717048703 12.00511378452066 8.820442612420313
K 9.979671804896977 3.1966699636740943 7.2023022253983235
K 10.156059370733132 5.13315675420418 11.388074369698723
K 8.539873747992353 12.36594434475749 12.978884247909424
K 10.667736072508323 6.6416502296936955 3.903104704480128
K 7.692955825791966 13.895818972265845 8.542578186797487
K 6.783072171034577 7.6051046103349655 12.999673225086202
