19
Energy = -13.65259417 eV
K 7.973498322878759 4.038999696269448 7.875057900195358
K 7.973498322878759 4.038999696269448 0.2029414923435389
K 4.03933009256899 4.038999696269448 1.9745486711619693
K 2.8076674313847563 0.24804531440915206 4.038999696269448
K 5.25382104154751 0.29858671793964214 0.20333068508922678
K 5.25382104154751 7.779412674599256 7.874668707449668
K 4.039480026379314 4.038999696269448 10.362896400000002
K 7.26536564567373 6.381975745617047 4.038999696269448
K 4.03933009256899 4.038999696269448 6.103450721376927
K 5.25382104154751 0.29858671793964214 7.874668707449668
K 7.26536564567373 1.6960236469218486 4.038999696269448
K 0.05169995237224614 4.038999696269448 4.038999696269448
K 2.8076674313847563 7.829954078129745 4.038999696269448
K 0.8558317681966433 1.7283566812934796 7.874753897110361
K 0.8558317681966433 6.3496427112454175 7.874753897110361
K 5.25382104154751 7.779412674599256 0.20333068508922678
K 4.039480026379314 4.038999696269448 10.362896400000002
K 0.8558317681966433 6.3496427112454175 0.20324549542853718
K 0.8558317681966433 1.7283566812934796 0.20324549542853718
