19
Energy = -11.96666501 eV
K 8.497551262563846 9.372025737908233 2.9438180699015435
K 4.797093205669029 7.411824415586877 4.720608637963604
K 5.381518599223305 11.975758453880404 5.221195572182606
K 8.907743648089646 5.278076652370112 5.072382588038908
K 9.793046770164128 12.661868306240445 5.826346246505996
K 12.023470067501254 8.644948129627293 5.747400755796987
K 7.915252100896646 9.021674238888144 7.282206622773046
K 13.117144310281828 4.41488709312648 6.302021876697681
K 3.704947871284236 9.42650577967816 8.663452838405302
K 14.181713059317111 7.644268461857554 9.506203007644332
K 10.251908887864955 5.797639862771562 9.293906937171066
K 5.839276901320658 5.305728206239457 8.573326441140388
K 11.189164736701658 10.866077960009585 9.680688938428665
K 3.429743554034921 6.476943804645625 12.059231440134985
K 6.970644223512654 12.826240271465066 9.393970382036674
K 7.686344885412748 4.797154229645691 12.689852952629968
K 7.027447889438532 8.890681343013094 11.605355465650495
K 11.108617895559412 7.988293811833401 13.003342538276451
K 9.143378845861097 12.16541195591078 13.380697403319742
