19
Energy = -14.35695133 eV
K 4.01568213008245 1.3776778774062235 12.312080891829762
K 1.732513836713259 5.3417987967626726 12.308800888827442
K 6.298850423451638 5.3417987967626726 12.308800888827442
K 4.01568213008245 6.766399118277087 2.6084201176679014
K 1.6049965701825744 2.6175475535101667 2.627352627270724
K 6.426367689982325 2.6175475535101667 2.627352627270724
K 4.01568213008245 12.084485275097938 2.6260744700031053
K 12.797580051562663 6.675234585043324 2.622013064219133
K 8.597599948437336 6.675234585043324 2.622013064219133
K 4.01568213008245 3.9853705432558058 6.354839874293562
K 6.373501295658148 0.07270625146398918 6.391722103479814
K 1.6578629645067509 0.07270625146398918 6.391722103479814
K 8.596062395111925 3.9675210622390646 6.398520939975151
K 12.799117604888071 3.9675210622390646 6.398520939975151
K 6.288492493962102 8.009917910874874 6.387681952076167
K 1.7428717662027946 8.009917910874874 6.387681952076167
K 4.01568213008245 9.660433055107308 6.344096572800331
K 10.69759 7.890886602330098 6.3358557487464
K 10.69759 7.890886602330098 6.3358557487464
