19
Energy = -11.14547996 eV
K 10.640386225646708 8.680138100670927 3.2886137713796537
K 6.0393879614939205 9.061023680547116 2.7828605659831576
K 8.236048842003996 11.95581394302699 5.343649196930728
K 11.71215435259422 5.381479502166175 6.3932845406374605
K 7.911663904409959 7.4509632055687325 6.293891084544003
K 11.792002211957586 9.711196107505186 7.473083000987369
K 4.145379280450209 5.635996723175378 5.497650850554011
K 4.178816474375107 9.996124878844618 6.7536005892754005
K 7.608478041475413 3.38212951173311 7.863333363032681
K 10.282600427746367 13.687066633775299 9.111246925589427
K 11.58412240878761 2.6590048635178514 9.909262770358099
K 7.671455013314625 10.352888953839958 9.448492680022603
K 9.503522444816323 6.312897560218205 10.53158372569844
K 5.022600013216381 6.6721063965027785 9.817096737132921
K 11.264140606491154 10.140814355096316 11.996461235076783
K 13.80078018674474 6.741717853460087 10.086858243071852
K 3.8722915381115857 10.818310386871975 11.29790802417033
K 7.728148773159686 12.978687579725602 12.83314070039458
K 7.181457615705593 8.557076086254106 13.453418317661697
