19
Energy = -14.86744024 eV
K 5.492485684614704 4.27783673087195 5.81500401009528
K 2.176898476978375 2.201053541989063 8.046715881541878
K 8.81750826471677 6.177648984802363 3.1515430742774746
K 4.258001367374155 6.1809788233756775 1.7546806570426294
K 1.31619690957887 6.126560189875307 5.779908681964372
K 6.554815917589891 9.901316649466764 9.726878140165859
K 3.9498814999636873 6.107143890956225 9.814692046505414
K 6.763253407009446 9.961726138911786 2.0339443457937634
K 6.563147923776028 2.217370097941119 9.558942990933302
K 12.269181670923517 6.151462793586238 5.832548825509629
K 6.865371625247477 2.300787143124762 2.052250905579844
K 9.534235847633662 2.4216920724473536 5.834044151887912
K 2.4053100530915983 2.346718430090933 3.349686093102638
K 2.102938216800129 9.9065540020305 3.4358063452527383
K 8.751897774348794 6.1406344687850805 8.581855716830917
K 9.572995447364226 9.81196563634851 5.87951293720079
K 5.442951817258845 8.407930343439064 5.826146347604011
K 5.464807683138146 10.753462021202582 5.776603768184156
K 2.05477767981753 9.916800069325525 8.105892347753725
