19
Energy = -12.53267408 eV
K 7.731513458780872 5.824370138176092 3.8264893390702825
K 8.693412219420628 10.040355556479254 3.577513171538139
K 9.766472441189855 3.8315418638329715 6.974883581185164
K 11.20691796660958 11.685977257276688 6.774004836051781
K 8.520534826292979 8.114901299036045 8.439075232070671
K 11.811089253015407 7.411577454391724 5.211773764599699
K 4.692377181385829 8.584446907288502 5.038761810839285
K 5.401727105246246 5.001135975927173 7.811856490232042
K 6.649423682360212 12.134780309467589 6.834301395221711
K 14.631537267488245 9.240157998572059 8.017264831470227
K 4.621950949611625 13.433445751483829 10.480662115067616
K 4.061896091502993 9.261405638261438 9.262874194025295
K 9.162757221768539 13.732221332476522 10.067871791700208
K 5.499414069823119 6.418550225966275 12.184553555279
K 11.727947646590428 10.339013313134906 11.11635230485945
K 12.375217660799509 5.960116046409644 9.921815193206411
K 7.278663068806808 10.479539166105234 12.29959630976292
K 8.5342214616405 3.6070756218936664 11.015401209277284
K 9.800021394466752 7.066483110619744 13.312043841342625
