19
Energy = -14.62725058 eV
K 8.906032716800611 5.688168788106525 2.988966565371006
K 9.80179616952438 9.146713748110546 5.645053195822995
K 13.132683776544626 7.160218404814154 4.169930650960519
K 6.107074234223477 9.216991069615245 3.376410710810034
K 8.137474686491595 13.15223650813163 5.359369582449273
K 6.153908073077268 5.783615446214012 6.415870282363465
K 10.571465264810197 4.694293248064395 7.0105723767800106
K 13.171434498812413 8.329335716738234 8.648630552461823
K 5.918102580323518 10.180028792573014 7.614029639114868
K 2.963766448180628 11.350784944040456 10.273699485936648
K 10.315825407483956 11.978876281355198 9.194233731743276
K 4.50419263462694 7.0054598816957725 10.610773591972814
K 8.849463409377856 7.646599667599675 9.653294548130232
K 7.411224601418311 3.5981203261123915 10.179370104881878
K 6.521104677760748 14.190841485973174 9.447033279467128
K 11.76329481111285 5.026434543812677 11.468416215704696
K 7.04493883374381 10.6826612852701 12.15499012199244
K 11.43121097872639 9.342370594104043 12.68463099155385
K 7.853870510192405 6.385113580900744 13.663588685715183
