20
Energy = -15.61828347 eV
K 5.394534576580838 8.40192006548741 3.16041477804294
K 8.998118587897505 11.094387590167027 3.543264599963829
K 9.68489375849306 6.309162541400332 3.389609309204243
K 3.386474880500778 7.5393274393317995 7.1592440824591135
K 12.222730551245757 8.98297026150431 6.093195897425793
K 5.204609655757832 11.844006572565231 6.878855694298788
K 6.571531152772372 4.168145230206777 6.2069284929649005
K 7.688718286193777 8.293333499694286 6.683217636004324
K 9.736275491927554 12.614481313666404 7.716771934913585
K 10.786381227464771 5.0387727712334325 7.892587445474959
K 14.014079272981052 11.94458415910571 8.81609497019282
K 13.385967340360128 7.849913270278362 10.43312503307912
K 8.287866772309348 1.9848920483309975 9.959082693096574
K 9.153386136873545 8.953038178992717 10.143875514569668
K 3.7965972157826933 9.785856721102189 10.907081002216211
K 6.841178042069367 12.831196403340389 11.164180936862325
K 11.171892171451928 11.734774316271281 12.40604123094918
K 5.931707866972113 5.763415946892812 10.582572873848173
K 10.0753519052882 5.3763130765509946 12.47798741259279
K 7.153663191395029 8.9754666781944 13.87182654615768
