20
Energy = -15.72747855
K 10.182962162161626 5.969076069985679 10.740135876913099
K 9.599451476051458 2.2633909712760203 4.058885872833074
K 3.378231872454054 2.4279560085497174 8.463674981231764
K 1.6103168771099896 6.165437245747431 6.263572733450016
K 8.263173073700576 2.4259566579959397 8.500023856886822
K 3.5390661441695714 6.24552167119723 1.9763275441892711
K 3.28535208648117 9.67100054702216 8.670324982786612
K 5.815179362817466 6.1145923456229045 9.593441578013964
K 2.1121350482047885 2.269042423927611 4.002849023758176
K 5.8470063569880635 4.361595770928484 5.383282423764193
K 8.207274807347662 6.24196222718486 2.008452554845513
K 8.362025913158538 9.66770956411094 8.706485156388862
K 5.843533353164677 10.120360299974099 5.334230766573867
K 5.875565538320171 2.281152894314306 1.3577289065093001
K 10.069974087470364 6.161005005199207 6.325356469693281
K 1.4323281506183498 5.975048215427052 10.67447266863948
K 9.711650552035739 10.055474400354312 4.0903749036746
K 2.004628223429678 10.058496013728297 4.036165910473465
K 5.878048896286006 10.120360299974099 1.2845224260689587
K 5.847150762443594 8.505865637451828 5.394746107719861
