20
Energy = -15.63677728 eV
K 7.1371533096558215 10.006175903411561 2.046497162597788
K 7.894288167862749 6.692993094708733 4.912634345322377
K 11.104220045750797 9.908995586330315 4.195229308243518
K 11.817949957382636 5.281503977141471 3.651521096703418
K 7.629458543572954 12.049861704430212 6.023711608359044
K 4.234858697646017 8.912939850444811 5.676073320763418
K 5.282750235934038 4.951118817127136 8.246829838495364
K 11.67300327144209 11.653342436470641 8.372048465205825
K 9.589245321410187 3.4561880988987586 7.531046754237449
K 1.523799436931141 7.473242588696625 8.928104854931044
K 12.210235285444828 7.1362999452893785 7.59408174817979
K 12.750856617932062 3.857261366114291 10.699616357162936
K 8.160691232798817 8.592549636160996 8.851223703048454
K 11.498537142766917 12.755155687752556 12.777481366770415
K 8.120569201985504 13.638446402742094 10.168994224434101
K 4.493943769447523 10.996155363139174 9.665674920441548
K 11.854272724626638 8.357975350696343 11.818103862458106
K 4.575539641334787 7.099269376001298 12.108336332570975
K 8.540045230672048 5.101001918032838 11.6336595577237
K 7.8427775702057465 10.013718301212982 13.033326577154005
