20
Energy = -12.23729481 eV
K 9.904674894872421 9.279752511521101 4.540396497843916
K 12.182462007095243 5.7032919230778365 5.774039485160541
K 7.770160413192318 5.526193115143229 5.8499294775305515
K 7.908537047922017 13.052006572020588 3.633853277896979
K 5.491631622496953 9.131919047538101 4.719531689845331
K 13.71383076428623 9.496344772051657 7.0115462005603195
K 6.483655340799942 12.242454752089408 7.663905231117014
K 10.831531329977501 12.775501735372234 7.104300592279832
K 3.4655264502940395 5.116904275118077 6.279696775661961
K 8.868665937044678 8.645333514413279 8.857910315813198
K 4.38776075572457 8.44284576389894 8.919251334991753
K 13.785265541850473 6.139486037865142 9.870691830252776
K 5.398582586564395 11.546454184878158 11.891270342394304
K 10.357426399420548 3.5027451335547672 8.958483893531648
K 6.1946138123713155 4.5276360308744845 9.863827663553263
K 8.94576073339569 10.326181104581122 14.235167706403422
K 12.22730677787624 10.182901343086346 11.143753059169894
K 10.007129107595267 6.364309598266242 12.357595487705204
K 9.170691746362296 13.416088397714077 11.099995699719251
K 5.778093751271687 7.454957207349354 13.098160458982228
