20
Energy = -15.6276018 eV
K 9.889833109794086 8.969053128886522 3.2767135155494684
K 6.033674008386814 6.297073445164314 3.5278208644906504
K 10.153352716747998 4.605810735081125 4.735612630753371
K 5.750986807672442 10.77890169747612 4.984055702300217
K 9.790110299695174 11.860932685425576 6.558083599986719
K 12.538799672813965 7.859597575990032 6.595890864629019
K 7.757194328672031 7.613645634960379 6.9205990329272415
K 6.265046109269845 14.454478991954678 7.423273110040734
K 3.355268082128562 7.280020656394752 7.265320886878434
K 6.029512371152907 3.55850756212285 7.243601682596428
K 13.04492631471789 11.213219090595201 9.402794943650882
K 9.41253694280778 8.802407664790337 10.154489890268655
K 9.91636816140613 4.536869427281733 9.182621195750889
K 5.1200895553883194 10.645750871573293 9.431882276817827
K 13.32392701387475 6.8682635769231455 10.864665376145252
K 8.748278820099193 12.917197986044053 10.79464474029317
K 5.534345051877204 6.04978197818627 10.892490780472924
K 11.225873253234134 9.965007207334445 13.56379392735724
K 9.209050079950602 5.811290863855126 13.384962186857841
K 6.5158514911890535 9.527213410838755 13.411706983111129
