21
Energy = -16.3899718 eV
K 7.006932898039403 8.037828662034983 4.110610419521032
K 9.789239959205151 4.3877275206473465 4.126162428617097
K 5.036517453216844 11.816781855270849 6.243222732918863
K 11.653760810623657 8.44460853075219 3.8948093857324264
K 6.233867348253417 4.448511275903209 7.173584722036264
K 9.49153827610232 11.220571346399675 6.620736422418883
K 8.053983213758787 15.301493868526633 7.13587281739379
K 3.0185220662882317 7.626680760371988 6.363244279141878
K 9.983052715535452 6.945391809423784 7.788606289281183
K 13.786590486239545 5.28534165768514 6.605675791737782
K 13.376748210032149 9.59311241269886 8.411139525378116
K 10.245039527296656 2.676172802612908 8.523883664995603
K 6.5063637467565725 8.589862367130296 8.961427197567058
K 11.358126658758113 13.432175025051885 9.99247983066472
K 12.633447797594828 5.6864200461351055 11.2008471342976
K 6.945519241266893 12.55957923001064 10.56190097422274
K 2.7092769722018057 10.338311150708352 10.156614190765296
K 3.5982211374077044 5.76298610959958 10.716483335725458
K 10.172612991778491 9.468103603569018 11.854608607136157
K 8.092207555012715 5.176754556505625 11.778961096493266
K 5.887048098956346 8.780202573286063 13.35774631827924
