21
Energy = -13.81740473 eV
K 10.293150015658956 6.901966692922906 2.9833794627916213
K 6.162272989528647 8.821217888086137 3.1707667327420377
K 9.802066398428156 11.32707845718048 4.39844850600077
K 6.736413817002292 4.512965850038894 4.534517536066009
K 5.900095228894523 11.554734420195915 6.777599861829883
K 12.814188316123772 8.34975661720913 6.571592288733366
K 8.50966876057595 7.837727611941589 6.755263468690591
K 4.110384669591125 7.387135854828855 7.085383030221352
K 10.7779550103787 4.085864090748647 6.664258736778776
K 8.47893270972933 15.077793178844885 6.872401517453654
K 10.376139063028761 11.454600222254657 8.802919127759553
K 6.89713281743601 4.274483791608946 9.063734274631846
K 11.06788166852169 6.6125054658584475 10.319711015761525
K 2.981928647883171 10.621579905840207 10.029785217891938
K 13.998614131984297 9.838997244578133 10.68874858601341
K 6.8477100743890755 8.79415708093479 10.479178006430407
K 10.257450573765349 2.196546779184312 10.887489692014082
K 6.923526231109731 13.13716077312083 10.830805820248079
K 3.599804025473169 6.154597683379555 11.44710450360658
K 10.039781478675202 9.998750036678452 12.964949491303466
K 7.957870972995245 5.593347955737382 13.204930724204528
