21
Energy = -16.45408945 eV
K 9.788242757134892 7.3080219913592765 3.821017033057735
K 5.288915138216666 8.951177229490634 4.011858585738061
K 8.964491098010132 11.95999689899786 3.4102546701542824
K 13.961416215311218 6.081080077422115 5.078111648500991
K 12.616947371382148 10.414013604050028 6.103478733824829
K 6.743742942672464 5.567042496760321 6.746388548239995
K 5.4947216654234765 13.063383917505073 6.223610998274687
K 8.317452569696009 9.800199325084956 7.194682852948028
K 10.45302993687805 3.22994923815706 6.01136766707378
K 2.381604496467011 5.998982448222265 6.060351917058652
K 3.882115830428431 9.390464252764872 8.47322506140708
K 9.92715269476689 13.993840494134082 7.542818982593343
K 11.393305333027858 6.739089212734772 8.58644787932655
K 4.1277704210880755 5.160348165962405 10.423092193320894
K 6.84262519306342 12.38033927365547 10.697677311316072
K 8.62238949269104 3.5655277321016614 10.433139826295767
K 7.467296789644558 7.885782711113994 10.853748277982323
K 11.17693645075457 10.812898894866434 10.754551263061218
K 11.196155345527393 6.69108909342954 13.018956642554755
K 7.110469943784422 5.277663544503243 14.412238630004358
K 8.582717370960761 10.068608454612944 14.48248033419594
