21
Energy = -16.32679157 eV
K 6.013952305420278 4.029395472220158 5.589548446280446
K 6.037017252239469 12.276650308992938 5.684417631517411
K 2.4167467950416395 2.1321601484483574 4.303831370567243
K 3.633099195693368 2.461561502571554 8.667567637913864
K 8.376696063264456 2.491744392156475 8.697110146798318
K 9.649561303384282 2.1699170277857345 4.3557051507856155
K 6.052820812823925 2.11031213826343 1.7216062316572622
K 1.8531652929079345 5.981667486040818 6.384573620726148
K 5.984953571476133 6.02666633274686 9.690636322637804
K 10.144010434932632 6.02906935063879 6.4253038028126275
K 8.280716988200435 5.990222648141304 2.2926561064442805
K 3.7732026575477775 5.965197089143231 2.2650399993804133
K 5.9921669359076635 7.96788383022003 5.565649375935283
K 5.972402166856332 12.276650308992936 5.604398218870731
K 1.7239106247243856 6.007522254740659 10.63255853658325
K 10.238813039172236 6.059421656115553 10.667236692010125
K 3.5928754305506816 9.545800882513788 8.619232709870289
K 2.3748139362086187 9.811122438142922 4.255789165853351
K 8.332939637254512 9.58096001820179 8.654344275511313
K 9.609493306328506 9.852004010710731 4.307813313381761
K 6.005268320293341 9.843351338180472 1.6736073146915833
