22
Energy = -15.24912284 eV
K 8.911190858967583 8.1718995760921 4.133782719563104
K 12.878316070492835 10.521333392799514 3.9102552221838485
K 8.75356153996284 12.745397528544443 4.314232195885959
K 12.575918240106597 6.796406508546316 6.3855253867125015
K 5.053574214173783 6.069732512658326 6.027921911624744
K 14.932908088405187 10.989340322723187 8.041939687863188
K 9.141520882254893 3.8800518207482666 5.54246407640415
K 1.8096676789229278 8.766867910741846 7.560980627910329
K 1.6106018066016954 4.566995567940715 8.823579509476584
K 10.636692822106209 10.682057510655984 7.574457306524531
K 3.959911321137498 11.846774589549648 10.303788969848192
K 8.606809819271506 7.07323205924085 8.407933282573492
K 4.705508764764066 7.364737256279572 10.49014044911226
K 6.500704830332574 3.387645047427314 9.377389055085896
K 11.176214835026148 3.7844498971213443 9.584664976606106
K 7.978570318596963 13.831259438303944 8.845410511790995
K 5.96927773542082 10.342979227736919 6.82317134538008
K 11.980179167286849 12.362727580487727 11.329095954743908
K 12.349970789571444 7.991533797673356 10.779931962679543
K 8.681471298230004 6.0214895826033406 12.629466683503102
K 7.988949860643207 10.315727411741873 11.437186938883924
K 10.799120219398452 9.488002622057492 14.67732238731815
