22
Energy = -12.1851273 eV
K 9.583758975656139 10.334305553934835 3.028471068199827
K 9.116052439320349 15.048551367144626 3.2753620876147957
K 8.91428224490394 5.817784901006945 3.941341626262306
K 2.786702680641115 9.5327739027546 6.836504209439121
K 6.990608224742909 8.725385182316748 6.243614743077211
K 9.80266604346254 12.42515073738068 6.936920467294224
K 4.562823707681574 5.090784946415114 6.650329408112156
K 11.793363550799832 8.20388641328918 6.2195189830509605
K 12.117003010359777 3.741162843576433 6.699159884523951
K 5.882194978922441 12.597964557726097 4.722250293124312
K 8.42543538963973 5.139815679386534 8.364344634522825
K 13.139471026485142 10.759035255716126 9.613324183767958
K 5.520952716631382 3.0902852697141245 10.990926533939332
K 5.6812182808469 11.857032935252821 9.318663263739857
K 9.074674647415739 9.147362235577196 9.881429924580596
K 12.2948215552371 6.2566217697517015 10.36572051413495
K 9.61577223370358 13.114416522822637 11.49908317595034
K 4.706835284450367 7.500900459037886 10.381224407141275
K 9.81077878587963 2.128184333334782 11.172666723552066
K 11.240990524985085 9.468827991795488 13.602238393755899
K 8.333509911785388 5.928209961642037 12.889115980691699
K 6.6582771125152975 10.143750506490363 13.419982819591121
