22
Energy = -12.97326137 eV
K 5.539433218681062 7.094194047711563 3.6966057150864207
K 12.007944161323351 7.19242973961808 7.259151681639188
K 9.345955988974842 9.368813370560655 4.28980080639032
K 9.465733977030872 4.697336234438507 4.55018679485448
K 8.854897867567303 13.827861157836036 5.511820198572432
K 8.453814615399647 0.3194318301107889 5.818256991512553
K 5.388498751356733 11.02514015539122 6.148104344420909
K 12.788988551150238 11.535252993948152 6.445151937064933
K 5.661442595672573 3.4076973713479926 6.708805443600131
K 3.075307327414199 7.367825299498969 7.6222541308494725
K 7.455285252810549 7.2238309864671315 7.622588528176052
K 10.761524587786004 14.601635858033747 9.640354129460228
K 4.9745015019535375 10.028124003557075 10.607807072153197
K 6.459014513138544 14.195832757049024 9.482316667418093
K 9.095718662391972 10.787702911664606 8.57092022953294
K 9.605877884383977 3.6431566054795153 8.968701264348
K 12.718909029452371 10.029303909199038 10.774787986549764
K 5.482895563669629 5.498320124833159 11.047184278560222
K 13.3248265581582 5.505693075820423 11.011527751095485
K 8.687816595142806 11.651197646289136 12.696495281220066
K 6.105976304798975 8.330417563086106 14.485829665345467
K 9.40496605553274 7.328131921850237 11.700678665940453
