22
Energy = -12.50793872 eV
K 11.322383441534424 4.868125113678541 6.572434583101733
K 10.149795844330631 9.16889028432581 4.92052529000771
K 10.643613778003736 8.174990282015699 9.496388053621324
K 7.985325445576803 5.594553979391406 3.4962797094573066
K 5.667439756071492 9.527898940475119 4.456112692740445
K 7.554600839968986 2.3426389993306005 6.949822923318905
K 9.408981587100275 11.66402040508101 12.15396586783179
K 8.11351882629986 13.317608139838963 4.895470936608674
K 10.735982040103437 7.563054787468953 13.758202782369574
K 7.137890740795627 6.558291306693243 7.485299429661342
K 7.482507351534384 15.014314654392766 9.185593489988605
K 11.421109892650941 12.366094121590631 8.012768610662418
K 11.25540198167849 0.7490653390075594 8.503872655662791
K 7.4411968871790295 10.756498303422251 8.389303176585114
K 3.4994814987811447 8.702590753244866 8.867257098532495
K 4.062445418937005 13.145196265788757 7.112015398604487
K 14.090780190330973 8.772979305962242 6.937642970434557
K 6.696276051942811 7.917074005748935 11.99230544124134
K 9.293218401023175 4.166996287011644 10.823859638136698
K 13.723749746396026 10.329234211919955 11.397264994213241
K 4.721667841063951 4.440110947912762 10.213033026251274
K 4.831736293338286 12.098877420338724 11.619685085609662
