22
Energy = -17.11479144 eV
K 5.557764088133807 4.09168569864954 1.8708802823907713
K 10.342466301041636 8.92340345640136 4.888820051297385
K 5.911366539173404 7.509227313360256 4.915650535326452
K 9.208494434796712 4.606430960508504 3.9838692884336067
K 10.773937595302312 12.770811025399954 7.112398448120227
K 3.5792601235017325 10.730071530408837 7.269924474375605
K 7.045807006766014 11.991665458361132 4.557884695827984
K 12.973528222511792 5.863554111643935 6.771719944439198
K 5.586522349556825 3.4210233635507215 6.550749255264375
K 8.896923960130195 5.866774771269443 8.135966256219925
K 14.371425535284919 10.198167064622233 6.044474165107607
K 7.687222253273322 9.880779152296888 8.381079489512544
K 6.446526289455905 14.01086345864831 8.589106787046624
K 11.962837463004128 9.163325044391508 9.564913760474376
K 4.645159192339258 6.818803057937271 9.333364901327815
K 11.440999956850217 5.297925263824725 11.646408024087986
K 7.063460527285339 3.465768284941785 11.028462118980585
K 9.483472681288093 12.313696152401935 11.595789970195325
K 5.062920563194024 10.856181201327738 11.738728016908532
K 7.962237446702158 7.705270279776384 12.451689695427492
K 11.814286429779619 9.403314144487503 13.992594299674028
K 8.120182798090006 11.048060963251626 15.51232729702433
