22
Energy = -17.23140366 eV
K 12.085119368597399 4.890417588681037 6.5782673511643095
K 8.598333471417117 7.196311118863274 7.824827445470452
K 2.300283518395544 10.606426764499336 7.377118596623785
K 11.92551473644655 5.757743214275049 11.056837455210026
K 1.9018926454986491 6.245108076279327 8.790198668719984
K 8.653385573866473 3.412481929969395 9.194430904714794
K 0.1591401091236511 9.759484057630594 11.41753814645393
K 7.4835564261491125 6.1908015191104075 11.942072483274472
K 5.11932009307747 5.375394809975989 8.090338533644681
K 6.004566106584618 9.73413859297417 9.54859628633098
K 6.238706576239338 8.37044369768096 4.729391087423267
K 4.905930386573628 12.483660444604872 6.242640502933626
K 7.853839614633456 4.574513631319379 4.807470959493857
K 2.300283518395544 8.805151115477043 6.965862233094795
K 8.814586583161615 11.41789816120843 5.885888380366894
K 10.366875778931352 7.650603645166727 4.179625014658266
K 12.391248875903411 8.779431349285412 7.6670230548018985
K 0.8293546511392481 7.262056559655842 4.390437330823502
K 9.76701917979271 10.173540995779875 11.368689739075581
K 13.085692889607248 11.421792312713842 4.179625014658266
K 7.707821783813527 13.64809876152985 9.512310055927527
K 12.32618309539718 13.067955430984734 8.659458514290376
