22
Energy = -12.71011569 eV
K 7.460817755297699 6.283532673666472 2.467906156725116
K 8.066716417054169 10.818543855906798 3.5506967176159696
K 11.43577157787164 4.103113823416945 3.644618742649216
K 14.236573921132454 6.890937321797043 6.200617354078333
K 12.391919954397268 11.185240966436146 5.9307804368497745
K 10.018603182337337 7.606804096765652 5.673822757596123
K 4.721773554412869 12.583220644475182 6.3946256849859076
K 5.185376009542736 8.200072539874185 5.828214212813771
K 7.281953471820618 4.137703693884495 6.38191819937495
K 8.498651996569546 11.157960663104948 7.859101847845704
K 11.304761460794778 4.479165606938884 8.594854395467209
K 7.979519788960255 7.2544012781398495 9.428299411728569
K 7.483728426210993 3.277100646249837 10.947085329402686
K 6.720006488784807 14.006058150153878 10.665146465000621
K 3.961653059601855 5.615788113614809 9.23016549786686
K 4.661393057320924 10.086504221995114 10.159200236022764
K 8.785351778121097 10.435576604533344 12.38771693638019
K 12.343034553708646 8.82010030181243 9.774374054548858
K 11.53222934142764 13.18483271168148 10.121335507544421
K 10.500131608470795 6.150502567636155 12.800986141929071
K 5.93427974989784 7.02405584960994 13.23276219805937
K 4.982076317994511 12.185107140036255 14.212095187245303
