23
Energy = -18.01320757 eV
K 8.570842861368934 12.060888316598605 2.7871883360611736
K 8.775816971770562 7.401806907386348 3.975404424548723
K 4.853611528684878 9.612099246897607 4.428742186980912
K 12.187220951466996 10.385467907825525 5.089506760823998
K 12.909643877222093 5.791503596078733 4.958844182587969
K 5.711724529120154 13.886561862424577 5.939344828444174
K 10.281298079485909 14.476123742831994 6.087841813875103
K 8.20567170686603 10.632234714970638 6.919455584492064
K 8.915301008627672 3.605597161592255 6.543795056294479
K 5.934343481739074 6.543210979305076 7.618515373927228
K 10.552020897711754 7.334893018819184 8.12604760589199
K 7.733630436760686 13.584996939334642 10.082195591494996
K 5.353807717642455 2.5349798850603213 9.77857304617694
K 4.264588254015575 10.386536234452315 8.98422072875787
K 14.668347199533107 8.444040719721315 8.39902863760465
K 8.803337276945959 4.736025744179436 11.110722964453343
K 11.738616728440538 11.679332548443819 9.572588781658714
K 7.870964441087933 9.219827490482457 11.075833591612392
K 11.974220831618359 8.032501459745678 12.226531994301384
K 4.623706932153478 6.462617890509249 11.825623324942898
K 9.963408120659254 11.751142356496468 13.766416642148315
K 6.318657127068783 2.8600552683866916 14.220291032956123
K 8.16166514078543 6.950002109232676 14.855733610739856
