23
Energy = -18.03299993 eV
K 7.758053160542519 11.730533334967605 8.611507537858444
K 10.44203838984194 8.3685578594647 9.9118337042449
K 11.440393518944866 5.165959224570289 3.313435439281656
K 5.674847311987642 3.1959683198528324 7.314745996965977
K 5.86999485968362 10.312645973178222 4.785769629345911
K 3.546711049284656 6.139776727799685 10.489597679931583
K 9.969939055394283 4.5136621857216745 7.329077501701617
K 9.365655457635985 13.511277600904462 5.126960050207837
K 3.030630169463289 6.941631666298759 6.056495500094038
K 12.20467920654251 11.875410420660351 8.190767785248246
K 10.085449870815136 9.047313636011708 5.213583100117125
K 8.62705842472967 1.5896446742218557 4.249996569359709
K 3.5724884311865117 10.507948538232103 8.96667809371845
K 7.1029762584381855 5.849896484111672 3.94956357990696
K 6.74369720239916 7.51565556409921 7.998379942725832
K 13.538238493668407 7.264348231572832 7.1087858951167
K 12.401038046777654 4.824004412779903 11.114894848535362
K 9.607941748468091 15.515020305415995 9.657148374439885
K 6.0704967768324 13.923637296242587 11.984307616457365
K 6.442817868340522 9.249445130442014 12.252026832249916
K 7.810233700349556 4.898103599760776 11.372349240858123
K 10.158728231258198 7.557423536820086 14.14188177038781
K 10.066404208423984 12.032646717879985 12.390724752255705
