23
Energy = -18.06125061 eV
K 5.883000244372333 7.279002092806132 3.263325400384681
K 10.447341874442042 7.073715686528912 3.1985120115061556
K 8.297903059718164 11.266012463318539 3.783888138056451
K 12.260832673957816 5.818998440876183 7.1757763222011395
K 4.510419039116988 5.487130187410876 7.437074202162507
K 8.196972064314187 3.650026702472779 5.465515022442956
K 8.29106081378459 7.8863722026628755 6.98487220294082
K 6.185076297296232 14.714571094508432 5.846726608468308
K 10.6753961738013 14.747828614164785 5.98361099351036
K 12.150898686634475 10.275048239200189 6.143618170976235
K 4.5363394591164745 10.328900062851545 6.387288472982815
K 8.466659441428888 11.818991167593179 8.45286163642655
K 15.117292286880913 8.816409904567216 9.19481065176716
K 12.514683748541247 12.570480389249424 9.95132961312348
K 5.84447575181368 1.205338557567036 9.183228957147886
K 8.64060443911759 4.587594396951763 9.943897485473354
K 10.914930022307987 8.421333577179759 10.754180917370665
K 4.743545395076232 13.118741218259489 10.144329284742412
K 5.680376916539435 8.6319934769512 10.667031843102952
K 4.451959759040051 4.550757483273933 11.92033919609822
K 8.446741055441318 11.41111447878882 12.892075885352767
K 7.704563577367064 1.7702871483045937 13.278891650427271
K 8.07216003304285 6.6025852276643935 13.980048146487569
