23
Energy = -17.95095467 eV
K 10.878032850443862 6.682182507112468 1.8372563958651817
K 10.580914876879389 10.08039589180567 5.0294204811345935
K 6.482182788454969 8.950698343213043 3.4055589461040747
K 8.723966301843895 5.609464835017237 5.568086896970978
K 7.07685529049869 12.994653557531974 5.671825231840837
K 11.519848613453496 2.7272795748099328 3.810302500414944
K 13.178859557698642 6.4818534279448 5.605450715179507
K 13.878824393529822 10.63293537910867 7.939355103718266
K 7.1633426450683055 9.144234848894701 7.705129419202173
K 4.303676750683842 6.055425008758597 6.419590804598519
K 3.3158195792257033 10.481070284841119 6.390407836734769
K 11.071187432048413 3.316719228036023 8.457624173768393
K 7.059497137563921 4.944689343199574 9.788898159994332
K 9.988655838177335 12.572119700542817 9.017028550999182
K 5.451522757575789 12.489993984477946 10.02448675379184
K 3.8594683184919387 8.163689452865373 10.449915699732287
K 10.933197539378082 7.704499214680852 9.058021969749527
K 7.974912299972588 9.246073659285853 11.940186935955682
K 10.314681508723591 5.602422049456656 12.70657333291046
K 12.08227320386863 10.42856135563659 12.2760706569196
K 8.270570446804314 13.453864199365324 13.230940916607494
K 5.718728789509113 6.131899473126391 13.921415396394663
K 4.83377662402951 10.766070224212054 14.407248665336546
