23
Energy = -18.00375781 eV
K 8.603362225599037 6.089365630585186 2.23022881697439
K 7.840048705141966 10.524157441414028 3.2282890102122965
K 3.605923103003771 11.664833563369296 3.5635311602836275
K 12.119078548582923 8.607708808944507 4.324850646996484
K 4.602146219078619 7.168580409720208 4.392419114926935
K 6.591286318360546 14.096462561817802 6.076565528201392
K 6.943118719499324 3.3276966543779403 5.756120379626949
K 11.425990386033266 4.223815239025001 5.659324042123756
K 8.453582379948935 7.447299546154714 6.458878072725353
K 14.441690286818238 11.122457646317727 7.50743981632747
K 5.074044659768196 10.296629227060812 7.628975867865416
K 10.055485618350652 11.612557179092823 7.167431222430908
K 8.44279492736993 8.56794547821046 10.444455147559905
K 12.538841181931105 7.328988405858323 8.777990521879644
K 5.005108312807152 5.8642135467129854 9.13248130154024
K 9.234862917759708 4.145677216066477 9.798754501693145
K 4.47313912807623 9.451783950572628 12.110534504954048
K 7.42355067550255 12.86577978041584 10.64560527284044
K 11.416600614708015 6.723989905004628 13.284203071143295
K 11.854113439707216 11.149981084163251 11.412908280889512
K 6.938815599127783 5.755962349080116 13.581045519767827
K 8.400765537536403 10.18828511396162 14.618439584820207
K 9.635093023377062 6.895271790162412 17.318971142305216
