23
Energy = -18.011301 eV
K 10.895111426695284 8.259390602792958 3.897556066744386
K 6.065319633241561 8.193547373598463 4.095405509677018
K 12.303253399300303 4.890274407002862 6.491804986997298
K 8.297231913884227 4.098075965822005 4.143074215848954
K 15.313765301682857 8.493558491907883 4.897036125687496
K 13.008838559170284 12.200302415126446 5.321813899254636
K 4.589615515092981 4.705966210157608 7.073094192727095
K 4.347060984223528 12.239939552301855 5.32541143640266
K 8.583170438546569 11.351265755634774 6.069274600117246
K 8.41863549645203 6.845463926734708 7.318526932471295
K 4.349921568018697 8.898881811155881 8.267241041095655
K 12.438864073307904 9.033760940348722 8.164620588954051
K 5.989080894568538 12.908309335722322 9.49568684344904
K 8.486784099499417 2.6873822715761855 8.439488385551352
K 1.7861134494028443 6.381835004711763 11.022595364753105
K 10.879276261943117 13.070729490997149 9.429164991353183
K 8.406495731165476 9.50017718039767 10.365458587136073
K 6.097205580494636 5.546689009635244 11.137924832906325
K 10.775381064843932 5.765690754571684 10.941266765225858
K 4.48617461730016 9.461784783335498 12.63373672951441
K 12.223636445791122 9.92544215516047 12.524897544557568
K 8.531596962456465 12.460414956974018 13.345548819599909
K 8.473796778314714 7.827447799730325 14.345701735372035
