24
Energy = -18.95853369 eV
K 9.58163690507163 7.1737807723940366 3.2914878490700397
K 8.462229429237572 2.910607126753354 4.810688510258167
K 5.479869575907633 10.001060492861042 3.2741854121876974
K 6.983450801833505 13.680356498657273 5.894603951665774
K 10.337690270536411 11.80573561162805 3.36382548073962
K 1.4903114029812519 8.084300294322214 4.834122301569222
K 5.511787104063075 6.225206832594506 5.685518350523033
K 13.137079902714392 9.173075502860172 6.248852390826472
K 3.9947825488447766 10.369224264321405 7.648840838397983
K 10.65280277932546 5.511996720154085 7.653715638168847
K 11.424765115598365 13.074433537897479 7.715021690410002
K 8.501795930397492 9.624962496386646 6.623732785156466
K 6.748252766353033 3.3694090726466834 9.21496773260124
K 14.422480138745549 6.406021120236239 10.016768191107305
K 7.359926944656665 12.228198324873649 10.338052844024853
K 2.666109667974273 6.279799292062852 9.185018760838032
K 10.32949257840503 5.3437282743427765 12.21512477126168
K 15.23349462794612 10.755785892055023 10.06045442276377
K 3.9787359487585263 9.618547085795875 12.24846299159741
K 7.004837569669351 7.613472376666503 9.909092197781206
K 11.089760145098843 9.503758874183317 10.363329915548652
K 5.664076141538269 5.4706181963105305 13.33947847450031
K 13.358290264702767 8.469986053691617 13.91520979823238
K 8.461534630046451 9.181128476710619 14.024637891175919
