24
Energy = -18.80423308 eV
K 7.640346991333961 7.1896365113966 4.2415477759096785
K 8.465923523379464 11.693340588751425 3.9012652453454146
K 5.784885360274505 3.848470795038407 2.0707653839876916
K 10.296396850028206 3.8493729811726216 3.274924549640166
K 4.8437534910608635 10.298922711333772 6.395143363855411
K 11.917183073734812 8.505922754791358 4.49774778136041
K 9.066026139688898 9.71324493081077 7.662387953979749
K 10.721696880267883 5.441683839656149 7.45797633600467
K 7.51182198238514 13.84707304957007 7.949252952342126
K 7.114828455358078 3.0906947423470745 6.297482915065702
K 3.4493478638056265 5.957314613149683 5.317855662806208
K 11.871493836314837 12.701954335733948 6.5204555656666905
K 6.298456594073718 6.6066767031060385 8.706452110782285
K 13.239167833798687 9.098923355014088 9.068228524255915
K 2.4683417446072964 8.230778426973213 9.614932409205661
K 10.581881815394018 12.43958709950754 10.93101854714289
K 6.026370775350773 10.843822447581818 10.866804345998888
K 8.574312566445677 3.611226603763316 10.81202089911508
K 9.581333728536876 7.916928551643629 11.60972176360117
K 12.932369591307745 5.305289200201128 11.454333991557364
K 7.099463823921089 14.659295249029551 12.661329904803019
K 5.6110282504045985 7.088238121064796 13.069680911675263
K 13.002918603724039 9.767523916914064 13.653127856158125
K 8.599143364680982 10.992571611326383 14.664036389617552
