24
Energy = -14.3951096 eV
K 9.314516882878669 9.97425910419975 1.9292120115496936
K 5.108950146498147 8.943135628988214 3.7260186920244127
K 12.180092770338769 10.452494094161706 5.502782083475417
K 9.037361093018903 7.186339159817623 5.247179486443632
K 7.908953456444628 12.118695224063242 5.548100365148441
K 9.594083198874555 3.0046856018256305 6.7585600602922575
K 5.335113631050161 4.929127213431336 6.289709033839015
K 12.605871234746932 6.325782466037838 7.9686830879925115
K 3.362855144428901 12.372997677023054 6.3895044917463775
K 1.6740041635285352 8.173703293723062 6.7299882858832865
K 10.898233251633584 13.82243242765473 8.526084116852953
K 5.74020790892894 9.039208711876208 7.929101598629042
K 9.837080054807798 9.75157844261261 9.02177969403319
K 2.75300477403846 10.63010802919127 10.496991205459883
K 8.3342986107989 5.730582484118475 9.803369586499247
K 15.579416182524989 5.8225004487668075 11.163204188910079
K 11.906625414531277 3.127658442709247 10.78884947468447
K 6.6332626425007595 12.985466204590914 9.849598189660616
K 3.7773021519811443 6.018916737952068 10.315767706618669
K 14.217765114672723 9.972952709572262 10.001947120236514
K 6.318398615699045 2.065984444381733 9.661853718458712
K 11.540455303518355 7.393875953590952 12.368964282969237
K 10.433583440693202 11.962890826157672 12.602594032580246
K 6.868559009107856 9.154618870799004 12.340151683256648
