24
Energy = -19.1040562
K 3.999638247430734 2.224663890047411 5.130571343062031
K 9.271442526798342 3.7144433332168814 10.700273859187352
K 10.50808169844371 6.5764776978274035 7.331474164030215
K 7.406501997660811 1.8419088113451 2.0014348881599626
K 4.580597505293056 5.336600227639571 12.060730362090379
K 6.130821333061616 5.40171978995002 8.141100700767955
K 7.359414056459294 5.612154371505808 4.117192822521704
K 7.857259173865539 8.366763580997556 10.760581404637342
K 1.606522000862455 4.5567234888354875 8.517870229281119
K 5.57223007136068 9.287392184135836 1.9660411286393134
K 0.041395529025761116 4.450516050838052 4.040898226352963
K 11.429845003516553 4.075258933632758 3.5912704253782137
K 10.167034089776834 8.766987269660554 3.195793836093103
K 7.0609012436067164 9.886525831241414 6.445394030545253
K 8.64618382433128 1.8935010849424163 6.525922367174935
K 3.3458884185672066 7.02302076385751 5.173117848975141
K 12.770923844580357 2.801335541135547 7.826930373047661
K 8.253613382798987 5.9702354636397486 0.01598477092412655
K 12.770923844580357 8.35968863921107 6.47125520757713
K 3.353877715320309 8.908359490437041 9.262183985205558
K 3.8343049000031177 4.9273118037738195 1.2234840214859337
K 0.7932925865352431 8.574095044518126 2.052695356514097
K 2.786072321633061 11.327077327931903 5.215364366255792
K 5.105478139272195 1.4510766030806896 9.56627150549355
