25
Energy = -19.80820885 eV
K 2.1207800995678663 3.9841875045247814 9.071484201007369
K 3.207586512578158 5.1093196329811175 4.774054058083085
K 2.8795014126161664 8.39656443360843 8.25720783317426
K 5.125692427992731 1.3793111809137042 6.412860768894873
K 4.8786044127423 6.635432596906128 12.162240147518764
K 6.2623227333956395 5.112033136702503 8.173238850876173
K 4.376579902535673 11.240641574198639 11.770362125624459
K 6.182250600851743 8.609114647936082 4.863067820515101
K 5.298111309407356 12.52757213413575 7.302036054688451
K 7.711305460413657 4.371542776699434 4.01715160738688
K 7.327468794487918 9.159674221319513 9.234820624713567
K 9.890082734021242 11.786176811610703 6.567282362174122
K 15.69345013185627 10.440571895341334 10.90886495482792
K 13.921976332122139 9.871678963859248 6.688677206883695
K 13.106057009370934 13.683267044798926 9.197899679014593
K 13.642066053026445 5.841910526730586 9.541533202062292
K 12.315443025308136 12.716611507633393 13.519870285203467
K 9.447486461501423 5.549922182380364 11.447339319172977
K 8.237669081299357 9.553943918965615 13.656453943588774
K 10.286845087301428 8.851735865081094 2.952245914307684
K 8.6494608187247 13.276346315930533 10.856275803295038
K 10.337091179081632 6.930415506168842 6.814301567330347
K 11.451991088884773 9.578153407896012 10.528972914954197
K 7.320242027565984 12.508962700361403 3.03826190183007
K 10.114797647056031 2.6697718570262188 8.028359196582063
