25
Energy = -19.8801589 eV
K 9.03500753121358 5.465963613003735 7.8235002734199455
K 7.505463248861824 1.5468640092063979 9.286390280099047
K 12.35442577571714 3.2424000935207276 9.400471118378112
K 13.062523707631716 5.776956837528906 5.706538535478278
K 2.798334096550824 1.634121386781553 7.824061479237918
K 13.062523707631716 3.1845330103704885 5.290885983907535
K 7.213616749042791 1.7243280624353943 1.348964150555347
K 10.14879800758712 9.428404327684351 5.596119620418437
K 0.15642888676882744 5.380015682425443 9.148586024944784
K 6.148815006174533 2.8873445171520244 5.33605292575306
K 7.296440280929728 9.337594146410545 9.354339026980892
K 10.530182444770396 1.9370598421916672 5.414699197674908
K 13.07783487314822 7.885254249669696 5.447427303512121
K 2.5270772084562503 1.8410218476148847 2.866583932857655
K 0.0419779964576663 5.664512806715409 1.6764390385705932
K 5.850108209883533 11.755069631710073 5.6582928751915045
K 6.079838601873446 7.416452431104287 5.430683432751569
K 4.811688699513055 5.330802849688585 9.608399375128688
K 9.297241976328122 5.568490564525285 2.8934090409514073
K 2.516189612729845 9.376497101977128 3.2380939396309865
K 2.7668491755647935 9.169551869288084 7.968193722882348
K 2.484981057397891 5.420022796845626 5.418846789277942
K 7.039033241845619 9.532144607740708 1.7326876868739154
K 12.16424085398286 8.085759867416213 9.44659497041735
K 4.822991087047632 5.576974367359629 1.251879795473049
