25
Energy = -19.72504366 eV
K 11.548716788409182 12.290954702780269 2.358445546506222
K 7.574010097603223 11.325489200997794 3.921107290291801
K 9.6610048634993 14.983547656492632 5.422494649694803
K 5.804470785802322 6.8287606829765775 3.914376492331697
K 8.606117047410944 4.1450266056973035 6.2807273517025495
K 10.408414256471229 7.650746477354116 3.7279790929440657
K 3.931689534722794 10.169926150063391 6.616878457657677
K 5.171051585240773 14.749633156959344 5.150144481621327
K 12.107360089902684 6.585957436372161 7.782722358243619
K 11.487954425989464 10.982556639190129 6.519880055201446
K 7.889188551325482 8.429847242073093 7.2243140493128175
K 11.206201747645094 2.503996910705852 10.061839319634608
K 7.14923526515109 12.654108444909449 8.429155907011436
K 4.483748381482824 5.731804605785143 8.121657238164813
K 12.162873386398893 6.297758618202759 12.399615782785578
K 11.134474686670838 13.855076232174468 9.807159594027205
K 14.211224083343456 9.809796350677905 9.99738892174711
K 5.154493507214447 9.243320687902175 10.875037237303257
K 6.704679492598464 1.8103249549139753 10.185609762515826
K 9.980484076634312 9.795366737556064 10.713947387865218
K 8.305152152053138 5.736797512862593 10.442346231799997
K 7.462464191636838 12.410621176397191 12.979253290753906
K 4.842910940093643 4.89876665228074 12.935176717618386
K 8.042266951953952 7.8441750332987885 14.222021482415625
K 8.935350568406585 3.2311775890372076 13.876258758510133
