25
Energy = -19.82092308 eV
K 9.269729305915398 7.097649072068574 3.3066482089435447
K 4.569520790793194 7.073703681953228 2.8442576794500756
K 13.707678122611599 7.147780057515832 5.470722642407746
K 11.292407031140083 11.077089271368555 5.483699850184822
K 10.699035629327728 3.5276204230043056 5.975589532086689
K 6.635557533027521 10.075956527276867 5.493353104551501
K 8.112891228709964 14.274086854128633 6.593277385289245
K 6.324297700866474 4.773935662751682 6.1999971144651695
K 2.091601159248995 3.9513494371666686 5.107091233865206
K 9.90490772908502 7.409820411918654 7.699819748606415
K 15.808687505079773 11.291982624913073 6.212935812403023
K 2.659133103807496 8.062135164025621 6.965028068388197
K 4.54063825055868 11.837024299187725 9.182311941623805
K 12.916286827194481 13.88469957676314 8.807503355259925
K 8.311325410559164 3.76701376324634 10.241730020885408
K 3.2210837388642934 4.341273968628149 9.610325725252835
K 2.3115407962029977 8.42954338390105 11.639824896914353
K 6.189148942340503 7.7553922272957365 9.5904688687313
K 13.377227700563987 9.523127078378883 9.58002399942605
K 9.05477700308027 11.406913207061786 9.620185380559272
K 12.789293242806425 4.797061261079769 9.89773669683128
K 6.416521595460728 10.467027714472337 13.244107156204446
K 11.80397409261914 12.077521340210629 12.946300420253456
K 5.627986183894835 5.849404313744975 13.498237222090937
K 9.956989297804618 7.693128599501176 12.381063856889359
