25
Energy = -19.69658768 eV
K 9.351282623683456 6.976975210288694 3.0547864558951563
K 4.764604272879313 5.896588815190384 2.784683612114636
K 10.84910145028206 11.536469085344141 3.2593231097197735
K 7.573693412495091 2.72234176045304 4.636357216783811
K 6.578636627267164 10.407256756892915 4.161944394577509
K 10.98909730642656 4.987860937207943 7.040063293994257
K 10.233147976427166 9.421912234519867 6.738528892917708
K 6.767310517887844 6.560597189486624 6.490514064596138
K 3.633274200797437 3.5875222025212303 6.509547192075219
K 2.7993893455847476 8.14966076380929 6.323812167582389
K 9.134227504375785 13.71451088605165 6.893101623271616
K 13.348651752243597 12.274410409784842 7.902239481836793
K 11.866392758924489 15.559993323364585 10.353201307423127
K 8.800997141887937 7.426464373100006 10.204836219252313
K 7.399322837715913 3.039936003658293 9.177106096198154
K 4.325279742686072 6.336284195773563 10.194555497869219
K 6.042875058885492 10.755802327689834 8.468216239723807
K 2.2480643354096923 10.233283352467431 10.453621143180928
K 13.211076702110008 8.360337062954947 9.968235198947488
K 9.884129154660084 11.761768943920815 10.854533828162158
K 7.3609210670330745 5.160806505525596 13.375613472560424
K 13.877496017734094 12.023726156135307 12.520235613528293
K 11.390356412370087 4.295403529175283 11.510913121582183
K 11.007294281727628 8.784105390032009 13.851998936970695
K 6.128310865816496 9.590915951963822 12.836965186546811
