25
Energy = -19.76591678 eV
K 10.221780613555184 11.133931893361613 2.2581905289987607
K 6.386273860108736 10.243584007834526 4.22520556055205
K 9.473199971156697 6.651674591788673 4.006730365572212
K 13.562899328123999 8.6890532025732 4.222317103190077
K 8.606736417908426 14.235149264307278 5.3899415238490915
K 13.051942854659607 13.316877703556601 5.155203364082168
K 5.148211168374558 5.905176835518261 4.899384331439055
K 10.286261663554203 10.345107167824253 6.534186401465711
K 4.161568855630563 13.576002230335526 5.997184935773586
K 8.289482578861106 3.32533544959482 7.156191330935703
K 3.694772613289426 9.365153736487631 7.664809047350292
K 11.849593394929869 6.197270451678508 7.74607307776357
K 7.633322570495969 7.583834614959258 7.98520407792087
K 14.170911763989354 10.159531212144106 8.51639405066481
K 4.641986642176542 4.825156530243996 9.586740477541957
K 6.931744765845879 12.133106196206846 9.095782729799131
K 11.072732488007205 13.48072444638527 9.404802351514183
K 6.619860503778934 1.3764967966370323 11.478797441432727
K 9.040472815104108 4.992965918091207 11.34262112740702
K 10.658801424996039 9.175394666326483 11.025614642168238
K 5.938620516035436 8.765497538936195 11.860232506585973
K 8.725758468733337 12.147967373611154 13.265157508975632
K 5.238530873546479 4.876509290401265 13.99884635470094
K 8.862090870705844 7.561210528476884 14.959371537974741
K 8.803384003564831 3.008229379852077 15.295958649473164
