25
Energy = -19.78254196 eV
K 3.2284155788694795 9.394182587262556 4.977757924508394
K 6.093078178927297 11.62427754983889 7.350867296381218
K 8.851989167640566 3.2887493049193104 5.611139115353734
K 11.164784811512613 7.192837125365696 3.9793335156475305
K 8.234959150354287 10.880951369099394 3.4638197187380837
K 14.584687995486629 7.842360560266912 7.04296590199389
K 7.226305679528756 7.529634659966065 5.907039328050716
K 10.950944669503482 10.759895019096955 6.898531795300107
K 13.462070673385673 3.4637686206298253 6.079862859616433
K 1.8849002333042768 12.207341899191656 8.253582709483977
K 4.1521074620018075 4.698192898677594 5.855366755689162
K 5.222806519966544 15.368417104965179 9.271710575324054
K 8.856086087497044 14.72814581720202 6.343556994578168
K 3.7307103725341624 8.004403152967466 9.082074213820322
K 8.063526370666564 8.843075184455628 10.000943641612103
K 10.85737854816775 6.17455904664897 8.221709083246214
K 10.929050748376621 1.9539741964179727 9.345510318558345
K 14.399330798057425 4.805973450700602 10.345259903486836
K 4.979812783840085 11.624267858249734 11.726562077470275
K 12.386898273842991 9.505705966364076 10.888519449919412
K 6.786444736215377 4.525285746871114 9.495974450427358
K 9.229121682898537 12.991178972383066 10.44167926509969
K 5.745744079014101 7.041282782175454 13.119695043769203
K 10.176569096019032 5.758880967654266 12.557200426591278
K 9.036078999768886 10.026460856009733 13.97314033271347
