25
Energy = -17.70522214 eV
K 12.901391224362355 11.138184574005189 4.158477266435218
K 6.206463248414067 4.628801965393665 3.4415417816458675
K 9.595530806978198 7.750024218326058 3.122001040227982
K 4.1784477512401 11.830345266750896 7.355128933878004
K 13.60566862618427 6.683336763843116 5.0427702938470595
K 8.262183755008458 11.811936399512055 4.984240379970039
K 9.629834418209947 4.443618934404544 6.295137016422525
K 6.156613538762436 8.023185234588961 6.098633042338156
K 10.987775938019292 15.181245871923633 4.40019035069406
K 7.495795535207964 14.97671462039153 7.821675273805874
K 10.558039271092431 8.738793008473955 7.225374178670143
K 5.3807621120786235 3.9368783584270024 7.924683697742703
K 8.142782551843512 6.572515165522167 9.964028662436071
K 12.52596223728561 5.464470125809001 9.644810937856766
K 7.591818651331996 11.029068451390021 9.735294225010454
K 8.839607964994299 2.3933540482518905 10.494078998471167
K 14.592391718449582 9.4805882176011 8.426743189524032
K 11.463601259963816 12.86870672829472 8.192513253832589
K 3.8653829444992347 11.715796270541405 11.941546673832281
K 3.88504237178236 7.868693059761109 9.965922797623024
K 11.265853641248594 9.36393568656134 11.61196976832091
K 6.785951497482877 8.66480531653142 13.511725823810462
K 10.05753048200632 5.4096445315026545 13.604944297924048
K 5.353548974598872 4.330653632513679 12.771884243169396
K 2.5168180316038886 7.539502102327503 14.109482425158781
