25
Energy = -16.65608177 eV
K 11.533882261072542 5.580886706780659 2.280378449237351
K 6.8173953600884145 7.232794073265009 3.4498276956270395
K 9.968629277292488 14.057314507872949 5.547926168639386
K 10.905663674182877 10.076216248445121 3.2125598359330523
K 6.056337001084769 5.9875257160347894 7.568354536923159
K 8.651310607188572 3.2335276839901472 5.001000239013167
K 14.543109090387343 7.687748358880506 5.025338120653099
K 13.187691731905414 3.5835525965975283 6.087004721450019
K 3.3693187022664444 9.05863232622118 6.0185172950995085
K 10.36687032409904 6.956614402618498 6.1254043316573625
K 12.245637032753924 10.881022203236977 7.516725414348963
K 7.513852790594236 10.562460632421494 6.182573343740687
K 9.780924092187313 3.994623086326609 9.473097137833625
K 13.487906628974947 6.804486100213003 9.33930739311151
K 2.2860562122952306 7.074270545927181 10.073807215344276
K 9.25664618223822 8.426037605263563 9.840349537007771
K 5.293170332362515 10.103583050729503 9.930438570421401
K 8.856457565412729 12.840283514518676 9.898711152437928
K 1.3104490645730198 11.413046040864314 10.482166593703516
K 6.312461691329811 6.0819202743123935 12.141219190215919
K 12.309789554302467 10.514969426362606 11.965888343496426
K 10.869073534774754 6.315951572490133 13.193382867054803
K 4.784358611751786 13.221990918123547 12.935083176956589
K 3.4254576681663687 9.190560624704442 13.923244518926852
K 7.848336922817173 10.10076769790208 13.768480065270005
