25
Energy = -17.53705812 eV
K 7.249360147361056 9.216386896366991 3.188345962325213
K 9.689412740619463 7.361492182832448 15.303692453504453
K 10.328928488991378 11.603471505408187 1.2062521347513497
K 8.292381498954652 4.829608399492864 3.784552855808391
K 5.920363910796068 10.909927509910842 7.213191250449202
K 9.03096667501231 7.666795771873544 7.025359563179872
K 4.768846361075714 6.560453778448334 6.3474435744229964
K 7.184348027239178 13.653974606404434 3.632845206271913
K 11.834688012181001 8.027122287313757 3.685909783533409
K 11.703837889339479 4.316959393505436 6.838992267190478
K 10.399630890108169 11.713796350719946 5.857790058232154
K 7.500647074150051 3.647561835097548 8.380743776061713
K 2.5800518268937545 9.078197391427295 9.554669159703073
K 13.022573706870652 8.555134110068305 8.3385967600408
K 7.872653809347853 14.44893966847604 8.51145770187169
K 6.593128092211337 7.628080653292569 10.414003066719047
K 5.731253589943794 11.639102018708323 11.687622989107382
K 3.4787042558025383 4.672051747721452 10.401014798558153
K 9.847850595724653 10.873921257146778 10.3404713269121
K 10.630394836520852 5.74250975004815 10.953294439267783
K 12.814862995646816 8.879315543405173 12.972830237093897
K 4.088207674277973 7.78154799561373 13.896712116942785
K 8.468161790999286 8.731694349701929 14.24761296539764
K 7.085044937822476 4.340763819313375 13.331788430922654
K 10.970120821623974 5.207611827217546 15.303692453504453
