25
Energy = -19.70461937 eV
K 10.263255060180942 9.530840748618855 3.0115989535093153
K 4.5587087666358705 4.202157668543669 5.290996455414429
K 10.834498038488473 9.752730420517954 7.170719888467344
K 6.702568395990728 11.367074723683146 5.537237993945569
K 10.220914510385382 13.912415082457212 5.379964391956788
K 12.072038660151565 5.805457331099809 5.4846169973634495
K 3.604354125632701 8.513615531417347 7.069359280209489
K 2.5923229092195257 12.823819311033622 5.499611154849569
K 8.863739887698548 2.6464645920648913 6.919686127310149
K 13.485899393476243 12.300961271775305 8.96312807422389
K 7.706738752228729 6.962140834997761 5.59529154206375
K 6.143117925938031 15.549446946299181 6.5211794713075255
K 5.786788290262349 4.960907851212341 9.477747218913626
K 13.048894988848138 2.8240920821230584 8.98822456919051
K 4.380176715826872 12.539932596213486 9.471322234079775
K 7.241241457549324 9.155949188452034 9.49991120666492
K 10.13030144916136 5.9452377060350665 9.436888478127837
K 8.836260657809568 13.263179768920558 9.493739701348177
K 14.19070642189362 7.375435837827634 9.277912545857866
K 9.281791163478678 2.2303882069443937 11.45486138318136
K 3.8313133026142223 8.301973408006805 11.809576035149039
K 11.117535392434624 9.693063627446067 11.884277016173563
K 7.980577331702453 6.639953798297057 13.200362084270335
K 12.587138219612124 5.07063269346664 12.849465181177306
K 7.084357058795256 11.17736764856161 13.257560891260104
