25
Energy = -19.69951149 eV
K 10.959856031416981 11.554722707791797 3.0322567489148815
K 13.006932425016947 7.427972240499162 3.1078002211674325
K 8.186618649182456 7.549506131173349 3.5508077037205292
K 4.001384123986998 8.157874103949997 5.514459356566092
K 6.082671312327947 3.9902011111567637 5.690755085193389
K 14.680218733911724 10.949552074680613 5.473327063731296
K 7.035664858177014 11.452161899152847 5.713256490680197
K 10.544474788495178 4.554284151203706 6.3763564764240765
K 11.020010940065852 8.950311801317282 6.520577241942486
K 11.042016151481842 13.263281485629374 7.225336840471633
K 14.622264989295212 6.7567418117805245 7.351811853907307
K 7.330542768246955 7.18902261026769 7.973118672307977
K 13.381690431859125 10.300185770463274 9.9861259541045
K 3.5243343859972867 5.893272108108599 9.788062066751689
K 6.8416358624521525 14.095217599779994 9.356690724001183
K 11.228695598615882 6.186420988769632 10.517015447974966
K 8.868236233342602 10.356267513005943 10.016177232956304
K 7.506983944774004 3.4330730684984423 10.150784525422642
K 4.3218845167864925 10.205826297785402 9.635735986554057
K 10.609253727445054 13.49295839403955 11.994514286072905
K 6.985349099325324 7.161350584676949 12.542622217488493
K 4.2868479558763255 4.037559961191858 13.684750677992955
K 2.925442203230207 8.411927381164306 13.6316057044075
K 6.264527280368039 11.401265481875734 13.48277367584991
K 10.810682435621786 9.29726216933675 13.75149719269483
