25
Energy = -15.06792714 eV
K 5.197952958580349 10.243352838867755 2.634445684405197
K 9.606973295770377 11.180170355962543 2.12500840985276
K 6.820926687395821 14.255393937846875 3.951138734055592
K 8.422037500763967 6.657481921680735 3.62191749507657
K 3.7191019868818307 11.796543207062157 6.725150027420773
K 11.188188071894059 13.397539478440256 5.918585508463142
K 7.870043123371207 10.497914710839376 6.156050909191255
K 12.081377645621703 8.841977070440274 5.712607939309581
K 4.631279703237924 7.28467450965141 6.487637342167333
K 11.442907957892468 4.271577694923932 6.14073377026376
K 7.071969114989623 3.3748773005691173 6.62417131580339
K 8.811064961224233 7.048506265203386 8.41610741003904
K 12.938703757070213 6.792370935688773 9.867174320283377
K 9.881583748968799 3.279336352765357 10.64390374635642
K 14.524461977141963 11.102078061519586 8.863679194890105
K 7.348803124078322 14.264495123895003 8.461399559269719
K 12.274189824105234 4.984152639543578 14.225546398280994
K 5.567606217917531 5.195289244093269 10.633829505418378
K 6.046090564336897 10.262366403932518 10.544241056820095
K 2.240159544362445 8.442537850998809 10.222407832805805
K 13.221594734306821 9.49738222931849 13.338394999940066
K 9.134560589092711 7.695673805394969 12.796185069091235
K 10.43676803452152 11.163536388497059 10.021521279802242
K 7.742935333460826 3.9525695321920633 14.710900213687678
K 4.850526003503589 7.590008601163156 14.229068737795435
