25
Energy = -19.81304338 eV
K 6.5726965341613015 10.301580280259447 1.4841545557251197
K 10.755162141481389 11.685684595547178 2.346897112749511
K 9.608565328817654 7.325161152307508 3.0684200394410857
K 7.461575113291494 14.340720419263755 3.6516249991823875
K 4.068910176709893 11.621743169349772 5.033670582104967
K 7.8437982885238045 3.5095877563241995 5.218227071737974
K 11.000941325611912 13.728339579743231 6.4784017044307145
K 5.20851790320336 7.187873986269111 4.77802457186849
K 8.854316115529382 6.996660401175243 7.4850878965829635
K 12.566474276848556 9.379832279538228 6.435176888054729
K 8.18150769558488 10.624247750922079 5.677332235450292
K 12.23922140106276 4.803623258367201 6.169463296024836
K 5.112590334385571 4.7177696269970895 8.664813943585045
K 9.412725012777068 3.120390158630071 9.653035758737936
K 5.17499701764271 9.262699204076213 8.837575769326024
K 6.899962141676988 13.346951823666043 8.808112975746653
K 12.473326616300927 6.955702860299765 10.199298534887344
K 10.393596940310548 10.938902774691115 10.0407093136138
K 8.037665416611294 6.912927701327976 11.505760677703327
K 3.8919449559150903 6.882322641993308 12.56278664701437
K 6.289637946723747 3.0366797118260873 12.949277279551925
K 6.823163758833619 10.91877169885274 12.63872230569944
K 10.48463604675763 4.274215168826696 13.937613011485467
K 10.847332829507753 8.860015044884403 14.067500865729613
K 7.205004504336231 6.675866777466422 15.716581786172597
