26
Energy = -20.61312622 eV
K 6.590090860273945 9.133810825053136 2.886465570849964
K 7.534864031877904 5.869757405384539 6.055221763935446
K 3.1387907639179606 7.198582881243771 5.496015898912015
K 10.584073753971449 9.508861298966492 5.379347151884568
K 3.187896779134493 11.856832003154809 4.455971264818556
K 8.050630010722626 13.236172472698565 4.614489473431867
K 9.403489999221376 1.84806444205982 6.774661058086148
K 6.1304757892116575 10.039546842997357 7.180724522219242
K 13.210659643930637 12.950129012455605 6.396412407038796
K 11.966453507116453 5.668078552807598 7.199144438708778
K 4.376685333704761 3.143345724366004 7.666964714175903
K 15.229389584788773 8.782728315963979 6.06788363356143
K 1.7631577226687605 10.282841762557505 8.526130375951658
K 4.917959258118102 14.167215372985691 7.834934922238123
K 9.432304865282571 12.789525784548712 8.986465796034919
K 0.4906953005404438 5.709556741290746 8.86333446559545
K 13.164175446685675 9.921896163943613 9.6865240312137
K 15.687815055810992 5.834280338656922 9.629938408380566
K 9.059461447466845 8.22738171086867 9.603505204449718
K 12.704972145875947 2.218715438669919 10.001252938388214
K 4.622634994588268 6.868410555228451 10.022819221347444
K 8.210926957662647 3.9168654611777884 10.407585202541094
K 5.7659728278495805 11.083316369833497 11.652876176332173
K 11.855277596803523 6.152423885475998 12.144136976318547
K 10.025148898612878 10.744814555559802 13.19913366023296
K 7.302461379176906 7.253310037065859 13.674524678366462
