26
Energy = -16.01067517 eV
K 10.843696009395773 10.753423134732824 4.024557481143487
K 8.22257929371143 3.6363353320558955 2.683243373928286
K 7.2224161634211645 8.146817819993283 3.32044138331613
K 11.175907180424492 6.11542534164029 4.672016906207033
K 6.898346560830161 12.453313423821168 5.494365898638535
K 6.327609436313693 0.9484419947440097 6.0267663776420966
K 10.796260660228945 12.901948116971738 8.056617769044566
K 8.965298464137318 8.857045094997478 7.420503761109023
K 7.046247234936241 5.141865566486829 6.58639756287737
K 10.53708850706369 2.0380953979576177 6.438823466658565
K 4.534650152987715 8.934140811178878 7.251389074581389
K 14.393540438315068 4.231382548367596 7.45950496950312
K 7.210354803220074 15.768333524957518 8.782350713022069
K 3.488748886748304 13.282958765306839 8.705384828177772
K 3.8086626335819256 5.193803107099963 9.577225377611283
K 7.591096181900804 2.444792742888878 9.970505408349563
K 13.350520308154726 8.934409225820488 7.668901076319178
K 7.106091046547367 11.472234627052577 10.001882008198903
K 10.813509614350718 5.355554415035024 9.351891257508957
K 14.503940408218828 6.759749649199609 11.27465481038148
K 9.570641128909854 14.18906556227045 12.37186262494299
K 5.107857325678737 14.293153279249617 12.721722205693073
K 10.92323082413751 9.744825990106595 11.484016680074031
K 7.290694177713223 6.986008879742367 11.524123479745146
K 3.67551819623534 9.550283575514422 11.634306416848677
K 7.378210788492816 10.649308498463784 14.279261514133559
