26
Energy = -20.63592961 eV
K 8.810706460163377 7.065082320664864 1.1472059448433594
K 13.056249362175897 7.485661978257938 3.0630555428394644
K 5.659241770557678 5.313322164677574 4.876899534452987
K 10.491107543126281 11.249950478872004 2.4144279232123833
K 7.106477221238622 14.268384117526626 2.8461796141438875
K 5.912496310501332 9.990557337337226 3.2472992214648717
K 10.151707819944884 3.905145462965152 4.3510195008268004
K 9.198949601417564 8.057502556103483 5.372776408452454
K 12.931094493291432 10.614015517926246 6.4395078695990655
K 8.250499063095837 4.5989650366672175 8.462215078198003
K 8.647919889981454 12.415514278311711 6.57961144215402
K 12.711528412729177 6.0759665153272095 7.648939869273347
K 4.302946982003193 12.95066632811206 6.5298419894907775
K 11.129735463992697 12.949613951263048 10.309857947397267
K 9.620783959243115 8.93244044118311 9.387669175832722
K 3.8860680548903024 4.643929847332337 9.404473095856982
K 6.506733167681679 11.91137556767989 10.696636330173048
K 5.080490433755778 8.712144463207446 7.644579728186856
K 13.702869324097938 9.21686899542668 10.942946354168273
K 6.40363457541526 7.436469633605561 11.817221913924133
K 10.797329076108017 5.699705796500096 12.381202803688437
K 9.784092656365274 9.966076741226155 13.866787396615708
K 6.922417915015492 3.171164384916702 12.863404507066969
K 3.564939741213362 5.639328796825243 14.539488960118803
K 5.437998064683803 9.737923818368142 15.364966408853723
K 8.131779192925903 6.1920200253314235 16.001581994781517
