26
Energy = -20.70315798 eV
K 7.890887102211907 9.746612963654046 2.820245038650921
K 8.484264102400209 5.279532314033155 3.568384944038981
K 12.372092401804228 8.239516478268957 4.360756241384026
K 4.335946770899402 7.234505212594286 4.567265234930564
K 5.672453023057731 11.706747765073004 6.364687736845888
K 10.287493533130169 12.179094990004943 6.167604230668535
K 8.481607922194371 8.163648887787128 6.861526292501099
K 11.221219145571888 4.690726847128721 7.415748530930806
K 15.05999628891472 11.265740242698005 6.547248649322541
K 1.9438177685942921 5.209003780363325 7.9430567491344775
K 15.6090130676561 6.791701619408972 7.240832555842177
K 1.3989607088535914 9.635990522650923 7.175996991511364
K 12.101538905782862 8.953055632893859 8.971541741882438
K 7.814251657090598 14.836020881579648 9.038923117234047
K 13.556025550583183 5.530586409470599 11.293935517651429
K 6.623673075501671 4.074991401071857 7.615774170415934
K 5.074596425049222 8.130996021237273 9.167382005636613
K 3.764571392602261 12.090432251704181 10.503667951503434
K 15.934726632778773 9.68458937690883 10.799881885486
K 1.3780152268194596 8.098227751001101 11.552835615010261
K 8.438837818927952 11.062676436285622 10.749524266263697
K 12.608438361338886 13.15386607455709 10.04816279259432
K 9.323388706990727 2.5872746001239673 11.06729898788402
K 4.719425772914809 4.6308147400528705 11.749978571768153
K 8.98634682799391 6.746333631523347 11.50935871190624
K 5.568400322748266 8.927301680334834 13.548369981412382
