26
Energy = -20.58128427 eV
K 7.197283650024598 2.6531470812803764 3.6517889290172203
K 4.185475963037657 5.6735383385080524 2.7841046710086674
K 11.421535433779564 11.774694078765675 4.0651681393144745
K 12.880651830728024 7.451512029527311 5.0638317561743325
K 8.236217054687286 7.307558101527582 3.144934105779832
K 5.052506471355477 8.46477949947853 5.964001331228186
K 13.590696230676858 10.9571686590099 8.213134906242702
K 6.99209573050297 12.231669287638052 4.652073822838238
K 1.5534204967579066 5.914414796824229 6.2314368465815
K 5.411917529546896 4.1269362686494375 7.395962207457919
K 9.446083288840404 9.376948424826939 6.813410031421729
K 9.694731485925816 4.629651856355165 6.536129863108654
K 9.867564194530244 13.789362216476691 7.880520660181429
K 3.458759826408205 7.930008837664956 10.116814157326932
K 10.236064396110027 10.584287529669586 10.89736868651655
K 5.910095310121654 11.759800515713689 9.077889946864396
K 12.837058318587665 13.958830575970541 11.661264289920826
K 8.41601807095051 14.246583362033792 12.249090940087811
K 7.67702465908631 7.2154918757080475 9.711462137509127
K 14.19855874776893 9.721183179904989 12.614147135366535
K 9.463277476564274 3.475860753771225 10.84773729245401
K 12.469309465597139 6.67470645586407 9.53373232258147
K 5.986665245406398 5.365201359180592 13.057831781704056
K 10.810919690055142 11.487402151777477 15.002162997486703
K 6.525841477559184 9.906473965634316 13.127509645523414
K 10.279581685406901 7.122142528254976 13.505845126319988
