26
Energy = -20.59578528 eV
K 6.710687245638625 8.00175745718186 3.334445973113229
K 14.36556625622661 8.806667889512434 4.403404680343355
K 10.6521936538322 11.106103594215007 2.4465204888769376
K 8.031648310972905 4.016420028143739 6.267947147060204
K 10.023481666750916 15.261492455777791 4.3965951102053
K 7.612849214890426 11.762283541196044 5.550824836076682
K 9.140017530253331 14.513246547926203 8.797166480046425
K 6.4407463400790155 7.827047977985145 7.771577269255864
K 10.383067217734734 7.91372890847322 5.623143104149431
K 13.410714702536369 8.242242244471582 8.909638821258056
K 12.529495085164541 4.281180903401107 6.8670339757955965
K 3.7016265782429216 5.485378344526353 5.584851911769411
K 3.313750037578848 9.962303055773397 5.86274595028906
K 9.469144189814989 10.101717989941312 9.52320648593978
K 9.780287648648224 5.649349933128291 10.029384602132982
K 5.314411599370058 11.685928421181188 9.665016082903554
K 12.236310710517852 12.058876276263476 6.469180974477375
K 8.971128669456286 1.4641001189294054 10.010229264949063
K 5.434907092052326 4.082741058198575 10.15987491071559
K 2.6393088323743963 7.716159275293334 10.115286480249873
K 6.484253946435609 8.055578614170031 12.460339173136045
K 12.674356585604807 11.950898407984496 11.540503697605729
K 8.433118290852352 12.270748581518719 13.021225863563812
K 7.891654235603681 4.120168080668594 13.822866566869898
K 3.390408533634813 5.273354521179686 13.888020470552084
K 10.822183186791097 8.247843134016415 13.336287039722071
