26
Energy = -20.87928189
K 5.928050471686317 10.527519762925538 1.5916481536030307
K 2.403311765858907 5.483960452134539 5.535978306696619
K 10.522233389831285 1.1586514070508618 5.870887589837877
K 3.3179253728720597 3.1139757157610877 9.379408824278654
K 9.909150460380493 7.721642173302068 9.588064700377819
K 5.902210763650346 6.435002072792607 2.9015707913214497
K 13.259960618452828 8.43199915912194 5.864811433341452
K 12.954546412190071 4.432696971617156 8.104118398061296
K 12.760115744576447 8.109732868373145 5.882679657539239
K 5.881838113202138 6.500441458650998 7.571881109728265
K 8.27230219207912 3.0489768228249505 9.443251166588709
K 1.8498993707867792 7.7250683975941925 9.583551183236468
K 9.352970954371802 5.362945115671699 5.601992397490961
K 12.779455041672788 4.366083076615231 8.373092786593189
K 8.268583386393741 9.925505396554131 5.538258657026913
K 5.8795281898675515 6.265207060528412 11.836344841390671
K 1.7803477628219297 8.0708196078155 1.8817314812155874
K 5.849069094389399 2.2016792355232244 5.535510061763694
K 1.1197757228909282 1.2743916884680604 5.5677232131831955
K 12.92698503522593 4.602614379961364 3.289153428643394
K 8.477430311997967 2.953343276438176 1.8593645201454745
K 3.295351814814642 3.010629007365674 1.8240695106474087
K 3.663114204049908 9.965826010588595 5.546952418446701
K 5.891558091817853 10.316059421981153 9.592740405949513
K 10.145189477642953 7.763821252895103 1.9723698672377121
K 12.92698503522593 4.323782445821258 3.355219334030432
