26
Energy = -20.40384608 eV
K 5.636872393682577 8.704358696013152 1.5407998387951412
K 4.37472468932591 5.812710814031912 4.7729383889268275
K 8.883996245427307 6.007943135763281 4.114950676201448
K 2.392248060009822 10.072090726122518 4.414746728965752
K 9.633761822396439 10.72777995233978 3.0068348992762455
K 13.344733273741111 11.781562018620246 6.247796044005926
K 5.733457271551691 12.964928017672507 3.205826802182929
K 6.452752885017891 9.512982975820075 5.684836203168172
K 11.46564958301913 4.571411460336642 7.692692994633165
K 7.602885585293096 2.363882195586245 6.569057804947893
K 10.617755808854401 8.769258490212113 6.973164976069203
K 8.999433165644282 13.088516575456593 6.879587235524097
K 4.207335475864264 12.634552811815563 7.684131398377043
K 7.145333026746306 6.029907426349549 8.37911833164743
K 3.4692165829422934 8.282106632089443 8.90747900816048
K 14.315560638253551 8.156996019770785 9.516859562027044
K 7.442586315778042 10.402921664615972 9.914222646244719
K 11.551969825061532 11.672716215884472 10.453074590910445
K 10.370758857792385 7.3166908195092395 11.13920878073214
K 9.12217492615195 3.1761641219834016 11.334441807941333
K 4.26884542552756 11.059232633776952 12.459130919904794
K 13.374000129134124 4.428237273811778 12.233674624922308
K 6.054491014749795 6.841523573592444 12.486893067710321
K 13.38775151582119 8.667118988094861 13.9049546260488
K 8.883246857427002 10.017968268439303 14.177975878622862
K 10.100707063759614 5.768686931264458 15.137850603026582
