26
Energy = -20.62766543 eV
K 12.281192458863513 7.398690376198066 4.411348668136682
K 4.920766732962475 10.592937899548282 2.897463806275253
K 2.9818150463508952 6.641189937250891 3.0313109649338035
K 7.568130100090566 6.796738704780526 2.9199821693735184
K 1.6281871471699692 10.365172400891604 5.880328496848199
K 12.299523180824044 8.845308226304532 8.663865462691767
K 9.181856933599713 10.429201164387193 5.361739641005173
K 13.31067585363548 11.895937412889012 5.784416330769972
K 5.347486368815932 8.188872508518433 6.423881063272129
K 5.778195504034288 12.518650014405432 7.429743167534092
K 5.46282602126774 3.8275046055992155 5.8499572782975555
K 1.7123510483731148 6.110054486950174 7.167513080629224
K 9.290631012586422 5.9532064847430535 7.002567739566911
K 6.783515389608847 12.590501145563056 11.92500768291114
K 5.9440678153924855 5.5281263797475235 10.169321404709427
K 13.290285549402025 4.659625126220157 8.80066704435959
K 10.28317560655134 5.890738770632547 11.665108676001033
K 8.107544554876872 9.314210225156785 9.603211440657677
K 10.277463474846396 12.980230831345082 8.902409142640224
K 14.732189789575404 11.80541422663254 10.475533957651239
K 14.490959424715738 7.454006785832957 12.246421567233734
K 3.7619861211323595 9.540156950546509 10.397717386215255
K 8.895154877397847 2.3152498283559964 8.969222508899973
K 11.119157512454908 10.620828611536657 12.791922489806334
K 7.091913119195548 8.353372080564958 13.647950362513258
K 11.471657378816793 7.396782837939869 15.594096489606875
