26
Energy = -20.78614026 eV
K 6.536013564265697 9.975206026955984 1.9230958399943874
K 8.867564368886171 6.906683200776788 3.927009513056485
K 11.07058110772876 9.579210966306883 1.0382694216262336
K 9.18698618507189 13.704482381326155 1.2353140078928708
K 4.271072892449509 6.163561938328474 4.28432804850999
K 12.967084509592045 8.805717853977756 5.004118127628428
K 5.428827231497828 9.588039409764043 6.57128880123818
K 13.034218823638303 13.010355379653063 3.5273153551933643
K 9.148684315735697 11.835723377002864 5.06650371063665
K 9.606737586207286 8.644838417847588 8.026747552506997
K 11.455929734715836 4.643601866574643 7.323586187497462
K 6.906818318648894 4.793733921586331 7.66659304095228
K 2.9743411064583167 6.563643927248986 9.108693331248135
K 8.85554775857604 1.6812899690341767 10.027063728492289
K 12.26120054970531 12.243629157758738 8.32129222810326
K 3.4513991945885394 11.0702799914573 10.34744070912532
K 7.705950681066385 12.531239184086617 9.594113449165285
K 13.739006597252997 8.06655515153972 9.598363606656463
K 6.6574307313540055 8.092167989409326 10.956735327192414
K 5.449527389363655 3.9342531554429305 12.17990777284648
K 10.360182328282333 5.749706584703016 11.572731864022145
K 3.2900735353202437 7.695473076322899 13.757348029025579
K 10.63005637031147 10.312490323414409 12.258383090994313
K 6.249395284610277 11.382242483898654 13.978618777428778
K 9.164488728424402 2.777162301508965 14.480773232383887
K 7.686555828919492 7.204386686744883 15.180039969254441
