26
Energy = -19.70835077 eV
K 3.1779942253989906 10.131848670922956 6.957304576735208
K 8.0514980927975 5.779705010297217 13.045005958808146
K 7.2810428902955655 10.979587735161727 7.7624209751307305
K 5.389860015475528 3.2606066249916843 3.9549843944883434
K 12.44652434954135 5.787924130318971 2.4258902323666507
K 10.091014792593574 13.17517796528039 5.432271847698256
K 9.154264991597328 7.088435766510426 8.846808903313836
K 10.36080443943551 8.68861501755776 4.930307503868922
K 9.048298030244116 13.998368067151318 10.346340633148495
K 2.5083411539069473 5.4824479344802315 7.317899509514825
K 4.884370419978014 7.825683878765404 10.404460819701875
K 10.859662295187203 3.3861380952960216 9.996047739867045
K 6.773650961472015 10.629103372435429 3.278847982494106
K 5.331740269343891 9.234293977265716 14.762135024852148
K 4.855162361096249 12.13482132074311 11.564612941005919
K 10.374737021861817 9.652651408618324 0.7756518907924208
K 8.704247365156409 10.045217915089356 12.040598892979874
K 8.002912332819243 6.097332687697545 1.758864390305643
K 13.201631045329089 6.354150018975371 7.418123312828678
K 6.371758470127362 3.770159619021162 8.789283868263501
K 9.663864669502427 8.849957246230364 15.99269938747547
K 12.271461216409579 7.285518034246382 11.897770925040462
K 9.675865641914289 4.073848276115567 5.403759373626999
K 7.9963604544174185 13.037399293578272 14.858373284192337
K 6.118168189250761 7.093030147833082 5.759348467947244
K 11.834453305734213 10.587666786302256 8.709876164438555
