27
Energy = -15.45543461 eV
K 8.999893307784003 11.585381281790546 2.015328613016206
K 5.151787142025842 8.754780584342333 3.519216815046938
K 9.887086338169043 7.329008553823793 3.9514080520605694
K 3.8136445505861745 10.058325777938684 7.643677299718279
K 12.355229297038335 11.191161083363701 5.036705838332356
K 5.328583628205533 13.354330071322005 4.18546310156208
K 13.75670861868341 6.202822024080008 5.94402024390222
K 9.46284807050208 14.835305210397884 5.179347362725057
K 8.079744204098017 10.738370950797044 6.1298714834026615
K 2.632279839027802 5.670983239469473 6.936254203642494
K 10.042779955555778 3.813452181141046 7.06900717645825
K 6.71869686847619 6.593052572871738 7.012320648612217
K 13.370630519788074 15.325893607381737 6.779434088464714
K 12.790189343570162 4.838947078002587 10.544370064799262
K 10.974983825802553 8.237894892665613 8.227901704299171
K 5.49019791682704 2.8329718623574554 9.345902527316447
K 10.974488837284165 12.560416788978722 9.335320697417297
K 7.235823737804802 9.84249671062793 10.333289568976928
K 4.14212422119692 6.819221833220774 10.970687701166538
K 6.603751187003664 13.928392666865214 8.726091980497614
K 8.511637800371316 5.673031222479108 10.897618429557772
K 9.712765278322358 1.5868232412345027 11.36976711286889
K 8.384311371745213 12.598110482365216 13.167008235359093
K 11.252722847720355 9.045431349704545 12.46241609859635
K 6.2023190138333195 3.4855190856381997 13.810038490511355
K 7.203409706001418 7.974351743000334 14.382452779996981
K 10.47516798733947 4.677329318902311 14.578885096455284
