27
Energy = -21.55344341 eV
K 8.698838874530216 10.004223385695907 0.6643216095361928
K 12.085757353332097 11.718103064732622 3.0725814002197502
K 8.19575586704264 13.96333466747778 3.247864470792481
K 11.320324608934419 7.117413192539184 3.162008641827963
K 4.933598726990672 10.774698924229424 2.8964369907311753
K 6.429603092163417 6.464265253686574 3.3587808455264803
K 8.583395972802748 10.014649973695562 4.926281643884018
K 10.673715865193524 13.35246505267778 7.145092830520717
K 12.541976222180923 9.119498437333812 7.093968042834104
K 9.013316715754408 6.011065208865713 6.896115492116978
K 5.845928589651648 12.730607225322844 7.226239779637513
K 4.787877425086871 8.302827139788864 7.105471883071778
K 12.865829078964019 4.514949918222215 7.034140784586945
K 7.007190697684545 6.410496536260806 10.832890753755505
K 5.3858479939160615 3.837322499417317 7.554914982757212
K 9.487832960482633 2.883154216660007 10.20424214515747
K 2.796989855396152 6.033887121079977 10.643081988409618
K 8.678816224775987 9.869698148757697 9.15928770589778
K 4.753208461984302 10.310851284469061 11.128418614479115
K 8.118220092779767 13.48443681736636 11.189923566358322
K 5.50143252362786 2.8616255552646623 12.550202712008241
K 5.079052220543699 6.957584067522843 14.670170361296778
K 12.197354405783749 11.133225280737358 11.267995919124369
K 11.596876160052464 6.731399840050141 10.834454819158925
K 9.225978483232419 4.907736282353806 14.38529095128212
K 8.623323434775662 9.465705614819756 13.707856294588002
K 12.494238833945795 7.9470560325797495 14.964245512048612
