27
Energy = -21.54995759 eV
K 9.116266138800361 13.608202155490343 2.730532745623699
K 6.132509973424433 9.50101744095674 2.5598708346022057
K 10.853072992127899 9.446473769676166 2.835120138587103
K 3.5082229897595183 5.742632485274195 4.377641385371658
K 15.083700027167719 9.12995873251257 5.011068079159214
K 12.511463118255971 12.846268194447696 5.76414260270255
K 7.965133374181441 6.47204096076979 5.3092715741009755
K 12.413212624405851 5.336152941925327 4.9305619603880615
K 7.95561486193863 11.246896079853517 6.127719771688646
K 9.097298854602542 15.33054241263032 7.23300645434974
K 4.03833259870959 9.150181276985744 6.909637944333123
K 11.333362710695477 8.750274464788193 7.350085028419969
K 5.390652799395519 4.588852892677942 8.54556807702818
K 1.2210569060585037 5.742206101815214 8.657040195955297
K 14.576203085915425 6.118962864043693 8.788748546056956
K 6.518172911541121 1.2996552984879892 11.362116700742762
K 7.6469338577542105 8.34616467721297 9.506614693871338
K 14.736911597333554 10.62254225569336 9.418191445595822
K 5.939631434345222 12.494121704484412 9.906183784334523
K 10.406923435836527 12.13968684881544 10.283267494231799
K 10.077853238028068 4.448261168555348 9.067894988496937
K 3.8001232608811715 8.315090902148125 11.557760270071885
K 3.097934059160905 3.913553486253313 12.501846231645832
K 11.567961961088807 7.99448520136364 11.916569733764117
K 7.605155125073488 5.359987375305543 12.880483868593872
K 7.645226201681198 10.036808193813018 13.60663183245256
K 4.60786634264368 6.865776594826207 15.709220098637147
