27
Energy = -20.77328596 eV
K 8.22947273974932 12.454889237013125 4.2212990899418195
K 11.674349366015798 8.911972577575465 3.241430457115769
K 3.8005941386582407 11.226902160377469 3.2076649988589545
K 7.1563616662374265 7.617150245070083 3.451788655832551
K 2.899133165566897 7.268105596180062 5.157217575062527
K 5.589875393662424 10.083068522754848 6.845884917397088
K 6.582587358027295 5.2071642903553 7.255278032151562
K 4.677222465015985 14.343232486742808 6.530085105221707
K 9.753613218377009 8.986007627483364 6.814964969316958
K 14.169294285821115 7.855085033865879 7.471180114128536
K 10.708128931971734 4.8629117140288125 5.408013150679319
K 12.478006160577557 12.189329669602692 6.363597313777379
K 1.4851603742471822 11.024487618101242 7.250661533543948
K 13.966794685227725 3.3359839356562295 8.796601047038632
K 9.655929438520419 2.040328583290377 8.883555651388486
K 4.581804858633954 12.198221232607036 10.584560363381684
K 10.85116097506294 6.017089818467507 9.733952961045508
K 3.48238063822156 7.39793078575677 9.76185500286137
K 8.581014858861478 13.075485436954652 8.686222985626475
K 12.06472084165392 10.383278618060297 10.603572511480229
K 7.6780609092030865 8.830137467163794 10.391471745481066
K 14.57041629883284 6.711609933016334 11.919447630870124
K 7.079824029369761 4.614429351228681 11.740109180911515
K 11.612054634207556 3.2120623310567695 12.801154724454646
K 8.54816998428254 11.930267541778067 13.13746701909876
K 10.491380674999295 7.64417313384811 13.818378256168454
K 5.550084292929244 8.496291435898529 13.840181391100227
