27
Energy = -18.6860275 eV
K 8.21230783052203 7.242454601599164 1.2840267678015846
K 12.005750962572822 5.0643091101315685 2.1388554554765715
K 11.508816454539064 9.0487512653055 3.967759049966658
K 7.660975484993955 2.945025432125276 2.0509750420972277
K 6.9515229515771635 9.726669485232314 5.187230226361252
K 4.585742969169095 6.163843575966844 4.052347678197598
K 8.775629248426341 5.509220132015544 5.213466010371283
K 9.9948013480186 12.7009548456359 7.03208977288498
K 10.89427690206887 1.8995815842249113 4.994062918856244
K 13.194892685881683 5.625183663876069 6.664172954833779
K 5.391410970660652 13.679841518979313 6.833936687072158
K 3.1175215400959044 9.611275259653352 7.488110617859384
K 13.844203222811343 10.304175280109659 7.8913699412386435
K 10.05603609821246 8.423787513143735 8.160212501848456
K 5.73675716535044 6.285454680696769 8.46344516565014
K 9.617161084744652 4.261373471300626 9.487005707747198
K 6.862378011243811 10.78518250674845 9.546489784226587
K 7.891074614798612 14.904483626342776 10.671900824501682
K 3.5977519113496443 13.094219652109745 11.012192463284132
K 11.00274264227596 11.693255984152144 11.370958932923147
K 8.566921799626247 7.701031947558247 12.185029233125578
K 4.119342696192747 8.63973262253675 12.10421301433351
K 5.881112342902924 4.4187650715066304 12.439876002165224
K 7.072266391163214 11.84278305694616 13.862440182704905
K 12.821855965979738 7.372657989633278 11.267690982075525
K 10.794421461061976 9.692614653292122 15.321981673465443
K 6.42696509560079 7.948011321017526 15.89280026077166
