27
Energy = -21.37504674 eV
K 4.112985699300863 7.813232636056556 3.001713949288401
K 12.866471310552122 9.295432457131483 2.735443189076071
K 12.475733357146062 5.017457112804461 4.354247758524806
K 8.533344811838163 7.958388134806584 4.114352621055824
K 16.07636492825382 7.389792809296757 5.426644125813643
K 5.55583369537968 11.129229407825495 5.486212593937062
K 10.165935787925639 12.194487125116297 5.417460117003489
K 14.71416252232243 11.78229340576069 6.020409373093438
K 1.386565409992595 8.750294338500522 6.604146341034218
K 5.152892142762999 6.740975700658501 7.061971666669947
K 12.109372408289182 8.46375885218428 6.897240626752111
K 9.077487462624577 4.965611045001522 7.664443624105973
K 15.431413913807518 8.927661199149947 9.547679272739867
K 2.2168739881731576 6.626690070328454 10.528635062639045
K 5.378638542738159 3.2385064243775794 9.849271485161069
K 13.35193935528451 4.813904885301976 8.857319452543827
K 4.1384870869919475 10.569949875883129 9.766020857508389
K 7.4346320234523615 13.738969630710907 9.01482016992518
K 8.266420707609699 9.538255372407413 8.458735268840536
K 11.674169681285104 12.142450795539036 9.735806206173987
K 9.648004044929372 3.7267649928201267 11.768488769898147
K 11.226833534064124 7.89424884636855 11.498242112532955
K 4.214791284474782 4.773002742337819 13.975380763396242
K 4.565228905344093 13.670560298619316 12.7826648184988
K 8.195153183261128 11.145300673640763 12.597656325963987
K 3.9215781389969213 9.34660304361591 14.026114298220532
K 6.796830265280609 7.034322315837546 11.497023341684068
