27
Energy = -21.37509287 eV
K 10.755091577233 11.155152256344811 2.360376157562259
K 7.85486498096862 7.715719727019103 1.1927280661688264
K 9.193550242351158 3.5020323959868565 2.1885989833593436
K 4.78859205250762 4.708807598150916 1.3289859263662132
K 11.209588921275301 6.909521298504876 4.1416714487210085
K 3.8763532321552634 8.490759767748003 3.724676313489825
K 7.722270781847011 9.907117552139637 5.059695933998808
K 9.403042731917944 14.010177924265085 5.772510215048964
K 12.108848551536983 10.694298306853053 6.820841611491216
K 6.730802955318652 5.371204696762373 5.245768961939058
K 4.472917800580916 12.228850740942994 6.901843179504929
K 10.393244097710665 3.385887181577102 6.976983023240502
K 13.57482365234865 6.4784855530998415 8.175928804542579
K 4.798132501894525 8.189027251231279 8.35742570911377
K 6.786025362177022 4.275780338187236 9.991661703863311
K 8.206404990906087 11.655988454182241 9.329327441411891
K 11.777822330828487 13.830882398969505 10.296794993236084
K 10.88921404848639 4.988409599943041 11.688828324862982
K 9.398257412583604 7.415895166301187 8.13343406775709
K 12.078726395875792 9.519867520144562 11.38749451894694
K 7.803941427783317 8.21401485539541 11.981057777674444
K 4.627331079008871 11.255947764717456 11.841566174278448
K 3.7562603048868897 6.837860768663755 12.560986157085232
K 7.298412724424507 4.929866158094546 14.672029085000037
K 9.02385293379491 12.093844381730376 13.740392510769155
K 10.439964838094593 7.970487336999837 15.396985196527778
K 6.062971233998574 9.295422168539018 15.76271687653414
