27
Energy = -21.53903491 eV
K 11.98895325941434 10.341545001510424 1.2448453426023647
K 7.95882454910235 13.14831016597831 2.1591475471968207
K 7.8273830148310575 8.69422917321218 1.286628013613924
K 11.91333641756242 13.720926975470025 4.3257234254268875
K 11.349534119447862 6.110288182882537 3.7433728330398033
K 5.024619822063068 10.63041699031252 4.579491735795026
K 14.079595298670291 9.650361110858421 5.374579486002092
K 9.686659780795777 10.016979372233486 5.007070781579985
K 7.07073069696782 6.316173389770673 5.3298255339887435
K 4.66463672202898 3.1080954741983295 7.4386549961652655
K 7.877726644941882 13.833042748026374 6.841190888473558
K 3.372484711988457 7.555257668288159 7.85394371295368
K 9.554548741533734 3.0324949936512677 7.271387671548174
K 7.509036278260527 9.618276769416477 8.528556635774791
K 11.627909780966467 11.51660467027507 8.89583878189575
K 7.2819037105798365 5.781039782845608 9.900618666639128
K 3.979542022480239 12.130505916685463 8.84915723717455
K 6.832577617204464 1.6511052961479955 11.286043472615267
K 11.735155538749156 6.878769107971108 8.224966741505849
K 10.803872231018843 4.031270587579398 11.880389162883127
K 3.1799578107951865 4.572113662685024 11.500047777200393
K 10.264817627058642 8.627502140474641 12.168235904749588
K 7.817039760697721 12.519641395556173 11.694316016146189
K 4.8062266615814115 8.892590968196796 12.18991752891267
K 6.789683675572227 5.2165020037570144 14.310980127819816
K 10.814229957635847 6.221403252794176 15.891328881654108
K 7.562796881626313 9.558336532796906 15.597524430217385
