27
Energy = -21.55307102 eV
K 10.5978856700797 5.1930465207583065 1.873526638707501
K 12.43698630779659 9.422512492715503 2.921039089048309
K 7.503800126045631 8.621164533964745 2.6205560293034345
K 14.262702950686114 5.620189342181531 4.820191934498071
K 4.511638217551543 11.640674881336166 5.029763297143955
K 10.91686162666582 2.5545820877556813 5.6125947638005815
K 6.749475390450885 4.175662816450529 4.803012745397964
K 2.5191945022605657 9.803455527992382 9.388651413229493
K 10.14878792396441 6.96792936996687 5.829932580627782
K 13.165452460157743 13.424919125606264 5.237121784897031
K 13.512326541287969 9.529337761950961 7.449968734398599
K 9.082363217347588 11.62953111829584 5.675161996337907
K 5.939907414237578 8.084261264447102 6.91919165512465
K 3.3475846786367924 5.167612898594044 8.84394520195245
K 6.348172552413423 12.12080384821936 9.393036184372937
K 12.460357244970236 5.294691791453956 9.34819556512337
K 9.439669075898388 8.921552806605503 9.471608446308196
K 7.11789966627625 14.914731445406067 12.78839558960665
K 12.84124825077019 9.289723877779627 12.060172996880052
K 10.891104243132197 13.093018928312837 9.749438498950806
K 1.8837836080450696 7.155196287204977 13.167059577412711
K 7.9221354358704925 4.276887885505792 9.202388620913414
K 4.866201274106747 3.712380502079851 12.801471349981943
K 8.67609232641007 10.855010890016507 13.55205588614734
K 5.904442848538669 7.85738424524106 11.657969218522206
K 4.065456898062097 11.502120114068173 13.520352180336616
K 9.71784190284499 6.000989990597802 13.092570375482813
