27
Energy = -21.51241234 eV
K 6.0322036671584955 10.112247791821925 2.876973913949899
K 8.559609160345179 6.047944043476711 3.0607970629643035
K 10.54182748436624 10.012308606642545 4.498494104190696
K 13.538419445173702 6.258772670548189 3.7798966185608163
K 6.950491212959713 3.6147913199874497 6.58422825380878
K 7.003987870328695 12.874963223037295 6.600030716384342
K 3.8156118967523938 6.223243844441039 4.349802213900547
K 11.741477023722808 13.425426166914972 7.673732182988165
K 11.382144991462818 2.496461871209915 5.120852264349845
K 6.610697487836503 8.303018779852156 6.640540618373862
K 14.148176314060443 9.134485246977157 7.661098061040987
K 10.635146686421386 6.2311049488080155 7.108523992271896
K 2.8342383480833795 10.91065367814036 6.610059340679693
K 9.709818272306594 9.924087500661663 9.174668272897186
K 2.9219607373754632 6.976116232358555 8.939242279802382
K 14.611111198537076 4.497259767724892 7.9329527147493
K 8.811565068785743 9.317046364408505 13.518491579619704
K 7.30617490223931 6.037395518401926 10.448755689076044
K 12.317879461340741 6.74615708768174 11.343997241851099
K 10.69770909638208 2.700897651125438 9.800326276496966
K 5.493756427580328 10.600250585701112 10.533694984378096
K 12.695804129042077 11.387951567372863 11.7355249335848
K 3.719197524422368 14.37059873697291 9.536542671960076
K 8.389619949829072 13.943231983696526 10.9628742876695
K 1.2384858775567749 10.63105014355795 11.170710301924778
K 9.1669928448376 4.751585529377924 14.007387702330186
K 4.351968744987135 7.697024962994024 13.555877544090475
