27
Energy = -21.43208338 eV
K 9.389418723438672 9.771933277362459 1.511971631939513
K 11.862881086403943 5.938338208853215 2.004937423732037
K 7.472681484042233 5.92791813962736 3.1458882691191556
K 13.614275206936387 10.065008209689633 3.29645148478881
K 6.255728775497141 10.216352803335775 4.993046380218982
K 3.4286792107663935 6.645391344572802 5.7808180394154824
K 10.494602639778968 8.234460707422892 5.40355533918282
K 9.987789168713078 12.659425024763992 5.526047929874137
K 10.557557801616175 3.8497576579728325 5.955396647439133
K 14.310456741206176 6.257493781002223 5.818108955092863
K 5.933840106152189 2.8711556472673547 6.479779841877412
K 7.24249081070886 6.539999285400872 7.705168676345637
K 6.018413836439423 13.44979366830615 8.385802116971652
K 13.09775932564275 10.47412171196838 8.165974728910163
K 4.153552887067751 9.515952775648936 9.298739003824119
K 11.593597734918937 6.467760651233376 9.716039496621681
K 2.538412202226008 12.647756710556646 11.725951974918846
K 3.817371004166742 5.246213536811765 10.386387844131733
K 10.454631315223448 13.724264649415487 10.023168348497423
K 8.519893514071471 3.3191558917940944 10.334050403416327
K 8.718678795844204 10.17707055726038 8.94536173955993
K 7.259481842412394 7.285677284334779 12.03860597591844
K 10.901117183231271 9.915613489078318 12.660402364052478
K 3.384038535035843 8.580003063473802 13.646849607372454
K 10.52095142962842 5.549580966055451 14.13985535879924
K 6.7026074040485915 11.728613430654818 12.726944981706113
K 7.545553152202163 8.717649443555656 15.961157353692885
