27
Energy = -21.68379578 eV
K 9.270423491056382 5.751760358416629 5.203340813635852
K 1.3463483562629226 1.8743068316299898 3.4164319046760077
K 5.722460756919344 3.460201549741994 3.500982401371208
K 12.698815335019956 3.483073636573844 6.806072944008694
K 12.89796096576342 7.9766567933712205 7.16178663136421
K 2.199698627418243 5.75189068616133 5.371624684387766
K 1.738385472404422 5.731810695413677 9.983982610841602
K 5.767798140366783 5.73611725714409 7.605174549869391
K 8.334224038018494 5.760575060570433 0.6919637748870443
K 3.3842282526055105 9.615205893609286 7.6120511034701455
K 5.77023539493252 3.3855353155587165 11.210630254607073
K 9.89850835776462 5.721525268297509 9.782667542968476
K 8.186018403390204 9.606413588406058 7.553160012697764
K 12.710995134493206 7.966328125801883 6.8183042069613675
K 1.3375516089902355 9.709004637705803 3.5562838551691978
K 10.130096411340544 9.710593614313499 3.3578542643714444
K 3.3539763728894214 1.799710175730282 7.535518929501369
K 2.9508978732813707 5.767405322867777 0.8683674607356973
K 5.869729684297915 7.931404444871202 11.32227949234287
K 5.75024760464361 12.210710318218652 4.634286080364334
K 5.731428087101759 8.133650219952079 3.5229003145671673
K 5.741504422023778 13.43538417944132 4.30068593828406
K 8.154534166725444 1.8230912943000683 7.420582745681462
K 10.123352734375 1.8551721112097355 3.223933838291692
K 12.702567937741756 5.755411783454234 2.6261946646805203
K 12.710995134493206 5.764182977307052 2.9737556245760683
K 12.899489257588568 3.496529790774608 7.068425240997944
