27
Energy = -21.7362633 eV
K 9.217677545441633 9.946689086399315 3.824684945920123
K 4.639771501353227 10.360328312456534 3.5718365100142813
K 6.235338719887063 6.2421382460248305 4.689878619999269
K 13.631363994501658 8.910868826074744 5.816374848653384
K 10.72972580971422 5.495199577808858 3.792628565815107
K 12.423062179723594 13.332688499579788 4.722624068746955
K 8.469875774675415 2.799857255179799 7.131100490639582
K 5.895032334089792 10.306914447084242 7.542784986156572
K 2.4265073805406376 7.309007671203619 6.987901671572969
K 9.593646463646897 7.320885508074634 7.552497512251574
K 12.931933728388557 4.552349209430898 7.72603259438798
K 7.820731801621474 14.023691786774657 5.489663666100278
K 3.796367454873032 2.858378346720453 7.0120018097650725
K 10.344329743857452 11.428078940350067 8.073660932718466
K 11.068341344518027 15.602107108513126 8.573437315819834
K 14.627445841146352 12.559793259944534 8.627413365101136
K 5.9499104683883255 5.965969620852441 9.255444827702648
K 7.007293413744192 13.584310366443495 10.336055686382798
K 12.926663841763386 8.459170303860049 10.455567504717408
K 5.879826073088066 1.9279808387418245 11.054405522339914
K 3.6255983580345146 9.38146809657892 11.298340143542978
K 2.218284004891463 4.78731086188487 11.058205857083301
K 9.917447407383209 4.757874718954274 11.35910992230949
K 8.093992765139427 9.373731278236836 11.468085123424517
K 11.480432724554248 12.550530623978 12.17624863735121
K 6.08196600162996 5.820870704631316 13.682447893193277
K 10.715619021746743 8.089992202560243 14.469752676632236
