27
Energy = -20.56720391 eV
K 11.751511113368503 7.244495419692331 4.416795825527409
K 7.552231384310826 5.556439327178318 3.8399754135827044
K 8.440084489702857 10.514255819983589 4.1614151516854765
K 4.911373737599261 13.441414154135336 5.321756101947552
K 10.963181846036566 2.8170941584242697 3.0066570890327275
K 11.730138740712558 11.068369005012364 7.193475749193732
K 14.339131902704308 3.8184171633222705 5.761217877675189
K 4.579021933380223 8.848485992170119 6.206027204766932
K 8.669917684360753 7.683852255131993 7.489979764483153
K 5.578648302744423 4.583877649702698 7.876837569745003
K 7.283487788452468 11.697480377521208 8.368050286230766
K 7.384295556184329 1.2037612929578652 5.202348364519754
K 9.111268931143863 14.877167144549528 6.192344075708987
K 10.342014159086593 3.5036910168032662 7.296562563848637
K 7.4550797893856435 1.1307920255803172 9.836338095081327
K 13.647927327801419 11.160713934176318 11.246854712460085
K 10.151894341579535 14.172672272622966 10.65825888978739
K 5.978655839048074 15.777279824717013 9.296207482991067
K 9.776985403750048 9.579237038565374 11.222857007308189
K 9.024344495044891 5.2916988276526595 11.243657682973874
K 3.138269798020635 12.330348357906551 9.358169813002522
K 5.288468854398432 8.298219440383164 10.546826416841979
K 12.875370525959315 7.109071881156721 8.905819951562174
K 5.081117633396407 4.261585026045905 12.407135315787931
K 6.279618442706306 12.46745233747196 12.660476352635419
K 10.219077500612324 12.087606504645189 14.629151162174633
K 7.2436152330933785 8.271254507074122 14.451536834029689
