27
Energy = -21.64720155 eV
K 9.194336903317083 4.117557446695064 2.1289353137962403
K 7.2240847732435425 8.347065981952614 3.249461038317471
K 5.109754870971153 4.2863389987845535 3.9178872350973233
K 10.11373052585463 11.799460629970726 3.5612967161166003
K 6.6293900282786495 11.592058789125558 6.380902885490304
K 11.819185928059833 7.434289443568087 3.6320794070292868
K 8.13235111687001 1.343531796078675 5.787304713023285
K 4.038670004516667 7.971975910551769 6.512670651732313
K 8.747858219157855 5.63137770295507 6.137784880625067
K 12.221863528526745 3.0804856712450808 5.540304651841999
K 10.582653559698194 9.567160724234451 7.200828027367375
K 5.469196577216573 3.672570819221396 8.438166182569498
K 10.492580752398966 14.04164759739181 7.528348546958936
K 13.3096656440505 6.557245406256093 8.47747325887446
K 10.160618629812403 3.4804841614911863 9.564308768701625
K 6.504217184967543 15.187852500029027 9.62300945412023
K 7.233723878991775 7.742862964436467 9.401378303228457
K 13.000613854807678 10.971967765325646 10.638242085915042
K 8.62680647941433 11.534844520806553 10.63690541083458
K 4.2019435565113215 11.281806990789837 10.137279331334401
K 10.481785432958889 15.116062828422328 11.946623786574948
K 3.3573389219143595 6.871522228960935 10.989348019930427
K 10.821134337903803 7.4120795481305635 12.02684374990855
K 7.182930768007251 4.801158819262866 12.584787009270618
K 6.342002572489153 13.539581522931378 13.723313057045239
K 6.516069991617314 9.095167802291348 13.724112690584729
K 10.488458171734582 11.524807642381536 14.513371037000605
