27
Energy = -21.54196758 eV
K 4.738510273155108 6.618031635560786 2.458201892167339
K 5.087650941074437 11.098197340235407 3.7674030091015034
K 9.192880019894718 8.4454749938171 3.2707180081240415
K 8.064943065503774 4.045078910436602 4.749659336991803
K 12.589509903682876 5.493490327881268 4.438323002341497
K 5.866743979089811 14.819997417337726 6.621295901372821
K 8.800636861389071 11.471894504885658 6.600036193251522
K 3.4493154641361716 4.0524107981621915 6.0154437901481215
K 13.294172746344584 9.886657627913733 5.941118583156831
K 1.75062496032805 8.417110158048153 5.487234130363602
K 5.977943563207015 7.707143343088666 6.400199117435938
K 11.490495484117888 3.0483562718357695 8.4633929515966
K 10.198164205251913 7.001953084425869 7.568127049485852
K 15.605718974408898 11.444292282175404 10.004389720618844
K 3.197423038293505 6.772859989498847 9.828003278180383
K 7.398320947972188 8.73712035628107 10.325325649858216
K 6.985440345952003 4.069170840575124 9.312190846591832
K 14.393917610882239 6.941783268750987 9.5310717495132
K 4.054044227253381 11.287031535960443 8.440692247472535
K 11.494326875601216 10.345924347750774 10.117764778378788
K 10.731239210300245 5.932178025728246 12.148135969177629
K 8.01354193476283 13.260559757412699 10.762965650542755
K 12.585919936174092 13.330474096480485 12.993606626274971
K 4.704185888893883 10.367627797933599 12.98222233968458
K 6.257308993156982 5.99746509735478 13.519408051960008
K 14.011357372396196 8.920734648756353 13.637642087729136
K 9.544761534165959 9.966079899101803 14.094526395868865
