27
Energy = -21.50971955 eV
K 9.919311441031052 10.721952792082293 2.1506411642611485
K 10.34691550904311 6.078828747154509 3.7044634817862185
K 5.854838199833204 9.232974057694532 3.617066065498715
K 7.105256461881379 13.52324134601047 5.115896367966515
K 6.967565829655285 6.148028402392617 6.8379476188330255
K 9.641390269317549 9.735553682728712 6.287599842097106
K 11.838425904991158 13.34202872660867 5.857935160499023
K 5.645854097623151 10.355499875840742 8.07586383932525
K 9.624877688954758 2.2814596337865605 7.000170751087981
K 14.055122016145116 3.5810867942259637 5.885191942649041
K 2.5104137829803297 7.573152043934288 6.780155030697181
K 2.615395654118175 12.191377067898946 5.492264680555144
K 4.719379973927994 3.007351852663755 8.502955830462408
K 4.693116586709314 14.509191953004368 8.883420583990565
K 11.516805144105534 6.161529914045855 8.10633974335578
K 1.7552211356652139 11.072447557474925 9.945550414546641
K 9.147757048057086 13.09700160830274 9.57018582339235
K 12.972487244218446 10.195216763439769 9.625549051686457
K 15.595471000220108 6.155312118584225 9.593347638973967
K 8.74933696171718 8.478025200831013 10.50234201162947
K 4.476884731629729 6.959963491355618 11.05547561031146
K 12.826233594462401 2.488940598996135 10.332469151643354
K 8.485876567098071 3.9782340958530886 11.087301503098391
K 5.815930681992113 11.460840411049979 12.437827788297591
K 12.206501203429243 6.493149044887995 12.694777542871025
K 10.369673868379593 11.056252216083122 13.5831898089254
K 7.744505870119215 7.321908470375259 14.474620018864274
