28
Energy = -22.4315052 eV
K 7.570724885546316 2.593903113315807 5.075753212848932
K 9.96885824711432 5.478472767518828 2.1266733447935646
K 5.479628703976627 6.235820346880553 2.508191204832331
K 8.825588682380234 9.939349123767899 2.495462893165302
K 3.270289206245324 2.5304814873918455 4.0026638245267145
K 12.5254897180762 8.8918363740498 4.806891014588523
K 12.377097585470045 13.89084281548518 5.095523385671875
K 4.366009351280888 1.793203074048573 8.44172100217166
K 10.33644681831206 15.211853816895534 9.204887993877326
K 8.307021202110848 6.988957233834532 5.843308721925564
K 11.655033139005873 4.136527824406902 6.3942087143054005
K 5.084863705479034 10.295806227001922 5.588877941676558
K 4.009096698864311 5.958808574240884 6.905243800205949
K 9.225573109671112 11.463828935429122 6.801721572621501
K 5.943794020177331 13.168595444864403 9.535987962563595
K 11.456106750749171 7.806947033543584 9.060014650449741
K 6.992200726120673 8.63870260435113 9.54769097539836
K 9.93696798479567 11.428433066222219 11.43090656045847
K 13.520827502970878 11.819379821636756 8.827213149549058
K 2.8348311707621385 9.687176334085656 9.579262231267514
K 8.182879787352617 4.124782950317325 9.526264237087902
K 8.070998042297747 14.792638976318344 13.336479850035886
K 13.181909837149433 9.089123979199938 13.158562613595663
K 12.401913686115032 4.394894908181988 11.436011415285373
K 5.851488403176309 10.451585093289554 13.37214476189473
K 9.044000438475518 7.0412900438113475 13.234529473795744
K 4.379661785620657 5.615914997667773 11.446172714606195
K 9.753050968228447 11.08319518976772 15.769982934324997
