28
Energy = -22.55540736 eV
K 5.448002649886712 9.496474163762809 1.2428835671541711
K 10.245394132999698 12.771641095990597 6.563062456763186
K 5.855920398952143 12.044874532422842 5.437228233691585
K 1.5259566793821533 9.317011824096372 3.9573185360162575
K 3.0025752569831887 9.32572342234544 8.420138020479833
K 12.770715800704105 7.654503487643616 7.304305645993686
K 9.545833160736713 9.524798395294056 3.6144012964707755
K 8.008655875944733 9.51302745681496 8.737432306869131
K 5.626465177373919 7.762051880303984 5.1688237143451685
K 13.018044845388069 5.394107179118284 3.4020069111684115
K 3.2299098598644265 5.425539240132417 1.7649730516542446
K 2.1781828599766095 5.391697484087636 6.224528817217503
K 12.415251423666357 8.648427262534687 7.264806688090559
K 7.978674309405022 5.464223503538667 1.7537433766548252
K 1.1653725833138742 5.419744936628991 10.485123576854663
K 5.685576187085704 5.468903360565329 9.482503907919659
K 9.188167661944034 5.781761987044033 6.262858318690218
K 12.446345534457917 5.809616957071846 3.4255440880546213
K 12.967200297401554 2.8600269605949467 7.297309852670475
K 10.236826828631154 5.799927508833399 10.440954856852285
K 5.744385016671352 3.2790627253674542 5.21203827422422
K 1.648270624701456 1.3913652094550724 3.986109189485903
K 5.466625888771955 1.3833456599841882 1.3902513032459447
K 3.2129735215202198 1.5510035811572458 8.581573233469124
K 9.852818231405273 1.7947430385810186 3.969005323038854
K 12.770715800704105 3.4892556200991387 7.288463787842618
K 8.388078051919315 1.7663375250470073 8.41780517932654
K 5.42614860983714 13.168650047409841 5.427031919829198
