28
Energy = -22.50827351 eV
K 5.83110552256793 10.259989954865704 1.4189540458102843
K 8.813004054899917 6.560977488841425 2.9835284081759164
K 4.281696272382266 6.188813382655054 2.499001252165596
K 9.593173500428167 11.079812016889452 3.9953434703540025
K 2.084804815139767 10.309181851909955 4.106584352501885
K 12.967078955033958 7.6801490132504755 4.7306878761736115
K 5.474676419211092 13.315298050904703 5.106021269032593
K 5.896634405610613 8.796398469910358 5.605890240568352
K 11.422771623977546 3.3551276044861993 6.634715507942776
K 9.539675914527026 14.791879126625705 6.650823132722119
K 6.563271526211564 4.303124687256892 6.458569792748487
K 9.611338562335103 7.289105213253249 7.3561140507645035
K 2.469980845854036 6.563850610449153 6.966211180303013
K 12.316593113692804 11.026959569452226 7.819542693371004
K 3.3809937500910103 10.851588029017293 8.78968324168266
K 13.701071634866938 6.274755020912628 9.417535126095586
K 13.267665734344682 2.1304275865871083 11.063693734747508
K 5.8519509710983515 14.756263073153097 9.550705212376226
K 9.24065212901618 3.9934294435725177 10.582563167942425
K 7.855999603110548 11.105544282290063 8.528719506286633
K 10.251259697131784 13.192765921837417 11.631718955826836
K 9.980882646170746 2.070758196819782 14.435623998193211
K 5.791257484534463 7.047481370401774 10.309096960918621
K 12.58167737848956 5.8047864478809545 13.915718889806678
K 6.560316235596576 10.709603147599662 12.848509565192726
K 10.338776155025275 8.572415370885864 11.351977716227942
K 8.063696878235513 6.228991144828571 14.418228019167504
K 10.693286320528902 10.16581607357503 15.249530783013109
