28
Energy = -22.45556215 eV
K 12.890649178336682 9.570755088445292 2.341163739999231
K 8.381431632536158 8.83165867346971 2.8242844713917075
K 5.514226725020325 12.490035966938477 2.651172858849198
K 6.563178016736531 4.310936211178795 3.971307265714055
K 11.102861222213699 5.4083881638675875 4.464833108611251
K 10.09507337519011 13.140169238026248 3.715968727235854
K 3.994341909433587 8.330267117388805 4.749572165730504
K 14.26599166214362 12.588680447642192 5.853688011440144
K 11.397006183955325 9.449862760756982 6.384297275637492
K 7.694298485728 6.912994831598984 6.958549950787716
K 8.782369742711165 2.5467961494421005 8.03230945146613
K 6.927819709164673 11.246657951159948 6.568792219083443
K 6.9661123395779105 15.537632690439091 6.213058148440945
K 4.033026840913515 4.374167657356998 8.125276470216122
K 11.844405784178788 5.828915853613425 9.197621375041004
K 10.523884850879197 13.587011159825506 8.439668879557862
K 7.369097116594977 5.696498918269966 11.035899479570087
K 6.213764549589883 13.134407650078838 10.614584162628224
K 3.367572343457177 5.453612269785172 12.769886098047877
K 4.107198698587452 8.855662215618343 9.515067910267291
K 5.852961175952966 1.7210879079166619 11.744535203561616
K 8.932634831190002 9.568537925951668 10.147285968889049
K 10.326811962045701 2.7965357299665747 12.507444379711584
K 13.335520042302424 10.300068501796398 10.316761445328714
K 9.959924618553554 12.027321631822629 13.303881347938399
K 7.299046846363722 4.730167827001907 15.212624630858098
K 6.189590424239498 9.174251032903003 13.710255314843822
K 11.000774020509017 7.318492715843369 13.561784227257098
