28
Energy = -22.34120273 eV
K 9.699050079502358 12.463524159572222 2.631459630755447
K 11.55887729605153 8.185896500856154 3.3717598166813727
K 2.9318542839526778 9.39275633723988 6.583057900643084
K 8.523411032186441 4.397294453367469 3.7621631524143795
K 1.0553462523073922 5.360095280682075 7.770826290545699
K 13.893174873545133 11.946996885642156 4.534544971380681
K 7.015238195194758 8.809515359405594 4.108635993784593
K 10.645736403678175 15.071037645676212 6.095643643130488
K 6.415583222481379 13.089355047529867 5.634321599044669
K 13.801029836245249 7.927408021775798 7.872310204820073
K 10.293843742610088 10.808060292923074 6.571670720033522
K 17.05551552148058 10.672106137428012 7.654865115672726
K 9.798186582211297 6.423364136849609 7.142467091002321
K 5.228892751886238 5.505225622405802 6.695289671872648
K 8.011280044159122 2.4402647768985735 8.277231573456202
K 13.320547439297606 12.740586228171809 8.855361463728283
K 6.760725624788714 9.426840214959707 8.499888431112641
K 3.1660839618387295 7.726003192944421 10.786045069629036
K 4.163375393668255 12.295600284820503 10.03503027542673
K 7.264525821219957 5.90897405806802 10.7834025851452
K 11.552421164146981 4.649565309886932 10.701511169103943
K 7.8463034365268545 2.2536083855394873 12.920403257900965
K 8.750853159849099 13.102052917169102 10.070354485722577
K 10.677382676256803 9.099566039060626 10.94911475717519
K 3.928549258049376 3.0408054580490145 10.401783166567217
K 4.7881186092797385 5.435483654195409 14.254158291118898
K 9.39520546840337 6.295527584693196 14.426943061588872
K 6.778070954126416 9.851669099134362 12.92893969548578
