28
Energy = -22.34275932 eV
K 10.871902643952723 5.513389061526337 5.623728335159796
K 8.254182442014237 0.3905604549165201 0.8466502044068911
K 3.4021076932518293 8.180658480793442 7.533027336239314
K 0.5368096289416692 2.655139466452236 2.3047769915852796
K 7.497519167518166 2.6083988391412114 4.613858315575253
K 9.373505541929926 1.1994199462034745 8.237406243311916
K 12.812144447647269 6.64639683412861 2.574223707676939
K 2.3304749293720657 4.731665877912587 10.114851054824006
K 0.7935965275689862 10.141240408237024 0.8278803134189766
K 1.1526383651301149 6.0051659042697105 14.198329621773253
K 14.333634760373382 5.394919821358673 6.751185862550686
K 9.765234428463952 8.995875295888426 2.3110920581643684
K 7.123348076817753 5.45930885789051 8.652354266704116
K 4.139863396526924 10.886970537240192 3.776524543743862
K 5.677944984255991 1.9267233876739684 10.889798622791071
K 9.601250251483197 4.708735741545237 1.2575578308669746
K 6.6720859239359065 7.06345553913387 4.4935696843135595
K 2.3044958071916404 6.734530301504781 3.4029165847524214
K 0.43237423548761644 0.7897713424369972 6.4216923539513315
K 11.622855956623003 2.641361886613642 4.524456180361753
K 4.141679537434473 14.619770983834364 3.0568989722864663
K 14.63155247608884 9.79225705285125 5.2563665001702455
K 8.28462568037757 13.079821018253341 4.8691159504155594
K 4.933042352867786 14.3902259163725 7.4777465347824545
K 5.30308099611898 8.247561273939745 0.22915177243562607
K 3.7059822671662213 3.593704104371302 6.088823323807745
K 4.977075345291335 3.7551782238299873 0.998595329803982
K 11.622855956623003 1.1901120358571808 4.098649645748375
