28
Energy = -22.2417708 eV
K 12.220430617631921 11.240053211195377 12.589974752286812
K 4.145700811472745 6.65654701737454 13.34447034448866
K 1.3751942206096837 8.80300426936274 10.055155690995537
K 13.198489534039437 2.18045343822222 6.054202658187525
K 3.8591552270926344 11.171076560125705 13.299580496253265
K 8.60678866596954 2.5931514815373147 7.353467619149557
K 11.441319275508139 9.539837676174752 5.3669778456820625
K 11.649551964730062 12.998113495436014 8.384105292998884
K 3.5849047567695767 12.854227767455919 8.904042363629236
K 4.2159337398073795 4.980685948863328 8.899984823306967
K 12.457377614632932 6.571844970099849 12.461872804859082
K 7.821347229036104 12.840495479861126 11.235846154398653
K 11.837612707520204 5.683629902799195 8.016718857231043
K 10.458109810230239 5.061703674448335 3.6311887601383877
K 12.182657117071757 8.33276907695444 1.2403525588704702
K 8.151978015512526 5.056880209584117 11.225535770051897
K 5.689526074678894 9.014687828338506 9.914339507349338
K 14.742655556391204 6.443630907237998 4.674410519044117
K 7.6078073203597825 6.797454684799687 6.508485259373066
K 0.17666969275529945 11.519081100364248 6.452620475957806
K 3.911308238837411 12.730791573863705 4.176945933839083
K 9.925791840330524 9.102794420539313 9.651546720112924
K 3.637441632378709 8.665395048998587 5.860854551039552
K 11.845488280978216 2.239617174941334 10.72323926752507
K 7.5425258624452685 9.28023840320684 2.832898138896084
K 14.434615837254219 9.18647277177204 8.924006581828605
K 7.482374238288392 11.732834896083984 6.642723685117557
K 8.091589708215357 9.01687260090748 13.868798157936405
