28
Energy = -22.46537489 eV
K 9.111200836447885 10.560991396067042 15.772449169774257
K 5.5001805159548836 8.439607456511858 1.5436959854980883
K 9.919759309519428 7.839859400292783 2.9105576717654587
K 12.243755154359622 11.71004072393307 2.5776326904281848
K 7.653236877256276 12.667799370028698 3.2694372176624706
K 3.2748408949000516 11.562963698910085 4.378755048726761
K 6.888906462237965 4.550271484317676 4.737968926172788
K 2.7393915004242544 6.971277190571048 5.115813021732131
K 6.596797001098515 8.987990679497756 5.71012414632783
K 13.766960064795404 8.432594592592917 5.934266508721813
K 10.43386081350745 11.375671835321425 6.622024254103805
K 10.078872432411966 6.460188391283065 7.134021184523247
K 6.060657829428879 13.229998450125313 7.644760653658821
K 5.241768496090521 5.508177283524941 8.80687938021694
K 8.787384808156055 2.5455350865330537 8.782051850684077
K 7.677694773794008 9.532788286991492 9.737693959541453
K 9.72171442717211 13.211020660511553 10.84388081921875
K 12.308007878277232 9.399057461000224 10.40359550093889
K 13.208170549510987 4.910727326952421 9.905346275227519
K 3.2579351160002834 9.778405591121652 8.852348565748192
K 5.463052497910036 12.253347684363746 12.300672250373749
K 9.167389299866148 6.099900370012556 11.480274289803297
K 6.210688484857118 3.084895904729811 12.800570715887346
K 5.102529934668602 7.692189467622136 13.061930954740737
K 9.153144108886291 9.883674797245865 14.133389700004825
K 10.844430201918907 2.5166289348557833 13.189424300138658
K 12.646307558355717 6.599744594334305 14.25977091538761
K 8.431409823699035 5.684699532252799 15.772449169774253
