28
Energy = -22.31426402 eV
K 10.33995641372574 8.735589966641262 3.862043166098722
K 6.180696551163989 8.576014251102855 1.6159455160816147
K 2.798994104896978 9.875493874384295 4.584636347379487
K 6.676984304512172 11.856148584058555 4.585816083422216
K 9.657618619456073 4.15740599251179 4.08078125237385
K 13.95716410964357 5.207611158418928 5.228657390858253
K 7.348994157609469 3.4010107484694694 8.170910202465471
K 11.300324994510643 12.997165527321664 5.402815407848156
K 13.554485252283014 9.552899250156381 7.337072099058927
K 9.143071263508782 10.395054254721188 7.874460028610469
K 6.496638349345801 7.277896300792065 5.693734028537803
K 2.9656515555619003 13.929245246607188 6.754751903485933
K 10.68490881264933 6.253390834090887 7.66115367495078
K 11.768334353077725 2.1095907277831847 7.644822681091998
K 3.408521848789227 6.236329077130306 8.709325354388493
K 7.192816035240533 14.387086265335933 8.490490195941744
K 4.601684732316049 10.522468875391311 8.530457370322408
K 14.37896214704348 5.314291593306084 9.854114054323073
K 11.660163889854754 13.104673076557315 9.882694306416257
K 7.341024802894401 7.396863392134964 10.233134564644175
K 3.6552322858976454 13.605140060931104 11.32952495694825
K 11.630901548268469 8.740791900090496 11.408946400083995
K 10.359501412754417 4.118964412149416 11.506125949778887
K 7.765699175831983 11.609738804783065 11.972907158861904
K 5.467902271969678 4.3211561629892055 12.287268651129446
K 4.092426755029326 9.204043888001793 12.652708660429607
K 13.092648391300244 5.945269266611851 14.445515250410399
K 8.664888704714787 7.354863351378126 14.385384187908198
