28
Energy = -22.36218615 eV
K 6.473941502976642 9.609928216629013 2.9606074107506397
K 8.114307817122267 4.9514747290172005 3.3796260008685963
K 3.431160436607527 5.739421271382706 2.8340100093640217
K 13.762960526000985 10.26995159390281 6.8296836563059955
K 9.995048741112791 12.706590933653294 4.899096648875061
K 6.079171420690066 11.507232432073819 6.989503466981132
K 12.87497457200642 5.422601841583623 5.719344018843298
K 1.441409565388529 5.175763591899795 7.037686053469622
K 8.98731187906746 3.995952067578489 7.775079237226282
K 5.479010653407851 6.862678001809664 6.407713487539169
K 2.0007309406207026 9.509834577725714 5.430880614596402
K 9.721468999260045 8.444488825836283 5.743813371077356
K 13.225148511805072 14.422127321029913 8.586042756008698
K 4.896994497894289 2.4611885751326255 5.7946802817610275
K 13.236158509598026 3.1383863211221628 9.574301395655114
K 2.2387798874144904 12.91770572824453 8.572564254582087
K 11.805283956525871 7.3403624127710945 9.766888307598654
K 11.211036888707884 13.742090716160387 12.861627431141228
K 4.801396384587283 4.283591046128697 10.124932797313804
K 3.10812139681319 8.698222738514067 9.848184314995995
K 7.570810816887557 8.047802421045182 9.813218770882209
K 10.037860867879656 11.60893096388371 9.24963077477016
K 14.250995490511102 10.743764631039745 11.377655923880415
K 9.227428098696704 4.68430099273381 12.338443940219504
K 6.155607111338532 11.854485671110572 11.65048660498813
K 16.020411603991565 6.836539733020898 9.254394246932094
K 10.059359386238027 9.429184495331798 13.481938170306487
K 5.711796239206441 7.514084851996044 13.6166527554238
