28
Energy = -22.13406634 eV
K 7.2859240088874415 9.854582457229688 2.0338129328216725
K 11.44002738116075 10.40123327917229 3.2896548637099863
K 10.720625506485693 6.449264546502412 1.2418416562717476
K 9.036086725618754 14.063306064966008 2.8561272915448637
K 8.551832432529958 6.926834042821426 4.907573866355969
K 7.376846787914566 11.6401810529416 6.095379790265935
K 10.410173212031658 3.0718872646501323 4.302058657709952
K 11.074782314220622 9.394709424364887 7.56859922609242
K 4.451046976934845 8.35594748101779 5.78231127558994
K 13.29166697368088 6.471181527210426 4.897415725845248
K 14.947773691096083 10.64667233184077 6.074221715684903
K 11.464414498931772 13.637295776554119 6.61936497422626
K 10.712426420789615 4.975221701455512 8.372378621205678
K 6.3622978222254645 3.950907037617674 7.558920965004508
K 3.3855963784385374 6.735652698782475 10.373643704120013
K 7.354629093668998 8.092569623794386 8.923854178653698
K 14.47678890102569 7.342146436520509 9.278657577067529
K 3.9875970953684705 2.340197101151013 11.426525062399556
K 4.379259334488173 11.159429677793986 9.582399144157176
K 13.340731204639567 11.623257346676255 10.400743744413091
K 8.705794132623353 12.283795084195198 10.355189316242761
K 5.256161903995006 13.389262840460756 13.330938131304578
K 7.384390164992752 4.8275027546293225 11.94886499891979
K 10.711787747837986 8.117719641051464 11.905054515927933
K 2.317267916483316 9.742897842325487 13.666280214840839
K 3.768206174314688 5.592466814105725 14.578043437400826
K 6.4306002253661445 9.173717479320832 13.174309972376749
K 7.9319674762174275 6.2968631728160585 16.01253694181475
