28
Energy = -22.44894095 eV
K 8.018886407330015 9.246763603238547 2.7606329351154906
K 12.606036855202182 8.79294851574237 4.265540074949522
K 10.00859852925645 5.004278496929668 4.707985864981782
K 6.119019197525735 13.330798491126727 2.7071339011384605
K 3.246898853385612 9.6365883482201 3.2438679474325536
K 1.5565427734091546 5.761097247377084 5.053340453068315
K 5.718531763617018 6.579808212836939 5.788133423942674
K 10.065967063109431 12.693000309531625 5.098886687023901
K 9.37312319230153 8.74435497899011 7.1272445119604955
K 5.941806175583604 11.190262083065909 6.61311346560906
K 13.021870739227474 5.815352400640608 8.076371119012165
K 2.5050739268537896 13.588790761464761 5.778336412415024
K 8.373052431391407 4.716125515301663 8.873205763772184
K 6.872557345640732 15.55198696853646 6.542653502573901
K 11.4849291734327 1.6027439393144516 8.409291144090362
K 13.29863287867384 10.577814663789882 8.523688609685742
K 3.8907386017323824 5.003740129039653 9.576610324249483
K 2.249891060602704 9.194034119540134 7.873315065417836
K 9.172934991249203 12.491441645807125 9.868552409017925
K 5.853454001708375 8.837657448837946 10.432220219049041
K 10.413157621754625 8.060630161846113 11.108786407573515
K 8.047095943585552 1.3305036227020839 11.49869460838089
K 11.818772345354267 3.901539090462065 12.23010961860124
K 14.78697546325076 7.661067258375176 12.167564541473379
K 7.391017942797973 5.58196018526623 13.300424935399041
K 12.578754631889733 11.458560681157785 13.00973225652864
K 8.1005516898356 10.333235115785119 14.068967102581253
K 11.462378439537044 7.290166044312555 15.272846734195005
