28
Energy = -22.38832496 eV
K 5.6300696800577175 15.05384390639942 10.907103420836556
K 4.515036727464527 11.787626306290298 7.239029485905057
K 12.269365565141735 12.439756363469337 6.145706820762027
K 4.771582026934884 11.056907357921954 2.2193031752905337
K 2.821644574121086 7.732694753114955 9.290784315367597
K 5.204419502853306 10.846100043106642 11.96415205361422
K 7.27052828342447 9.361727153170676 15.701984520964416
K 10.505359948663486 4.056748180647512 2.303145096501827
K 12.52775161371685 11.92592176399096 11.05983200067578
K 11.80447757661467 10.085490819989388 15.218659105514261
K 8.670115149639456 6.10485723429863 5.502513046370566
K 6.8971718086365055 8.399063705982295 8.573010477167196
K 8.620844638875498 12.548665204574228 8.969834785355932
K 10.24343431838668 5.8963582633877625 14.609413887145132
K 5.4964455178609075 4.222941308760555 8.028744510013995
K 8.202646029378606 10.653196830367616 4.8709260813221995
K 11.269228864083903 8.848199643924334 7.907465040002858
K 4.478272840738063 7.585997629309137 4.842440385372363
K 9.548700962472077 4.8302148058317265 9.942639546153362
K 12.7335398964114 4.937881626471146 6.722910461531575
K 9.327326419593689 9.093504226091227 11.937252412388789
K 8.788285244213363 13.185616338681248 13.601173152025222
K 5.938903723522226 6.195908422211903 12.287280178864323
K 13.216097568032461 7.104055624276342 11.366064970500052
K 5.995216982804218 3.6074906111744727 3.270344694814573
K 9.364767933349498 1.9356692118103043 6.0988571836097565
K 7.554710054256266 7.5443706750698905 1.4459137793321208
K 11.736398289838833 8.361533730762241 3.3758571536835613
