28
Energy = -18.57717869 eV
K 6.158009345034764 8.074098161359531 3.501503885954551
K 9.063757242699577 4.657283917157925 2.0889298332354955
K 10.673486306272972 8.671283705921024 3.831331335173659
K 5.3536843515660655 3.8231445651855513 4.410186645098681
K 2.7906900854565753 10.660175386966753 5.797235184900428
K 7.295935461640363 11.432292850474592 6.031611791315503
K 8.852388368038511 5.542558084396953 6.307930323201638
K 11.49427756473376 12.245778878055647 6.378871311958446
K 9.168747086385515 1.4477016233926354 5.505075567573247
K 12.8626483702757 4.635684918277435 4.523865725940118
K 13.693997194537245 8.329484068064142 7.070739872980968
K 4.324970798269828 14.160949966137267 8.016213368299054
K 9.673467492191742 8.706381645908715 8.669705381568052
K 5.247353227954736 7.647868545981773 7.8797020386249645
K 15.825219651406316 4.631490014317557 8.202582947429455
K 5.959353099849063 3.3999276855977394 8.954411666549944
K 8.656517482912271 14.565976720420663 9.291870714100092
K 12.993664303653826 6.824131877030907 11.139541741187408
K 8.890705786625112 5.120621911797611 11.370715474150003
K 11.930365837757606 11.440691027339238 10.899880131717453
K 9.343313065170006 8.843711156590976 13.549010004494171
K 6.856402576203559 11.022117597888462 10.586045367087564
K 2.673290398710488 10.912271053694871 10.469802981566584
K 5.051893781627609 14.659112687423523 12.263304058636269
K 11.761520059899683 3.2345671147622177 8.597308247084785
K 5.159308556177492 6.9837895808169135 12.167318055613473
K 9.017747597161003 13.358098877244881 13.848813296093516
K 5.160911047286066 10.902432517291437 14.58011918796076
