28
Energy = -22.43112175 eV
K 3.1782464869340084 9.158132656601673 11.808734153592082
K 9.745631684757406 14.306786296847893 7.664182392258986
K 12.817058638500491 4.258765701960281 10.365730270340048
K 12.666966933025698 10.666761939920205 6.659442751966245
K 5.91058043137577 12.441309589093153 9.73628301044523
K 5.645405383610594 5.701731195892544 13.525362279782684
K 8.207564611963383 3.808108658908474 10.315130543105985
K 11.981942639658294 11.509626218091471 14.19757201544695
K 13.933324361546177 9.034049568733904 11.01661671995219
K 10.09155219603769 10.948340060451486 10.361777569711307
K 13.419215620906023 13.705119497763176 10.231319251432271
K 6.9022995525496285 3.7564544336537273 2.9059937002619174
K 3.6844169522773655 9.011030298176754 7.253908146135554
K 10.244402646780513 7.579920893448996 3.9191569687235757
K 6.887638438483015 8.100306373018393 10.202662287717192
K 10.385910055716195 12.286409298996716 3.3784971323914155
K 3.6325150074222283 4.843457726467393 9.55311346912515
K 10.059872620645763 3.136379268535847 6.258563774230377
K 6.814381181886287 5.940703330993123 6.53783745717555
K 9.264200240960776 14.646346796905402 12.3104290484018
K 10.273672807605479 7.155205434207463 12.924871525911488
K 5.8199852523710245 8.192450906980314 3.029121738592343
K 2.9675335406939247 4.939460118825647 4.973677109078968
K 7.881044534129216 10.417155812502443 6.381226578819389
K 7.423110640089434 10.73115919812808 13.861253796991686
K 5.719455804666555 1.765902384856596 6.763229220569966
K 13.645546547838661 14.800181409101736 5.618492228008329
K 10.776338314976691 7.138558058345403 8.225627987240447
