28
Energy = -22.36874892 eV
K 10.154329280353101 8.930532626945654 2.8159118033695414
K 5.437287250424709 8.261108927541796 3.332120019562226
K 9.00457760384603 4.820840491811324 4.361354735788246
K 4.596366961900836 3.822114464564048 3.1915687090009324
K 7.3489813223781315 12.422244816856663 4.594180256497979
K 12.662073590916473 7.076291548400844 6.387826318461397
K 11.748737314060717 11.833466766458129 6.0601978990363605
K 8.382603578452482 8.732526723766888 6.805218388318733
K 1.789255926256935 6.481661492370602 5.582081742111246
K 6.789410578484616 1.3400527379768152 6.169902167283448
K 5.701515210705079 5.530197399812271 7.396891006061565
K 9.9177941728241 15.834897494942977 6.810901644373025
K 15.221867858764503 10.201936503073329 8.748148988990348
K 4.170407607181144 10.081568579186497 7.537740821065523
K 5.671185424181606 2.077803511761947 10.477776804760643
K 2.453641264635127 2.4780234561830676 7.3602696611181075
K 7.6319665278413575 12.736532453352138 9.10481805072237
K 9.473323156132516 5.074841831297021 9.628903181637135
K 2.762803510214637 6.343611966864562 10.312883915243281
K 12.504352419212776 13.749994763001368 10.15970596729324
K 10.962636791409512 9.53861101127951 9.957305502010803
K 6.458233180419966 9.006208647143762 11.302176799669462
K 8.913537224731302 16.183262296293407 11.402013120675058
K 6.376522773553747 5.240240897311912 13.311594686895514
K 13.885041590050697 10.301588796740214 13.21871521030573
K 13.916505274061922 6.315176412194966 10.753853663496276
K 10.37955235862782 7.365772171058964 13.708616857549018
K 9.524942419600865 12.058343383030795 13.346774249924302
