28
Energy = -19.12584033 eV
K 12.002065604364338 11.338085310086589 6.256791811779872
K 9.972383500606284 9.101610076677796 2.562011574696473
K 6.552404086460196 7.63420480085391 8.64279268176383
K 9.66301253570636 10.7113965584343 9.960196441683747
K 8.792943542290363 13.496161793474737 3.066536677994941
K 5.612391851146607 10.273114075604965 1.899105947094574
K 10.31877379960714 4.450224430081634 3.485619651198839
K 7.603274346774934 6.3448953432883215 0.08470580280566611
K 6.558926126066713 6.461995262151842 4.315640063578847
K 6.4779553363686855 8.855687162703301 13.011077647388618
K 5.265420466182576 11.79380923662048 9.574797471274572
K 10.690694146604486 7.2941022728643174 6.733319651521281
K 4.6670307615734705 13.606727751150533 5.014524144202776
K 3.6891196592742146 4.778070773741501 7.401311593229771
K 8.222954289302113 3.6134074262038998 7.6779791297819475
K 7.625236112856605 10.608598659048221 5.8730089704408455
K 8.3737714795347 14.431006055730869 7.646335939409127
K 13.39364246549172 8.52693786424036 9.997153096906803
K 12.552534915630462 3.848089426688013 9.002479476203792
K 3.3077480512274287 9.393390294082899 5.845737776492094
K 8.159552290627271 12.889349712329977 13.31236488496215
K 9.71917592824635 6.322553914790412 11.124749379400228
K 5.751111938756807 4.416553709106745 11.713410240978138
K 2.75140095382421 7.9891722327398105 10.424834474344896
K 10.74040350689004 9.170684572542468 14.28558671649489
K 9.69291525903901 2.08696613005276 12.101019134756376
K 12.918008625111153 5.085968419932719 13.512880674171443
K 8.616320300036035 5.1684086143772445 15.165200825043545
