28
Energy = -22.25268743 eV
K 9.715498596006423 9.44500419051685 1.6250511227591755
K 8.824713838382152 12.881830277292254 4.2312413244278595
K 12.596474211768331 6.286831770953388 2.7195273353828453
K 5.585033554667958 9.824321927896674 3.1629879723495073
K 8.017947189341214 6.11571477928334 4.232949868366766
K 13.424741742978153 10.606007670606497 4.15845567278354
K 4.314070402530368 6.9796047953997125 6.840197726192102
K 11.35710070191225 7.916013897135243 6.530100476391502
K 7.668500703166949 9.838473063454991 6.8971747277426845
K 6.178089949997455 2.7774229828724826 6.879124745789641
K 3.720226897200717 11.473607645983664 7.761663592749419
K 11.325108306046026 3.5682805313241692 6.169945245101194
K 11.289649200924044 12.430019301837401 7.773374223747181
K 15.23140749546813 6.253006005197103 6.351446730663138
K 14.373158862514098 9.49789054708316 9.263280359225817
K 8.263482480824345 5.612054698602761 8.929633813476217
K 7.515711035282469 12.957446462959949 10.285048070254616
K 10.039659321425825 9.102767750316687 10.680523768406582
K 12.569619145279963 5.547765796162749 10.333514641620862
K 5.662804589720297 8.915756709159721 10.772869549700067
K 1.4183142121760228 8.71605038063022 10.5842950330871
K 11.61970313013033 12.487497136312527 12.365677637965192
K 4.208001042651984 4.87114318871668 10.96457405186358
K 3.6229491729778642 12.162323800882632 12.566051891129993
K 11.588083251949033 8.299476500731362 14.624230189402777
K 7.522618778427738 10.504534470117122 14.49177569460731
K 7.90757909338022 6.232568001789968 13.592426019688308
K 3.7030347791773934 7.959867403086909 14.47614020143174
