29
Energy = -23.20491791 eV
K 1.8801998399825013 9.166696736352167 3.2377615233916863
K 6.631096872291004 9.094731592908413 2.41966623861652
K 4.063865779880151 5.342800953751808 3.847571335213606
K 11.877338033987952 8.769798498668063 3.7286388138675894
K 4.829951038912249 8.727454017261353 6.354721745816353
K 8.54027428813266 6.323116709382802 5.399966977224485
K 13.424724531789714 12.032456097091465 6.7970321339791155
K 4.467994638161235 12.607922061948557 4.472569361545346
K 15.694636011327498 8.08654546664157 6.762101669120179
K 1.2136094947180331 6.273747139435655 7.323453660503242
K 8.778148015976948 11.204094158422793 5.854267251379728
K 12.743509942932892 4.648846268242247 5.912231619242833
K 5.318135484463807 4.562282974372214 8.218969238334257
K 11.650946697973042 8.261751048642225 8.065237489177312
K 5.678135047105917 12.202283235979806 9.09624543624153
K 9.819481356225614 4.245908414813025 9.307666753828078
K 10.122548050936674 12.175082175547766 9.997634175448361
K 14.14382628534595 5.253405104874667 10.27587071997004
K 14.00586238760656 14.12524362721709 10.718330427333715
K 1.3204455430476052 10.769909008365012 7.41895247580131
K 14.61997459729207 9.804061299950655 10.850358660491594
K 6.761886291978233 5.393081971240504 12.497110260396187
K 2.273282825002157 4.156989523426084 11.180271917366888
K 10.958799389192462 7.556532334795954 12.537971363670367
K 7.772588846860844 8.296467721623275 9.422664508266939
K 7.340666568730275 10.34552818855962 13.07486417638663
K 11.325434666610217 3.3108592502746945 13.272437688980547
K 11.922459476317059 11.60110515347737 13.908385913315938
K 3.5300216451841373 8.371142914697534 10.756890113054709
