29
Energy = -23.371319
K 6.012692794396815 5.5849685155733715 2.776562738151383
K 10.131609067453917 6.889752346633337 1.5846016602445652
K 1.241267798717746 11.258132178453305 7.799855457443258
K 5.4873470847174906 9.538354752036849 1.2783417421507883
K 13.338132989574625 3.880061115057513 8.301807702821941
K 12.953486687532527 4.045468136495139 8.15130242779151
K 6.120184167827295 6.213676542056459 11.780687845455843
K 8.801568248860947 2.1652766856228975 2.0005409851204687
K 3.8500070882120445 8.909890817278253 5.300548277912975
K 13.04495555308692 3.746336855941446 3.4390538362348733
K 10.03267532733424 7.333430986425472 9.44129165960622
K 13.266153927585245 7.675156785182914 5.700303821825734
K 9.528311229816097 4.831694010828603 5.570611330802723
K 10.58802500146495 11.398506542185991 7.964126528400272
K 1.594009961478057 0.5003448821760598 5.997309146866775
K 13.04495555308692 3.460478885532873 3.47809762226491
K 3.7591547754657606 2.756528086344636 9.573639799891456
K 2.6790547603609385 4.689882793665442 5.614630976088054
K 2.182332151832047 7.2397118730108705 9.521848553008072
K 6.061458913637566 10.220351274650147 9.055522598097143
K 8.244282457897926 9.260370478085369 4.928250901814996
K 0.9203222612435374 10.87876016221828 2.941833070780541
K 10.74167272631917 0.667197421174847 6.0397949359873815
K 6.091703689300152 6.00605045873371 7.5310451246130325
K 6.124472895726599 1.6133490119348681 5.72355053307892
K 3.3863420007036367 2.0629411701904297 2.003105982818273
K 12.640367010800778 7.938731673317313 5.587774867712271
K 1.7797141274601918 6.685404977462982 1.6106203363590934
K 8.63494033053309 2.830834011748348 9.584982966675346
