29
Energy = -23.24673313 eV
K 9.577792073686666 7.611507579878095 2.4689026916870795
K 5.6208627887911025 5.059780567064456 1.9865597137857487
K 9.506998914268209 3.0992777610944295 3.6248869318649923
K 5.183405795312442 9.539121916329561 3.6728988524683825
K 11.910474832162436 6.345477734713685 6.335164349480262
K 7.19655513389622 6.117336907241857 5.892909740094112
K 2.6648050992397048 5.925720375041426 5.556533697679493
K 13.239143713572739 10.543243875575113 5.070755791243348
K 1.4780990012295865 10.393566288192105 6.143368386029779
K 5.720652647625055 13.302644952585899 7.048040499045106
K 10.624317665859646 14.081639190083738 7.975994695549663
K 5.465056178111512 2.1010066014613518 5.678079345112763
K 8.963416392697813 10.332752469054158 6.05136881665472
K 15.86718102312849 8.04046686353631 8.28866034658591
K 1.319716382669469 7.4014022059672095 9.726325105668675
K 12.250307577762586 10.167080816371636 9.36415503759076
K 9.2429949621041 2.9166907144327037 8.382571677849205
K 4.9819513256238075 9.102518503631265 8.338347317131948
K 8.927580646650359 7.28466990196733 9.644298119866379
K 12.876622838394363 5.740815702316965 10.948353922649078
K 7.991746432916145 11.446478051090855 10.580222761128974
K 14.993264112331827 9.582014545997907 12.677514057638582
K 8.127771729070718 15.629004896794166 11.401762530772077
K 11.865302585729724 13.176976077026724 12.636921217259848
K 5.038522093289936 4.601185524019362 9.703704040365857
K 10.506802319446711 8.817767181545063 13.66704098277923
K 8.611994670873528 4.460603503474501 12.834825621079023
K 5.692768016653597 8.161476582426328 12.793112216527485
K 7.871403122691609 12.335282786876732 14.824231610201775
