29
Energy = -20.4821229 eV
K 5.063546418315427 7.699822551109872 1.7170747188917
K 8.900849858707243 10.20661654439826 2.756544817859805
K 9.056200555396668 5.629352942907455 2.2672864730482103
K 4.761713862723509 11.173225322078988 4.786628662891215
K 5.297570125276915 3.6913735481010805 4.24355012801773
K 2.5133180835072144 7.305328031703701 5.601086625162974
K 6.94581232239896 7.464918166305914 5.5196840329326715
K 11.569786897101626 7.847064862415778 5.768925754587758
K 12.86379197242095 12.324429521866978 6.3262364619190325
K 8.615513734024955 11.302307479546206 7.0902879983374465
K 9.470856038375947 3.9377069616225033 6.710957724203674
K 1.8282610685701333 3.1300510018145693 7.103663076741142
K 5.762944898288167 13.899399371052688 8.748858619324809
K 15.559595167524034 9.03572220817506 8.063976002707927
K 5.360093530222034 4.633529051551541 8.785975998001202
K 1.5710226680044073 6.616482040445922 9.98862866354134
K 8.634409799064148 7.436147091383293 9.418124025077521
K 14.802381466202156 12.84018851638666 10.518543420492781
K 12.71512096935875 5.677538084325275 9.608172294138782
K 11.787502301309846 10.035960504474787 9.94411544570088
K 4.620765511299734 9.549814520456763 8.96935189695677
K 10.478800387313463 14.229274167893466 10.06098296988912
K 7.757564556822422 11.230541374877905 11.86421108293214
K 9.019579441415242 3.710699851696039 11.383681409015146
K 14.879619501759208 8.783696820814221 12.640658170394447
K 5.875101182191457 7.186550098110821 12.760393289622687
K 8.197600643612683 10.150590725246271 16.0611196441794
K 11.727933860229479 11.98458728529028 13.965226142464623
K 10.57432435335285 7.498662528738361 13.537635625757895
