29
Energy = -23.13314304 eV
K 7.6852821158494935 10.358332220054328 1.9086997694589223
K 4.7188459909088145 13.629903465637286 3.03693663783922
K 3.293692199369693 9.275239776730285 3.2502301144026187
K 9.271641977376875 13.761621155324345 4.803817413869789
K 7.050529035722992 6.459008372640032 4.728655204932293
K 10.668008532852237 9.461498447703647 5.482701423881985
K 9.268081818657096 2.355376409586348 5.302870788936876
K 14.820611556524415 7.495625733085806 7.2161047436030445
K 6.219761703197138 10.774626549605818 6.100077102495387
K 13.97486382757224 2.8714233153502895 6.863079118249439
K 10.703948383107964 5.632994097481168 7.611762466595894
K 1.8979709080287368 11.935133436753532 6.792937526448728
K 5.405440787280682 14.90572780773248 7.336261110244933
K 3.302650303063607 7.484189220142893 7.583537296549792
K 6.418910559127663 3.8975055815570436 8.62702827174057
K 4.741241476274161 11.518406592667462 10.558171582447587
K 7.553980869250511 8.17458030761318 9.134750945213456
K 10.591896508528524 1.6313409609091187 9.670334964527813
K 13.51987690116408 12.015025525374751 7.825281925551043
K 11.633426728645862 8.965621603172647 10.363608243636925
K 4.699231643622181 7.052742905742171 12.231044086551567
K 8.297169509809477 9.942599891124143 13.235460122362893
K 9.197628434306193 5.142534754619751 12.10694293355663
K 0.8518651460672667 9.610247580258237 10.674048321101072
K 9.167258581173698 12.554413877371672 9.256230446153486
K 15.732900658909623 8.99702539883905 11.410385144081348
K 13.805597209983453 4.831473443542626 11.02944251434271
K 12.269019328318612 7.5008909815227325 14.549833121941816
K 7.96913296568266 6.49535624823413 16.040232319657907
