29
Energy = -18.54560108 eV
K 8.39143687622119 6.697025094965276 2.9538897871849894
K 12.607368824407278 4.774234186991908 3.53648923764154
K 8.128714376166226 11.647814463077545 3.065616300067189
K 8.70846590560124 2.406079340041564 4.645230034308785
K 11.905138672053946 9.434300940009456 4.5176425683097285
K 4.250579938700216 9.143084638379175 4.241024486156853
K 5.55683947736744 5.36456466698876 6.280945485824144
K 14.574697593685933 6.2823270400893865 7.738182639944647
K 10.25377593800483 5.839342979334892 6.810257043190517
K 7.89418491055852 9.493359929981638 6.494204307731193
K 12.381827747893977 2.2547399182811745 7.352180863378869
K 10.278868669458312 13.279753858735226 6.840772428673653
K 5.591743188071796 13.329370984876476 7.036833495064194
K 1.2844573757028444 6.565720617374626 6.130885899556009
K 7.766848066975387 7.274850193875296 10.062134651405284
K 4.083638159681279 13.393619814798486 11.381230301860278
K 7.988377453806395 15.754998814838373 10.267680659193106
K 11.705932475389286 9.61930216012908 9.006936829534563
K 11.742281187022066 13.16723103432499 12.037714381184667
K 3.8356067409299506 9.43013707140834 8.737714388463885
K 8.170443656360364 2.8666668219409854 9.272231296559273
K 7.859662164147431 11.595597131301071 10.33217995877423
K 4.134491051412351 5.283332428902261 10.670676288556672
K 5.407599429021318 9.363311434231742 13.23472829866737
K 7.708668055807836 13.351334704249911 14.15492331637705
K 11.778128194916821 5.515212116277371 11.135698135870253
K 14.690309647047481 9.24243330436155 11.901511835959852
K 7.89946879782331 5.247114506141195 13.574793144187634
K 10.22213072722815 9.184825105555419 13.387377237836052
