29
Energy = -23.21854317 eV
K 7.076078940018279 8.029203191390705 4.127556811305716
K 9.623059303257074 10.282430048274424 1.2910065772543766
K 14.050524521912893 8.539994121793763 2.000545185019169
K 5.1508243555850814 11.497237811444768 2.3679513387203177
K 10.450734588104188 5.8842877616182365 2.3113309178526724
K 12.895142182879137 12.633333675759097 3.544397327505283
K 2.6876256214559047 8.15314331393897 4.771084054887748
K 8.625335866862718 9.476171928031276 8.14379397131623
K 8.619536988762997 12.765484253986406 5.034540127676928
K 5.3035914948280904 6.3348157092087645 7.920720031911488
K 13.802949958275011 5.345019645142485 5.483331767650997
K 11.506665081533539 8.993017167001646 5.220748523468047
K 4.788562269552416 11.176118377524693 6.961232744002333
K 9.52089661826785 5.119749825827091 6.790376411251547
K 7.141135012054921 2.5870673123740615 9.94927960523437
K 1.8080641543183045 8.168213636523973 9.8410541728153
K 12.01795930573452 12.243588550852127 8.318903408994526
K 12.598696997528487 7.722385864568659 9.491280551677706
K 11.591518484282869 3.38788852416254 10.622291629198196
K 7.878356260763629 13.423947215637238 9.79174563892534
K 6.527424318344229 12.210804219370653 14.43867051140576
K 8.58309998438344 6.437915375936249 11.130997134628519
K 4.463508963632353 5.400330226358166 12.43716407111799
K 5.649002408216956 9.716409454022825 11.110940913365967
K 10.258206969614724 10.54751278442906 12.272163189987717
K 8.39987707329639 3.4310962464631984 14.217865527072064
K 2.942052612103386 9.289718233048992 14.233523821179235
K 11.684350617903233 6.378595073010843 14.094333414267032
K 7.397713395558772 7.867014801331329 15.123664969339497
