29
Energy = -18.99149163 eV
K 13.033025471415879 10.838930770899461 3.3992167646211127
K 10.555942004320977 4.082788247593303 4.8853854577130935
K 9.270952835204298 8.132656899349163 3.6590447386545
K 8.771591565808668 12.558833635895908 4.00440087544254
K 12.966025171124707 6.496525993082566 1.8565757949981947
K 12.163700278837727 14.575186613866444 6.364419866806708
K 4.890962460029758 9.371026257078736 3.3351475410323257
K 2.4031395902812576 8.076030257438966 7.599242919607322
K 9.409778489809465 6.75128875854397 8.054536114581362
K 10.911197847830474 10.654660425514534 7.178625326231558
K 15.080353494242798 11.29739527429739 7.620306464494505
K 13.63630638301045 7.19685253096339 6.146619190016949
K 5.846511953601651 5.588104293201889 5.873983081332667
K 6.451532910191146 10.043682102137591 7.057184049002186
K 12.170057516469468 3.941986363600528 9.369980431468047
K 7.445885710353477 2.9902355298681806 9.535300343597495
K 2.8286161897180278 3.819478323549209 9.315527885898796
K 8.05749478215987 13.856535382346122 8.75407672507159
K 12.752117402573804 8.390294135001538 10.611545131000463
K 5.588090978363342 6.9035138453496065 10.256799794293345
K 8.529691823383505 10.045177484684745 10.909859441427674
K 12.063387275750658 12.93079034429352 10.780045726335402
K 4.144385154878478 11.12205722613796 10.867151746552281
K 9.248019138357355 5.82105460631514 12.635900097687669
K 1.8436240986816106 7.304784734595175 12.183731537352845
K 4.982350252236379 4.077508698912369 13.363118875804439
K 7.106244077427793 12.9711287339059 13.64522906997511
K 5.805193507588319 8.596137482538882 14.396452875796893
K 10.30484540303688 9.82637881572605 14.601615899891657
