29
Energy = -18.67319406 eV
K 5.131083693668139 12.627657800516978 2.203892011044495
K 6.116983545677085 8.042166938174727 2.279598947564073
K 9.494843684894745 11.182771117538936 2.1683246744269997
K 2.4693260142657887 9.979166745013236 4.993358066113629
K 8.353727797721909 14.68173255345119 4.820318884728734
K 7.797983419138023 4.064657338366913 3.868438280429249
K 4.0776998006592535 14.03836547448561 6.505528357567929
K 6.778291708226719 10.76777031113777 5.636670142945338
K 9.886911434351587 7.609503263222312 4.808983076115425
K 5.149117896501595 6.7144095160732755 6.487606448103569
K 15.444712826724436 10.508736339778183 9.242645113421048
K 1.2520352796427807 7.4194768610757365 8.401741782401636
K 11.333899093981948 11.586803455086061 6.6692467312602925
K 12.13688918702894 3.683068137511526 5.950987861473978
K 12.587339543044525 7.424413298862234 8.315845838187895
K 8.691200022249602 4.575756894524009 8.316119512607052
K 8.345247630425847 8.937095239711415 8.818661635385645
K 12.52629466637139 3.4906141760006566 10.471169464089368
K 7.814323131998662 13.300405261601142 9.242085586937069
K 4.141280408722408 10.535256388581397 9.33838308479785
K 11.49180862624609 11.043566908207548 11.17501946006042
K 14.32541258867838 7.494297781622296 12.44636991565523
K 9.97347797794881 6.851829106767742 11.858378821560347
K 5.336526089564517 6.457938224604567 11.113849901430326
K 8.275436594287983 2.9245116259707715 12.504407580477693
K 7.197275882133155 10.321305500813242 12.886932330688166
K 11.808437004982462 4.614967326344598 14.992982098245685
K 10.967193401791096 9.057207690175606 15.381302615332363
K 7.351100299395334 6.320407975104064 15.357011027271541
