29
Energy = -23.1503896 eV
K 2.14424888114757 5.450589564864606 9.342935829841448
K 6.156739071258245 4.233740310203101 6.641029591911326
K 2.2969483321581947 6.70489711686533 4.858005176402783
K 10.232406893685834 3.428772588005088 9.077856873389058
K 6.450780031825236 5.720459452724801 10.991568537116551
K 14.977840131524456 5.849872726261644 4.17448960623084
K 10.568554546482824 4.5144496407908985 4.589737550718736
K 14.096819853713981 2.4750691083318075 6.895554215643828
K 0.6823622406292902 9.480969326329062 8.01843166380421
K 3.4857745173213512 11.15630929525932 4.748348596468949
K 3.25640703933367 9.042501176906505 11.898390430447664
K 7.013638245099939 7.72760219541437 3.7690091402102297
K 4.847223729653767 8.412020743550576 7.737199507592831
K 14.412910727689688 4.280473995573044 11.206970148952248
K 10.981461186453807 11.340352035301265 12.982480449671785
K 11.746071883071513 11.036227803652746 8.652882362295902
K 8.21155621555789 14.23727953010653 9.61198466860069
K 10.82057849508704 7.07809497217639 11.881576104830883
K 7.188950166568526 8.627991040151942 14.457260823189474
K 15.719811551067622 9.715922481812992 6.856341119578191
K 11.583041102596264 9.057801013456423 4.502335529848956
K 13.245759236486728 6.606137863765698 7.995648891850425
K 3.9506094700299563 12.601670397206918 9.078492065169295
K 5.623933380286941 15.075664967305208 5.9079903520685555
K 5.669626390082283 12.776701460804098 13.230231133054923
K 7.998776694182083 11.46523453798379 6.023211331591942
K 7.5998778444551505 10.120297797762142 10.48192653162959
K 14.74398879315616 9.120035506855515 11.494944490973609
K 9.007406650471435 7.376964651655827 7.607270577991475
