29
Energy = -21.83607656 eV
K 10.39326442037172 7.451735971825443 0.6865980242329626
K 5.780675420292437 7.516922284161132 1.7188535537261975
K 8.040052286950672 3.6737434739071153 2.2866503001046414
K 12.294304877279838 4.784384569802389 3.6977082289843404
K 8.589729004382953 11.055413201366438 2.711703457971285
K 4.9340053570886955 5.009844054422785 5.701694028090655
K 8.822322113297577 7.089404543425812 4.680511068940858
K 12.697637346144667 9.376424523459653 4.294313175615162
K 4.973562701065204 9.43887838847065 5.786744076042278
K 9.117692437206475 3.2125102571634883 6.725135677193359
K 11.451310743544575 13.482241940798836 5.41175812618199
K 12.841477260598907 10.794497316502682 9.318342789079313
K 6.70239576988571 13.636004483864124 5.920336533834979
K 9.133465288952989 10.391798737167813 7.207964566574806
K 9.25838770936886 13.820995191921652 9.900468647340343
K 5.151553448969167 11.50119705670444 9.783894627347658
K 12.095929138538226 6.633221629565137 7.98792608939481
K 3.334092939806111 7.336323961190148 9.800085468254004
K 7.540971075197606 6.841816096942361 8.915568421931521
K 10.369626653113478 3.9212262143186227 10.954462157455502
K 5.664736454323981 3.4051642757629725 10.416057616038701
K 8.672600049108894 9.769577631733469 11.607991465945885
K 11.576955110158746 12.207155263647614 13.631991249881592
K 6.987317641665112 13.133315306591824 13.75791518783635
K 3.2432469138626003 5.07826893897368 13.877950425908805
K 4.6172482015796374 9.30375370387754 13.734737867204974
K 12.100372030819315 7.6706202504893515 12.761284381724764
K 7.508733869072925 5.879562068596277 13.688297837493007
K 8.931943823558475 9.409608749552284 15.858665035875351
