29
Energy = -23.32893246 eV
K 0.1537718452444904 10.37567652929648 8.972911030746282
K 3.341864600960601 12.866743738225837 11.391460830850125
K 2.0517542018317165 8.697818620475607 12.924621714090522
K 3.5065394408719306 12.733568004357142 6.538044282637411
K 1.2233985109865573 5.924904814387696 9.235772857694977
K 2.0718800271718716 8.290357125160773 5.222057145885739
K 4.228284458881428 9.161880585108541 9.17795398497397
K 6.630103929254548 9.841784394291013 13.078528802543216
K 4.450226064330713 11.069867382202002 2.275690882275907
K 7.407989363765421 12.540608701458424 9.227661271094536
K 7.7317386578476786 13.267087621489196 4.645912990063601
K 5.12168829293755 4.860250944650251 7.046499181348939
K 5.306261647054535 5.295867210989931 11.662775408834968
K 6.552726215156446 9.117265517534126 5.4658042158905715
K 16.19039347353097 5.891667724185609 8.516512941211637
K 14.91793206408523 10.241785572133008 8.923266058970214
K 14.39592389329752 7.460136265274257 12.5662955681638
K 13.968806973489114 7.9638861322971986 4.89949604382749
K 13.272574817670698 3.337797438213401 11.055867469650707
K 12.914679112220197 3.331771211471522 6.291096281436279
K 12.00624903210251 6.854995511544262 8.802951959124147
K 11.06229116288771 10.63213963564685 11.62960175806977
K 12.180751653439463 5.183734107288922 2.001676492629824
K 10.79850285461232 10.719925178042178 6.818565721035522
K 9.983529608843705 9.238099851525718 2.624718422302745
K 8.875059749300702 3.3239785287578654 9.218698458671001
K 9.928270145016928 6.015414804192093 12.91741172545287
K 9.217434190477896 5.553420406648679 5.213541311827021
K 8.122786987876927 7.820979418299156 9.268018163843564
