29
Energy = -23.24745108 eV
K 9.242435716758987 5.71415442950683 3.567305857589955
K 6.103515717952589 8.735991890675196 2.4713556107943377
K 4.67074006830879 6.310423007456717 5.733325923258862
K 9.25548611539144 11.442093378211512 3.429667619349925
K 5.035276538631465 13.064371357477764 2.9309661784809595
K 7.856960438861756 3.4658744919027518 7.561964874923656
K 12.858640323250851 8.622153908179627 5.106850259243055
K 8.988882775893385 7.945136064853051 6.9801224404257605
K 2.158452583143797 10.051184496893734 4.361687946004786
K 10.559682567489583 12.2742538513848 7.605225546201261
K 1.71615426786374 8.932042229020515 8.477549959220472
K 7.482465068943606 15.009508219005047 5.811614960149608
K 5.896769161639939 10.666064597872685 6.919500607536003
K 16.182776294083983 6.677758525755971 7.685603523709744
K 12.323224079457809 4.629428463185485 7.087334771628774
K 5.34060992761389 6.624806141559507 10.029495946180397
K 3.0173396719385823 13.536894446198621 7.493817234426841
K 12.926117473639486 8.999826753663317 9.602723749654652
K 8.405427273557601 9.889583372290874 10.977812913524824
K 7.095619890479196 13.99781477171501 10.013181351864299
K 11.444707552874068 12.656907589735967 12.074032643154545
K 9.877891584475154 5.8334812576139115 10.689565405656467
K 4.127859137954919 10.830604372537145 11.479429595806176
K 6.967460151283993 2.767448410943613 12.047755074504195
K 11.047965324819668 1.6548805773544262 10.419327976130809
K 14.158017509156455 4.984121272084673 11.421653621967751
K 7.256672495288062 6.963852620245568 14.145443019882906
K 11.786251049607326 8.306821242416868 13.89660462542299
K 10.723940235888128 3.9198592565072135 14.486421759555459
