29
Energy = -21.46793638 eV
K 9.820926920711054 8.305736964868945 1.5714101845851562
K 7.074915964718677 11.798409216187423 1.1035433177507237
K 11.34412959447833 12.500883997230599 2.6739069973068443
K 5.340268762064648 7.755766894909629 2.7802045917211897
K 7.795338427946888 14.683090414336545 4.485753642636498
K 12.41641537984814 8.887067116602397 5.510703020557078
K 8.157498714802124 10.479844648715813 4.923209869553868
K 8.722212413172691 6.020077522114681 5.351343061629796
K 3.9777025693062287 11.866471219256573 4.540443823905873
K 11.070482761181676 12.93921217478902 7.580348103371942
K 4.527737596715313 4.680833183019254 6.106632970303742
K 1.5325400892718333 7.963592660491767 5.0878639391347615
K 8.977307747083083 2.150550923324439 7.544583219841382
K 4.8681357079465135 8.768670136271657 7.61338233526354
K 11.890729674556015 5.443220294791028 8.510589136601107
K 3.0733919993512266 6.130236202185132 10.86081365073249
K 9.179895011544364 9.131952372460605 8.672832080300221
K 13.339908392669376 9.630054059057105 10.116205766635346
K 6.568175035277619 12.807345027404493 8.709596514835644
K 7.119654379410707 5.365864818807898 9.648288825661984
K 13.907150468590112 5.636981762569878 12.595846663438147
K 10.080913523211912 2.9639483164764635 11.97181863574007
K 9.961630851748309 7.395433516648488 12.268307475431397
K 9.758716466771068 11.968089521611722 11.99059083293713
K 5.867820937021551 9.52042283711722 11.891308985080794
K 12.806253338653795 9.469914321632558 14.743116800807956
K 6.253724246535493 5.370206490502341 14.023708471728446
K 10.63884753647376 5.41207513060765 15.797152829376522
K 8.296142111466928 9.322614878539175 15.695060875660344
