29
Energy = -23.22341672 eV
K 7.0335064387455155 11.335090476155953 2.7171403046640523
K 8.014971172950348 7.2695062685168415 4.353750459560668
K 4.6453964066608195 4.147401140514622 4.516795975881052
K 10.642812060742308 10.6762962758452 5.703807838839972
K 3.5377491377226313 8.683299479093268 3.9075966470167516
K 4.8906716345192764 6.989525300728347 7.766537359708521
K 6.325598927985985 11.077166258363263 6.867683093542
K 8.281135358953296 3.825747227156709 7.570925110222229
K 11.934331958994369 6.165400511508679 6.1446187759724795
K 13.484702778921939 13.218439197679041 8.47480901439116
K 15.083804175607254 9.423174998115243 6.31260038478594
K 1.0289445802835766 5.910917216326626 6.63488858665113
K 12.413048140680049 9.22025041404445 9.675847674340167
K 3.1052976013528997 13.105923349122303 4.836670572152504
K 1.855744864065224 10.2838274184389 8.070037567893502
K 3.7571465011104097 3.0106765246821072 8.886119738150533
K 12.78221861333537 2.319921307795672 8.135530407822468
K 2.0719025423674573 6.737950200836305 11.007923593492093
K 4.1897364637164864 13.91708085977098 9.229661236780546
K 15.270269346535006 5.837420052645941 9.317895711063668
K 8.659365835612512 8.047733325493212 8.822704198012964
K 9.039540581279274 12.447795641477178 10.076296114622783
K 16.342194988567535 10.278083981955389 10.597979602453911
K 13.90457451451605 7.684868461095917 13.394560927885143
K 5.336796719049263 10.051775536280543 11.355617520894397
K 11.070486820901023 4.972159544486399 11.106984302715567
K 12.749170920683436 12.1206459696179 12.85200171116589
K 6.501064008426317 5.613899149194636 11.78685882646937
K 9.349571782994637 8.92977879033919 13.17791162012934
