30
Energy = -22.0337851 eV
K 6.7185578074358 4.194168695567844 1.5597417655151415
K 4.474449095318651 7.963202460034211 1.7062147100506977
K 6.100281641392441 12.05446830314613 2.8676350933879227
K 10.636340026661447 12.65964684842873 3.0863571303578117
K 10.938207032969894 4.981654444537482 2.0017276273959053
K 8.723560300184936 8.433618439326885 3.4263752989001746
K 3.919461550289114 4.583546080835113 4.877956184763142
K 13.084843940620617 8.952735322844266 2.7548908302761883
K 4.902537929818166 8.650774489420288 5.895499975341993
K 8.20615801293809 3.9858011554797828 5.604120493694074
K 12.38148496149656 10.501765460357579 6.8684136279353165
K 8.16095939255096 12.137769331264687 6.664075553510991
K 8.794344848088517 7.82874022293294 7.826330316678186
K 12.319383945143654 6.005187806556441 6.200709881411555
K 3.986522537330609 12.907348603933011 6.967153525494165
K 12.597479896567368 7.616322096592542 10.464624386968977
K 9.75211054782277 11.108113811424928 10.578375942277885
K 13.754617995216199 11.906778352121965 11.520514540188348
K 6.637521692669178 14.05645489620393 10.780195816497839
K 9.949498080517223 3.947371154611778 9.83107971072435
K 5.424979881427493 5.267271632233334 9.281956695109159
K 5.332184451771296 9.846673483428974 10.082960027674103
K 8.308700645678552 7.283797158677571 12.230216371483106
K 10.239296574187906 14.018677049005088 13.611980321356864
K 11.341238986544251 9.599136798726663 14.62849734047337
K 6.915005353372502 10.990828088933487 14.341005299945973
K 11.174495950852915 5.005026708312709 14.326899594961558
K 7.046093367319002 3.4785145198450453 13.723567089550441
K 4.389302868816908 7.088938696645375 13.806300519510465
K 7.873594208858443 7.028881412433918 16.56783785242648
