30
Energy = -23.98805038 eV
K 11.484934520995987 10.54298280957031 6.906709571625451
K 10.891697097794651 5.750907572357161 6.369576681446808
K 7.173015476654404 7.581077307973513 12.621370272070966
K 12.390300880062279 7.982616590354275 2.9731626350413625
K 9.342385297785766 11.143719734071889 10.939890860180492
K 7.463056975274719 12.826937724234503 7.12800826866828
K 9.097064001303758 8.501036386045334 14.696072154974534
K 7.826606232637876 8.501895434942368 8.259955031793579
K 6.5371004703333995 5.619980311535725 5.682647948505669
K 9.322062280489924 4.8442841696461905 2.23049294049952
K 3.8916434516630702 6.647891109405378 9.480401246928013
K 5.289352532149099 7.305447492759372 1.7797739012756209
K 4.2950342467934615 9.738207334043313 5.924503262721697
K 5.201215230723855 2.767122219030631 2.9622879746729884
K 8.559984841427516 1.7996582794156821 5.790320153315617
K 2.384355783744326 5.422760275948997 5.2292285088501815
K 14.542311768467236 7.615613669854662 7.873490076481311
K 8.324459773395224 9.72069794517791 3.823917042914504
K 7.307501568881598 14.890591105299702 11.267491212041996
K 11.412969656367226 14.560153479370078 9.208642248506733
K 8.019545447936016 4.024307676272251 9.836471863743233
K 4.770919081335597 11.071404052454263 10.353815858014888
K 13.678026347108851 10.888680382192948 11.09627511880292
K 4.532826090422682 2.151947828008455 7.599003014360966
K 11.324754438227941 7.0312449112737125 10.768012598246093
K 11.047826057610099 13.716937414580501 13.675983404107097
K 6.833421795101551 11.682009876390453 14.56805259183318
K 10.902494483474241 9.226602771411406 14.696072154974535
K 9.905027158078482 4.820039613013183 14.354033373903984
K 3.4095653580992065 8.784702867706224 14.023071620012802
