30
Energy = -24.01686616 eV
K 6.767463605296517 8.456798221619755 0.3440268511620786
K 9.570124204136857 11.779700541049884 1.863534591901079
K 5.0410679727291035 11.911448929382821 2.8030038806463566
K 11.124565700874655 7.3953265933053105 2.142466423636341
K 3.544951376618113 7.538098768494727 3.64642912188081
K 7.190047094155139 4.675184266891353 3.272605115425144
K 11.367223995229814 3.1467918631335072 3.959982940701369
K 7.702721724612586 8.950872332363826 4.643634330800713
K 11.953619638205332 10.475611341724516 5.745139655066768
K 14.421737583495862 6.710471096325151 5.279782696784687
K 8.19689482260548 13.265358152515738 6.324465021610527
K 10.339342774399842 6.137704502911263 6.7590314430164415
K 4.405285293107363 10.807960966824274 7.309016067734018
K 3.57274706325169 3.184536822945224 5.618827622775598
K 7.780962339557846 2.5000117272743942 7.359551204077481
K 5.63549881415245 6.393153251321234 7.709547328505559
K 13.051995073869566 8.337740881309816 9.877717677087821
K 8.61993719554986 9.573696636235754 8.844197612063306
K 6.881801837026234 12.923665391397194 11.157576933032589
K 11.391869954890742 12.897121199101997 10.100051071710524
K 9.190487258099644 5.363569633012929 10.989892281576775
K 4.938647934467983 8.777734370325735 11.508921634806265
K 13.804331937502443 10.965609731966527 13.528941510256011
K 4.939697616925203 4.175756771301871 11.607624022834882
K 12.200014731108961 6.684798059842495 14.395872170918794
K 10.077163989611824 13.555492928902282 14.553113003267478
K 6.043174704941555 10.782704525984343 15.455868117960446
K 9.514316668401088 9.579666562650331 13.051129441122352
K 7.5224264337456574 6.01173748208344 15.070619713175097
K 3.2458190647832246 7.077614851154767 15.113368917815857
