30
Energy = -24.09410348 eV
K 12.816822400630754 9.71882221171325 5.00868265294002
K 16.4984236856034 10.06211124433512 7.531093496834915
K 10.839730668063696 5.53386046587745 4.226824563259228
K 13.465225842500748 13.71791529638124 7.010375231289203
K 8.137039782497787 9.189414220763437 3.8874061327996445
K 13.999477364260215 6.3490537606322475 7.743326428131844
K 9.601311134789496 11.750100782751963 7.566056062188763
K 9.14684894994166 15.899271938042103 7.181643778821697
K 9.904326206229658 7.534804342666216 7.790187370872136
K 12.937873508952162 10.249083298829278 9.997495767284418
K 15.866486831407041 7.881009283562011 11.631759331316392
K 10.30924243715757 13.261369156247286 3.5881958385322017
K 6.422389991517863 5.319592833481381 5.697058148696096
K 9.584343159876248 3.163243661444034 8.170840830135523
K 11.387568283712612 6.051997305312791 11.703914485431394
K 4.340910162820972 9.049310148475913 12.20629616660292
K 7.520281759152755 6.341116517780134 14.481963451888126
K 2.5327871460361018 6.2817229682852735 8.941096120495924
K 8.822770848740424 9.854918840578131 11.804316913212258
K 2.103129282667699 10.83055009002854 8.753356545968854
K 3.7644187134599827 4.269349792510391 12.773670568625036
K 6.164539834360248 13.10918452966384 10.230069095013354
K 10.983517954732383 14.097919878020969 10.886297022595874
K 5.950733311719712 9.247007240694606 8.056677009689125
K 6.877898537461662 5.866202465286755 10.32781643707412
K 7.844908483101017 2.3038678388062457 12.307961493790431
K 5.913212577230244 12.843297737703567 5.660118855019825
K 3.149725849827979 8.336853923217866 4.943504886521576
K 2.308057508504763 3.813269841096755 5.330354447795057
K 4.95307367670396 2.220854279472388 8.708716760834875
