30
Energy = -24.08357945 eV
K 6.598775382068408 9.162923824243046 1.153757104962148
K 4.687614765062778 5.309684366358022 3.105444841751922
K 9.393409546682644 5.930078976878893 2.770415792087015
K 7.531553322083764 1.767154472348169 3.5090796753963986
K 10.400468872593013 10.353856413115759 3.889053644744478
K 2.8636593070951353 9.583494451661897 3.7342498892149942
K 13.50660909321429 7.034584349784449 4.358474317067995
K 6.3149615405313355 12.633400091556062 4.159355438763373
K 6.683408290084506 8.535654890001721 5.31561985968146
K 11.301274575538079 3.268889434620857 5.786401884985581
K 7.012929729426954 4.170837010971028 6.907343387358513
K 10.446734937397895 7.319736679209565 7.131416244807438
K 13.200550824565422 10.63923223169348 7.928002744679909
K 3.20991169115546 6.6949890829598395 7.3109504267029415
K 8.888393437836593 11.82130547853707 7.949248973109169
K 4.44307403431717 11.28567020007165 8.239671636318516
K 9.876078469974914 4.5486538504351515 10.69230969919472
K 13.988440219882882 6.545617116550858 9.80222560168085
K 10.950507252637191 13.31520333353196 11.784971368009879
K 6.978386115923967 14.951157264464367 10.431970301658856
K 10.638227620126148 9.030734519172874 11.219136471316707
K 6.89350903526266 7.805697726197355 9.574283225636185
K 14.302110507544377 10.224922579463069 12.705389574826809
K 5.25352481983204 4.230276749122225 11.140427101484363
K 3.534520358513126 8.399679448195812 12.051243908234868
K 7.650668739940997 14.14223208758377 15.130621179487191
K 6.832800076369537 11.158144776721041 12.414249838660343
K 7.778498178515954 7.009504746875699 14.025269533781755
K 12.307119134500796 6.406597836456265 14.215219853038167
K 10.335067341292246 10.52287323118747 15.366983701326548
