30
Energy = -24.11222449 eV
K 8.175852347603417 5.639705557701261 1.7540936192597658
K 11.787551363927218 8.30555887905026 3.0709454156534965
K 11.667024480097265 3.4504319333410605 3.540632623288058
K 7.128946730396785 9.78260586251787 3.639653285915902
K 14.265058564922608 10.099075979543166 7.280241089267431
K 7.451090910228605 2.2202883425859823 5.1378492877675725
K 13.7549769492235 5.809967407309935 6.575995458326856
K 9.325050169896969 6.385288884050194 5.943864827310802
K 4.741965269506295 5.905047263464005 4.90143462586317
K 10.17112952283243 11.221669482376122 6.673569607669948
K 3.10456387063057 10.258998273541911 6.025378984092201
K 6.265112713692114 13.43155711742608 7.258587400595767
K 10.855226670199364 2.778763325184437 8.21152947845637
K 2.8494593022137367 6.730301862140192 9.09100328772635
K 6.565571268713323 8.880349649155185 8.073446515656492
K 13.156198248942939 14.439737783977323 6.858620352643902
K 9.755321049250552 15.404576949677427 9.52131206989342
K 3.6914197134011904 11.14653808121254 10.666471908713168
K 6.790176461334379 4.663382504118757 9.136844765809961
K 9.57526381434675 4.34782129305152 12.508022859744766
K 7.266072570762681 0.46016184564569673 9.589487145641932
K 5.8212988875562495 14.963474054880605 11.740209052755125
K 8.324502269737817 11.412834988287754 10.910766688234231
K 11.000138946943757 7.720047812788082 9.9142025235663
K 3.531464085172538 2.27523121907134 7.418066570849838
K 12.688724954929661 12.090803225809722 10.961679049454137
K 6.235217395647295 7.575952318484927 12.548625722860342
K 6.1002863080751775 11.48596200064677 14.830942042541393
K 9.868464338624875 13.98383087362424 14.025155233648592
K 10.101222160519345 9.144386568663812 14.205719846121069
