30
Energy = -24.14636234 eV
K 8.032240827348554 10.407243586288288 0.8442733829571811
K 9.92766850206939 6.089338405124246 1.2223637600657637
K 12.255851279754921 9.816105249845972 2.5601120827357375
K 5.374462674482642 6.647707381679004 2.120106215761221
K 9.175272232486742 12.825864361594837 4.813516084932005
K 8.559369886114629 8.406003092885959 4.646112930354325
K 12.365991804483539 5.916456449033428 5.18149334809941
K 4.7593537294572075 10.919201396781999 4.335734332454942
K 1.4651670359335294 7.654288486170425 4.02831441670039
K 7.894598931207614 3.900169329981431 5.006462287803136
K 12.065236713700532 10.147563760039402 7.273028051129065
K 3.465994866860891 3.4786756795488447 4.98302402338589
K 4.619585779958945 7.101999957721324 7.022026448308906
K 5.945535085702629 14.491384216432492 8.013738214011099
K 7.163689992269833 10.591019903922458 8.282223625898826
K 10.322805994760905 13.600337236957946 9.839347646829493
K 10.890741723314012 2.8366586557752744 8.647211642994483
K 9.101032393670948 6.615325775388642 8.470231504905922
K 6.112675027342678 3.5559879805042693 9.60635641601543
K 6.649238978115413 12.210297626791911 12.60777552162685
K 5.585306210897156 7.801514258168935 11.40836843997128
K 14.228309831778773 11.09175620255461 11.34922239888712
K 10.088137478609134 9.449911188643924 11.478206586966357
K 13.46063295891029 6.640802078935239 10.165598148570902
K 12.881846828582535 8.084450447870045 14.534884648650756
K 9.585422893419931 5.066301082914808 12.733369876121296
K 11.07530367982283 12.45304024784683 14.429532338335786
K 5.572829069670177 5.006865228943144 14.700805266186043
K 3.9541412444685924 9.426905935476704 15.150459989274037
K 8.35100144169521 8.696269893068317 15.4755454669558
