30
Energy = -24.20589324 eV
K 5.0111772811446995 10.746962542471577 1.7946963320403406
K 2.9136024113007024 6.668599178732877 2.7836979290506427
K 10.531274922403625 5.560228238440746 3.863746348202741
K 9.627128370074297 10.344875506573079 2.410362336959212
K 9.957496036965251 1.786971029458092 6.293015135386086
K 6.657586534701922 7.764126649926709 4.410680136065916
K 2.9320721113678654 10.19599009516919 5.923698974163016
K 7.024214754552835 12.45224159767877 5.669685087736056
K 6.109895685960389 3.3309245293322216 4.110801999061227
K 8.167262827800064 5.307783602061266 7.846840937232476
K 12.224034097675235 13.269807608463617 6.778988897376951
K 13.859981881790617 8.904253985795178 4.876249963004228
K 3.6329014949374656 5.750896392618963 7.38464848920286
K 12.772536778842186 5.6726310943676586 8.257749120813486
K 10.185031464450123 9.255653992164763 6.800729042037646
K 13.700254074425947 10.119175733217805 9.92652766863865
K 6.229447527580447 9.272694336344498 8.836194807258067
K 9.36345721561785 12.414376481320732 9.98257279673205
K 12.902202612497256 14.434028678339162 11.443639136018575
K 5.108508902853723 13.290220192584192 10.623830898804167
K 5.72304416195666 1.8281562494773074 8.506861994773914
K 9.944981720062087 8.003727144983948 11.08828363289958
K 2.7300696566462697 9.243883254751752 11.105590357497169
K 10.22601406921295 3.6213226310415605 11.677286855169351
K 8.618134426550494 14.455436261986986 13.681399392238418
K 5.927040391025966 5.726698130267977 11.833853626977442
K 13.654541201373899 6.638294541764297 12.953474195496753
K 11.491207391064101 10.824388058742882 14.102379626009933
K 6.807304974150215 10.116401013087561 13.498051715921298
K 9.615018062650531 6.646674290470486 15.181885608866558
