30
Energy = -24.16912356 eV
K 10.162505960273483 8.295818214033025 3.3151599590388585
K 9.949473073174277 3.5404526579060644 2.958446632954869
K 14.072602440633062 5.669071417006483 3.134477860748795
K 6.097349375951255 10.366108283232903 4.954752593632934
K 6.887694050537816 5.8884809744057875 5.445035812429859
K 13.765332725702468 9.2055163624291 6.172738966142424
K 2.6439248649917837 7.6637551926327285 6.493027834769025
K 11.52572019244076 5.199697424976621 6.447797466591696
K 9.641381439607734 9.063158817954132 7.512868370084711
K 8.358713875399562 1.913068221696363 7.031241965636072
K 2.892325209351234 11.912870902666254 8.362641317542481
K 5.653255458650076 14.876070125033305 6.007795153654627
K 15.645537253892615 5.20803276284104 7.4707533828068975
K 5.697315453646999 8.492569774623025 9.172250056224854
K 9.829311673428926 12.824636061210889 5.330749166972715
K 9.13028740193509 16.154380634073696 8.697849968739378
K 12.362006051968063 2.891798212736155 10.045206052048126
K 11.793057010656293 12.207929351645811 9.624056016338752
K 12.947556472875492 7.613515959316085 10.307219986300655
K 7.303545378693331 12.38607272244497 9.031543170370323
K 1.934553747232364 8.289463792703387 11.031997317204787
K 8.80391194272852 5.555352580386166 9.756930807305881
K 5.833664438410146 6.6915541737616815 13.079857501276418
K 4.7971019923579865 4.072005269935389 9.047429053040739
K 4.834704225528691 15.563451951779658 10.442842400741046
K 9.168025515633207 9.541610852091296 12.176380971263935
K 8.148950045437685 1.846102335431971 11.55967346598958
K 8.427560517590488 14.123523387441432 12.723817643985646
K 4.841168892198372 11.284340069575517 12.765440813426684
K 10.50567615059296 5.31380434555048 13.554231124258148
