30
Energy = -24.17860427 eV
K 9.402038685018992 5.103886497825149 1.9486850344573248
K 11.390236142670943 9.496247635939921 1.7627670448783423
K 6.87712230426526 9.15787500146506 2.932754288266654
K 7.426612522116396 1.2499771039783438 4.005118943764139
K 13.802737188820778 6.005900752633772 3.5932917627697027
K 6.2443994870625295 5.266824911798975 5.513605682554237
K 9.741039751241578 12.191291987785124 5.245923922487785
K 5.003321093851307 12.64238014242905 5.6884651583442345
K 2.655069808234747 8.49005270236949 6.448160164413096
K 10.261210814760366 7.575824494561848 5.5080716984010785
K 10.854292919405532 3.229684563158298 6.019739377044531
K 14.021463571695742 10.238708366814809 5.686399897314026
K 6.778792240915035 9.221278998133242 7.510061826591497
K 6.846538688504404 2.0869719118870322 8.6420969347446
K 13.59762490624409 6.3899120679498935 8.392060276095696
K 10.861363643313732 10.010636168893926 9.098289165734656
K 12.285962232424039 14.039872777940062 9.139069538548128
K 4.477422290389019 6.057002883466771 9.933648258580787
K 14.94626237536856 10.314757273374136 10.3430638717439
K 3.591445550148003 11.286414808729925 10.17055859574422
K 7.698178803232276 13.429934487008664 9.578338715416965
K 10.51326446681991 12.363691354181407 13.151485379847049
K 0.4846309478128548 8.154432207499266 10.567574660721995
K 9.218249434960567 5.613640421671107 9.58638045567467
K 7.062045925078275 5.315486253283425 13.612598367257744
K 7.391867435566085 9.29184046345727 11.726992048040971
K 11.577314851283578 7.8032084429187965 12.942067862323322
K 3.690095635593164 8.58479605471245 14.042390958664711
K 5.854023270119114 12.778311628350457 13.948032962027447
K 8.114872419264048 9.278657041964143 15.931806553726767
