30
Energy = -24.18072266 eV
K 5.910273358166529 9.613251502473283 1.4603247424986234
K 9.175031983126297 6.69218680532325 2.257145050926334
K 7.483672655019669 2.1299497627257553 3.0885209648587737
K 9.822208909999068 11.01181889836302 3.542657834168695
K 4.536109489084846 5.697743653605097 3.479974251565991
K 11.612665160173943 3.460731931330907 4.444096939373878
K 6.37575761213496 9.029258270660183 5.577338775548098
K 11.609846273173636 7.737993425779691 5.929541643838716
K 7.9333717072761925 4.866954464442526 6.156377140151833
K 6.329184476872397 13.561325738488215 6.060266641935677
K 3.945471173936364 6.300789221236636 8.263107297234964
K 13.484890136784653 11.894923539861828 7.072628665906715
K 10.455012244691988 15.325317241014906 7.343875840617032
K 4.636271443983532 2.058519400607357 6.627231310987587
K 9.097145548255765 0.7937871442550419 7.176456006396314
K 9.420246559496244 11.25952637370357 7.953343899573586
K 8.2444918428196 7.439210284602207 9.290644656632757
K 11.447361288932841 4.288295257443883 9.054642873952462
K 12.009306244965837 13.30048865873846 11.09664594023941
K 12.672940165352266 8.66031699359427 10.273785307608266
K 6.838677082868214 3.434977244196597 10.372606933362242
K 8.670974056840123 10.481920893771902 12.093137800754823
K 7.269661052143444 14.504647313272297 10.462708025965973
K 4.824621997824089 10.713803798947291 9.3830471233083
K 9.175145354343487 13.609248868872902 14.742935957291493
K 9.962355689932672 6.331967239101063 13.130301328539865
K 5.021923290264552 12.057506967516558 13.740457652447853
K 12.197743657240986 10.185540053785964 14.58568709302815
K 7.889051555084177 9.436708089733314 16.13599951852991
K 5.283382577895105 7.456085551236179 12.539307371439508
