30
Energy = -24.16701452 eV
K 11.712427755185352 8.041343471238733 1.9224229276203175
K 9.023078978345318 5.3463234856537225 4.472057285153489
K 6.858389218551186 9.273901304756887 3.389940237390698
K 12.388594021456347 3.5023620570053904 2.479634791383405
K 14.777654863518359 11.00122268271929 4.686517936524692
K 3.2742604216176256 10.248484829911344 6.408295507530529
K 7.1419369977867415 7.959541038618421 7.587349772843264
K 4.217365995074137 5.713654746739657 5.370106660742024
K 14.219795260991074 6.535690590377112 5.389505218216545
K 7.380798620912157 12.631691280956774 6.984027433198365
K 10.739474158252062 9.891897151105344 5.7133960807042765
K 7.50579637092569 3.586906013601543 8.486302444881773
K 12.088005610733333 13.567589996441354 7.842030918813665
K 0.20411926506141742 7.155512298154548 7.220425416743836
K 12.091802444062266 2.6056005243251 6.927218499263952
K 11.085363727190709 6.568750130321479 8.574397693487803
K 15.088285430693968 5.188417624955273 9.782552351605528
K 14.467963608847844 9.715642427268634 9.007318813561051
K 3.341462177597484 13.87470388297164 9.27409601716804
K 3.5973209935396406 6.052788024371725 9.953329200218015
K 11.157223883952595 3.2735034675513264 11.422673823351856
K 3.9207378860141966 12.81187674937351 13.669000207653383
K 10.088383074911114 10.576073081014078 10.375496527219159
K 5.538669616765361 10.307128294490994 10.57495457230375
K 1.1012892341782068 10.00874249583673 10.657835776388577
K 7.898924623514165 6.567521571921732 12.090700452160617
K 12.46152291025474 7.606921776552316 12.766032704077553
K 7.633818406112154 14.292259550339859 11.261845570522922
K 3.806546991506449 8.21981558944773 14.017511440179097
K 7.906585330817001 10.59173174034575 14.410621597460498
