30
Energy = -24.30941227 eV
K 8.420095844630819 11.046349732360476 1.270119745195539
K 11.24412418888972 14.116851959675609 3.109081624489991
K 12.680109617595926 5.1245272565176725 4.44118714476124
K 6.562846274744379 14.457162822847835 3.8806729217581526
K 8.482484216358696 6.942783602614392 3.8447436376831785
K 12.562672983412142 9.584043349054243 3.081144403989964
K 5.024583892324406 9.965118975022355 4.380604631473674
K 9.223345506316404 11.379075826540436 5.636895576543044
K 11.684236456448925 8.099073354105267 7.283695292396095
K 4.668598118881542 5.423598435854075 6.15939327382552
K 9.64022141672377 15.428531198323927 7.236822576664506
K 13.511100591882022 12.55679471634699 6.9626828385289485
K 5.364792930766999 1.7163194113511573 9.149738123511677
K 9.12216638005944 4.0057135064121265 7.429175217209183
K 15.849991365244783 8.769696822052936 6.1490655002741965
K 14.060403843521579 9.59911384464699 10.660693838091756
K 7.311438687169266 8.576397048401327 8.040748565833566
K 1.6653787315245558 4.668839956993502 9.600760742867342
K 2.8194600892725377 9.168321371281626 9.021938923941137
K 5.780026083258128 12.8891362940368 8.31970542415432
K 5.862913727020247 5.7915976901500095 10.629966762970811
K 10.078773596883876 11.766977046676542 10.223445169537884
K 8.781803103136353 2.4923821841257188 12.117008832206132
K 10.259176833219929 6.787565148133085 11.055346490333614
K 4.020959904987269 3.1259401890571237 13.333542885345038
K 6.212502753879784 10.279654928455539 12.18807286437778
K 2.7181768312183987 7.5725308515985095 13.255105907676779
K 7.061174483104506 6.484141966162963 14.82498000383788
K 11.433756558489318 5.0401171742770705 14.83136575736184
K 10.328487792384804 9.57744614027288 14.318098126509396
