30
Energy = -24.37230006 eV
K 3.0748871380765075 2.177141407453053 9.327509062559454
K 2.1769988748143634 4.384790872264876 5.377392978450164
K 5.687075814238358 9.378094292415648 9.356938240251472
K 5.687077252014156 9.65590540283773 1.4582414905588597
K 12.866273145966199 3.4575253229940293 3.316162103496083
K 0.9014673239636591 0.1657630331504505 5.675465334727426
K 13.252513925907053 7.538200755977941 5.6622639209836905
K 9.98740322964598 6.762931077076679 1.6375169526024764
K 0.9164523809435049 11.011608991081413 7.892693349105351
K 12.866273145966202 3.2836097569049714 3.2989492788561345
K 5.690791611641302 5.327807478271334 7.516694074352898
K 7.859852910364294 8.600427228269586 5.33875094243245
K 3.514768734122112 8.60939552586385 5.347470758227459
K 9.73001310293673 6.7731630637170746 9.369961297659282
K 2.7447008215662576 1.987473507482637 1.777292292187227
K 12.671537383722281 3.47624070526049 7.930863560919675
K 0.8765307559673543 11.052072047687469 3.124404912937434
K 10.490680502509552 11.046112571525386 3.1130622194992825
K 12.494305503760005 7.518001528121648 5.535945498611464
K 8.596804155290029 1.8414336169562213 1.7841084739259876
K 10.460984121522298 0.1414125670210611 5.68817873290694
K 1.4244841703625493 6.790210285214922 1.650601029141212
K 10.472573930448545 10.994314891399664 7.874889094834018
K 1.650958734576524 6.7712521898245575 9.391083390500564
K 5.699742372388172 5.2973436235121305 2.4354579162260506
K 13.070483447408119 3.4731197955860242 7.952549934525333
K 5.687687492068882 5.323626356100421 11.794030161086278
K 5.676412090837653 1.2564627520911371 5.327738600303965
K 9.200807061024936 4.358117246103641 5.348361480816324
K 8.307716513857912 2.1782929177243173 9.327273727204092
