31
Energy = -24.95875211 eV
K 5.9791717857420945 10.333219663707942 3.317260922471607
K 11.2222720393241 8.678684515038361 3.3136958786515582
K 9.827194536724512 13.218452456723485 3.6898594958172946
K 2.974805192690439 6.659816981971718 4.582244347754636
K 11.197406926231388 3.795979490596613 4.305351991950142
K 5.816388326012318 2.62994618041568 4.729050398062377
K 1.7150449134789993 11.199330101237617 5.381714956824108
K 7.565270455800069 6.5002945474622855 5.151543977501009
K 15.067445034077949 6.5004805741393685 5.035755524591825
K 5.487790013000212 13.654937575782844 6.5916358620269495
K 13.744953551450758 10.873845490539233 6.680104614784145
K 9.039284074448151 10.675363327391004 6.810571236331265
K 4.86582606922771 9.329026184113264 7.629867926123526
K 11.519967392906716 6.905746153385269 7.4493575669234895
K 0.8848193797882371 8.023723655814505 8.657842057961727
K 15.254378569416932 7.761481794521877 9.857804783655634
K 4.362259875724764 4.775131777477547 8.54135050072699
K 8.953710636721024 3.168236346870504 8.393844890684807
K 2.5969690321642513 12.264014452690647 10.133485739369398
K 13.784664144333595 3.3647641049652903 8.232163046181974
K 4.119741443403992 8.406827552572405 12.134279247381748
K 11.342745167170033 10.162589589560874 10.537211554289009
K 7.205638480788277 12.122079496185469 10.6384025675364
K 14.895420798318039 12.333414590974359 11.26704446790208
K 7.91157305274846 7.413790049178102 9.809841993536182
K 13.445526641125575 9.067178865661948 14.154264342270642
K 6.853065217941158 4.4835403442931225 12.591291718974894
K 11.599848275647847 5.573222598257519 11.886139817809044
K 5.36385900655914 12.233285456165614 14.43352547334903
K 10.587578027992183 12.941797088233775 13.855637713745931
K 8.604508199396177 8.738925254425652 13.996981645163926
