31
Energy = -25.03256964 eV
K 11.334492459353951 6.134051142373267 3.421317635823037
K 7.485056841871216 9.078258552712335 3.6691570624465344
K 6.636393369472249 4.417276102761148 4.408584615427516
K 2.984965183011901 7.238885158349871 3.66702743385866
K 11.929690058892534 10.384338540471887 5.178314148353782
K 9.076962784586721 14.009420827277113 4.787982420164567
K 10.325690421435286 2.5008649737726225 6.680835810534417
K 14.048205509176729 6.822395950683605 7.404222715379248
K 3.886661385762192 11.462774540478057 5.726950310246883
K 9.499938937583112 6.750535254302366 7.142050254016025
K 5.160166268604872 7.4251823377717905 7.40724539724006
K 7.941395278716904 11.01450093128875 7.712778016972506
K 2.7639980088463068 3.7701980947110076 7.002379091346699
K 13.645663021790421 14.484363662700686 5.126515129322438
K 6.123686625639611 0.39767800916517604 6.4513626897642125
K 15.234298479702916 11.423692558148527 8.356721100408244
K 11.286853243440952 14.14092894477831 8.919134444579381
K 0.9797688675547139 8.2245372528694 7.716026852354095
K 6.662550299669855 14.906018009940302 8.88152350690229
K 11.536148433765087 9.657364061599074 9.782780377578112
K 6.763010424000722 3.492019682296429 9.443502905806033
K 4.1139265379730166 10.82192852827805 10.369056644698562
K 7.600703540517444 7.79565604022029 11.008280643244404
K 11.271890846788489 5.008752303667335 10.951405763874101
K 14.967503015255947 7.980756267438022 11.829250030188438
K 8.50461914095853 12.168554284007183 12.195054180349947
K 3.2384161872852535 6.054356697061454 11.302909420525737
K 13.357976209824791 12.215529097211174 12.720315197610262
K 10.833588300124896 8.477890506118376 14.124440396768504
K 7.009308711948231 4.514758826004123 13.778488421673849
K 5.408443345044033 8.838504600141166 14.446359121140535
