31
Energy = -24.92888385 eV
K 10.156704137043205 5.83670582717299 4.667424342964427
K 2.444311955419043 4.688711739285384 4.833292667344978
K 5.84962900269627 7.901107626040769 3.3265739071759324
K 13.956020095900092 12.532150675028944 5.6778138554020225
K 6.213971192179994 5.011210519100504 6.787075540238316
K 14.233247842637091 8.16027173434617 3.916545821000378
K 6.231907711630145 12.51133525684448 4.9185451787406045
K 10.25562595187076 14.98830658644833 4.145303876820874
K 10.24809350488136 10.539187895118419 3.5329012668837154
K 3.162449230140267 8.856849862264506 6.912763639059229
K 13.649510202530106 5.125056233450618 7.487192202899523
K 7.115526346994688 16.203071705460825 7.39757711836662
K 4.289370638704479 1.1806300541826296 7.493424948527632
K 16.24479965903055 9.162092720041564 8.00472993668132
K 11.962970695674276 9.164953094422618 7.637873651057848
K 7.801721809938708 9.18742017280377 7.0607665088012945
K 10.043217663812824 13.181845469512007 8.084127539262703
K 9.1482635334167 1.8262103057832462 7.505461132859852
K 2.3057524132428138 4.891685961094607 9.495601209519656
K 13.774865099052466 12.080522374503072 10.654684948694467
K 5.387945784234751 12.105467913645109 9.586384883426195
K 9.820134760462757 5.65621870662032 9.635107087037015
K 1.9427672425590143 9.217085017303534 11.428376531463195
K 5.791062515088758 7.514048372199195 10.47386113270988
K 6.367785486751183 3.0131576097305848 11.152988222352464
K 9.357051939943354 10.261911092328253 11.333173128924127
K 3.9052965501766947 5.7767588973535045 13.943562975293467
K 13.454924840286399 7.582009190724186 11.580246408997093
K 5.55003646037207 10.125425580919886 14.087125471423292
K 8.636187893230641 6.647450445609816 13.917471741679242
K 12.056634813100437 10.428928333661316 14.67981009739382
