31
Energy = -25.00619711 eV
K 6.778203392747451 14.10766136694801 7.079025945068385
K 10.655453283025373 7.426967341520539 11.350567883073744
K 6.719720209672957 9.90828841270726 5.957108860610236
K 7.514533546412841 4.830885299058926 12.986809433146007
K 3.064366079396936 11.966375454998587 5.244830141140131
K 4.338239627801697 3.783939422496296 8.436003259474179
K 9.545727746912506 3.8103949280945213 8.78815260840283
K 12.128921396124625 3.8051070606845454 12.990937280852053
K 14.539426528820151 7.840827954796664 13.078234690930993
K 6.991157156607788 5.517287406555036 5.334601993580178
K 10.973992692084925 4.464186538306626 4.042362728874029
K 11.854919495706346 14.202581634202401 10.205881268334911
K 6.784958330005072 7.252008001657561 9.351635533482119
K 9.040295260753467 11.03401981889714 9.579735599944533
K 15.517474039903378 12.264920403922366 12.313358434485119
K 9.095871767676263 8.501928548214092 2.509398752889406
K 7.1360403769596115 4.65949753354318 1.173759357487212
K 10.676181828908227 7.768823769009839 6.774398546185655
K 3.3298714307246424 4.178543105748031 3.827777122913449
K 11.315038180803015 11.193819279402199 13.578232411436705
K 13.810438648315701 5.4946233015682395 9.01655186801686
K 7.780057750276379 13.754714901485778 12.511010637397172
K 10.68743916174514 12.060727691175172 5.617367105195018
K 3.250057392318363 7.008297549432624 11.514188078498545
K 2.8502465760966462 7.698422380133074 6.842550766001417
K 4.495914319921249 11.102709708041019 9.703706205975237
K 7.03058690310029 9.378970115702327 13.479510065938015
K 10.479553976007308 7.128180513113328 15.607134308018162
K 4.579494239079277 8.373861768398422 2.4865022838731
K 13.495045373254003 10.201454565980818 9.169058272335109
K 6.785914255178591 12.525115190545945 2.694749522780585
