31
Energy = -25.13660703 eV
K 1.3533554569795407 7.552753389378256 10.958526777142334
K 4.230497314815474 12.962358627289719 3.568636089481396
K 6.002745768954202 4.238623653982612 5.789899266612994
K 8.462957153136884 9.271524237223707 10.35343190950521
K 8.044290199254785 2.8521725070558586 13.66256226394308
K 8.791131517458293 6.174989373114252 2.4036456458444104
K 5.714075906351643 6.837424027382704 12.990986084919575
K 8.73135609463516 7.98796197282545 6.134794300452455
K 4.305179285281919 11.147412403053744 11.133741722128411
K 3.4996060984522903 14.471329715673924 8.046897909779588
K 1.6148789128131313 5.792592012014447 6.604457311035597
K 15.198696926342942 7.244023966278208 11.698007403365127
K 11.09578856942488 11.820835017930015 7.3112492236383035
K 6.540069251890767 11.760082615312218 6.975362139531518
K 12.841953222400013 8.062271993978017 4.314910598494278
K 4.699780361492505 8.42266220104614 3.913083877769042
K 13.32279588639089 12.48912402440666 3.562309472358468
K 3.8972730227394567 3.637470902898528 10.300386164293457
K 11.052802193984673 3.930878420628187 6.126516805014318
K 4.972296700229359 7.630392083902739 8.449196650175093
K 11.98126491042073 7.328731524244548 8.86407203550242
K 8.40345244001383 10.667907894956087 14.323399482427371
K 12.463549651565797 10.962587871857147 11.657178385343958
K 15.431874516242534 5.377327198290658 7.329831466246061
K 8.380969041403391 13.674149806959907 10.673668291587111
K 8.82158074975522 11.367471616980692 3.065451880812411
K 1.7697027002603989 10.3857404615463 6.94855139181603
K 10.712052168060488 6.554193512025482 13.324024374942923
K 12.559600027250475 3.2659337875214605 10.697731767549609
K 15.27241923008518 9.992807782175086 7.674460795754375
K 8.319387009244336 4.623647685397104 9.630410799864457
