31
Energy = -25.01099755 eV
K 8.16097073426442 9.588641650720328 0.29892280879168104
K 12.000194457434063 8.441565711523598 2.32565038861141
K 4.910866685355336 6.914768977478885 1.8489459966143047
K 9.759068503134888 12.46449897675738 3.909506562561803
K 8.169981961969556 8.236190642894638 4.224325582074564
K 5.304913247556849 11.558394896434756 3.3978753981698535
K 11.202840571648014 4.970934192696741 5.5240169568020585
K 9.000707478648268 5.067180761328289 1.3572397713010327
K 4.121260925269158 7.869898992251361 6.411088805505965
K 11.752196949810156 9.425781767975927 6.745025782908884
K 7.409977704492602 15.43545115199681 6.570942160822838
K 8.161039547889926 6.912508436847475 8.094264796028716
K 6.643121300093988 3.9590449270896326 5.231500225568259
K 7.0264393404176335 11.23024095096885 7.319945521082947
K 9.524165663036445 17.045576497888156 10.609493070850345
K 9.089341048791006 2.7806549607958617 9.281966672477646
K 4.795260208571699 4.739511563894145 9.736004254669702
K 10.888582915729165 13.552486074678795 8.378217759837586
K 4.972819423731028 9.258739174582699 10.676218255499712
K 12.331185119027124 6.191557745198135 9.8346356952182
K 6.963585538403071 13.504630143383606 11.132072994078245
K 9.619695332389426 10.011589855480443 10.632835639159975
K 13.876555872452963 10.425926245977406 10.71458013388702
K 8.304120282900072 6.242060427187547 12.154648789508563
K 6.981701464404897 2.3995405837093458 13.47023849092524
K 4.576818195739594 6.381085275690872 14.230288160578095
K 11.344634062456649 3.5570169323439345 13.501410284288118
K 10.89723838931818 13.229651639511768 13.202659109426344
K 7.49125750845867 10.130424634069467 14.491803602966511
K 11.831664225096555 8.320507355888804 14.116549494864705
K 8.563301744131165 5.829445255376725 16.25263323754259
