31
Energy = -25.09776074 eV
K 7.2176943818718335 11.412763998981742 2.089213622216023
K 13.3044175076598 6.102184570070177 1.6344625479580817
K 9.105042251613636 7.04493482091283 2.7855507562993047
K 12.034381886354376 10.626506527880728 2.063655023755203
K 6.564110046589007 3.7194703970732066 5.654731915245277
K 5.521722975412965 8.43835989431848 5.205874779788125
K 11.435914939755763 3.6939125905050916 5.150218021838943
K 9.957992616175996 14.611846960997411 4.127378978746728
K 9.667697215732147 10.585031362337926 5.697923514782804
K 6.0030273097598 13.329507996432609 6.3137994074647645
K 13.401504108014812 7.950640216945931 5.7103806629513185
K 9.350469927205364 6.674311359183858 7.4093823207294
K 2.853462402829294 11.559424395631675 3.740726802541636
K 5.141512859289184 6.305578572600478 9.19235774018813
K 13.562210385419835 12.556404983551724 6.174273512562813
K 12.045079523769239 9.868039904347649 9.835969280301185
K 3.9126858147153913 2.2271634181201727 9.692285454954856
K 2.893919270769473 10.250849506422856 8.771530353019656
K 12.613772236455334 5.12061769159664 10.111035900373778
K 9.868988364017452 13.903680110371612 8.8723420332593
K 8.459440883730844 2.8336683612200457 9.80638719407968
K 5.38371061335007 13.372508895226595 11.445413364151701
K 8.756539858426692 6.957475827329635 11.750872039486547
K 7.295714081730549 10.217774674258973 9.318247803497444
K 1.6800783194302624 5.996336605880055 11.721174585062327
K 12.396383847582467 7.677158004582107 14.080088811564181
K 5.624534487086461 4.2499350574386865 13.459499238782564
K 4.783119491132899 9.08690909011949 13.126774037134725
K 10.322001012250464 3.600878410269312 14.07459887689176
K 9.088901679123046 11.152728570936864 13.35970080796669
K 8.142703935599481 7.26213145730959 16.01288484525881
