31
Energy = -24.94217085 eV
K 7.927436523564597 9.69418519046654 13.674745950661304
K 9.270866893018752 6.285730807635551 16.138642993753155
K 3.548538165260408 10.717673002409818 12.57539733807142
K 6.600067305547762 12.181392802795632 9.53732725709513
K 7.615948984395499 5.777701876322402 3.0782492952113834
K 9.060023303076738 5.124845018257475 11.916106841901861
K 6.327321529320685 12.95983668639927 4.579213235864892
K 6.886427914582997 9.021487005563262 6.212860003866887
K 11.850896030344309 6.861152175972693 1.2867660933860112
K 10.473487785228425 14.290061725507472 3.0441047964981878
K 6.66321536030107 13.869413092933295 13.548844231570012
K 9.75067081809603 8.707872578126056 9.466532217521571
K 10.893143680048183 7.709194118518055 5.35341083945132
K 1.6930906103384595 6.83931026217406 10.944263125692064
K 13.77532178758503 9.766869776230049 8.146172803928234
K 10.296692991713089 12.148346000876087 6.670926333613306
K 13.334566802900584 10.749097180245842 3.4715309465651165
K 5.718113704074461 7.694113543016718 10.258295753585362
K 10.764584024458419 12.429058660540877 11.339817357434184
K 12.16953379696223 8.110102769924211 12.895122454567494
K 11.468640082018675 3.5673026861816868 4.350817910516544
K 2.8735644720178275 10.242535696584357 7.977474380617484
K 8.870943502518358 10.1497895289289 2.200999707664742
K 3.834469668133047 5.845688895629564 6.618894104529997
K 12.548514530300523 5.315881196425333 8.73204174972224
K 7.267472158893124 2.500979174487854 14.647778393038312
K 5.003356749199665 6.448478045372026 14.334705388430605
K 8.132486880731934 4.709670069834872 7.496095873446029
K 4.908774176959155 3.5076596163692817 10.833191412106412
K 14.91277254149703 6.580204856201615 4.731142332641184
K 4.461765262800378 9.097073995957473 2.8412369129346255
