31
Energy = -25.04579511 eV
K 8.080141160196506 11.437022571747619 1.5517428425760877
K 12.032609770013492 9.127089123960438 1.693132705696484
K 11.806380584267329 13.502652495772828 3.1060979034178433
K 7.969396262922096 6.878079333210218 3.023154606122186
K 5.380540842370137 9.99061254625829 5.150964394978658
K 7.732824878415653 14.134169425497511 5.291920859170141
K 9.992665117111178 10.224416560556344 5.157005925315595
K 14.30127127299729 10.50227825229939 5.539023286010314
K 4.21530898561688 5.262305381091198 6.241455289562584
K 11.813022506165488 6.019202674908171 5.452129264719555
K 8.160800419129188 2.7848450386996313 6.522522526845323
K 7.986770619209794 6.9909591309367904 7.372863541915343
K 11.723622003375457 13.486738362906676 7.801259698009877
K 7.869716256881937 11.1304086798137 8.702751914721496
K 4.251348185657929 1.110252138550236 8.293519330122827
K 1.786516747017154 4.722369180762969 10.142512722918827
K 6.015959656950364 4.3022885418832475 10.385780920160405
K 14.888414064623126 11.45512881586239 10.143715137083612
K 4.278239206300353 13.264769763744344 8.211497421152014
K 11.881995364331122 8.694029997128926 8.965850887514263
K 4.029507147490764 8.570356302753547 9.3775277772235
K 10.804069371316185 4.3128777710761 9.86047626582649
K 8.191125864333372 7.789536695025714 11.54168014966527
K 5.791935503135837 11.238241898996211 12.664258980748956
K 8.126326570018557 15.179534293131859 9.822789181200196
K 12.033732505673166 7.276579808468876 13.27888819823142
K 4.33929072179352 6.867525261529638 13.58930138785456
K 8.247981657848474 0.6770883210344784 10.65080876140976
K 10.61631564907899 11.723543633738812 12.031807543939639
K 8.669247535207688 4.107248712238026 13.914740632551606
K 8.108194620201452 8.36312033606629 15.64409099298599
