31
Energy = -24.84591809 eV
K 9.399737400352455 9.846542254056171 3.2539707666851414
K 12.300421978647341 2.295004899914043 4.806612800730653
K 5.7522703325009905 8.187632860554695 5.182973690046266
K 3.437611893625132 14.07912368284858 8.563283321078446
K 5.7453342605323385 4.014243791781703 5.876841095616439
K 10.153675317930936 5.929103838180824 5.811358480339543
K 1.9309621260152754 10.427562543904141 6.232211796859179
K 5.880070946484433 12.48007638819585 5.02833371990853
K 13.32999060145911 9.83114346898967 5.850778464691961
K 14.719522277176658 5.829919986144587 6.218333564300715
K 1.9656506798918711 6.3484515330260995 4.320949902348046
K 10.276712504617956 13.657926440729593 5.662921828108717
K 6.765497190022058 16.54455177451898 6.172829020061668
K 9.191473390432714 9.846358269713413 7.533152635608918
K 9.080184042407634 1.9751463738327462 7.936673687163771
K 7.49010607866914 6.059552980497991 9.638834351397906
K 2.9595534026490125 6.618899962148842 8.681467598687394
K 13.207935178137705 2.98942530306162 9.092509578194544
K 5.299648677193214 10.218912515103403 9.127649447934212
K 12.515144300929327 11.834527981733189 9.618740469615348
K 7.88104768290565 13.87218070233564 9.439561053592234
K 15.83164414416287 8.607868154635282 9.579628367846045
K 11.77081547017395 7.155129791142272 9.841083905735541
K 4.917618517555334 12.57721264380393 12.738701433369668
K 1.4258624197443097 10.306765111280509 10.807953083440404
K 5.11503242114129 7.931708642702268 12.880831720376955
K 9.98297691721514 3.0910388448541837 12.029682191527781
K 8.853937306540788 10.314964771816602 12.00762724029457
K 14.066248435158961 5.194531695317973 12.897195637778097
K 13.33989977416597 9.454310271469447 13.342137982863829
K 9.719504466895916 6.786272657039461 14.131261299131028
