31
Energy = -24.63527842 eV
K 7.592549805321789 6.068248876370002 0.3622563871725657
K 9.877502843946864 10.116969977937474 0.8225128979207372
K 4.218667630361755 5.924027598030685 3.597003529244766
K 11.731444090045885 6.149382419546788 2.346343445222721
K 8.463209859110211 3.4911581061809973 4.254983668991844
K 11.44827607259756 5.8814560292310265 6.900584428506338
K 8.186974688828977 7.969746421588953 4.1029020050236875
K 5.284406311255786 9.909932678712352 1.508466513825524
K 7.923174853666574 12.440078367868574 4.457125521202003
K 2.331624149817096 6.178384789280014 7.783789862436532
K 8.864529578154537 2.766451999377956 8.968682267836762
K 12.078284257276309 10.103152380324122 4.954060487930486
K 6.534381261077439 6.118819730494269 7.502093438155363
K 4.707945898066656 2.4311848427202247 6.762724411819809
K 8.813695430714196 9.850097715049536 7.789318966278241
K 9.492459009010313 11.774074613086947 15.895149218949802
K 9.204911069937676 15.002828659476108 12.481813843740564
K 5.475830231955212 12.453796070697395 13.694217508274402
K 13.035988966073495 12.426562280925658 12.946170835957728
K 6.794415829685929 8.063651548113164 14.542928602346455
K 11.74648337546535 8.140021943915867 14.247937657811127
K 9.090301135994023 10.845582749924162 11.804514654842876
K 6.402393105413241 13.283801551242256 9.086013330604748
K 11.29718147469445 13.308142773374364 8.677350264064964
K 4.886825143263134 9.156349561431757 10.54266596744291
K 9.215304157162375 4.18612008073522 14.134144942888828
K 13.03245741891154 9.213568775668321 9.747857241596547
K 9.176751815097917 6.700430230937664 10.816530212594726
K 5.323746913117043 4.696069489368357 11.476123513021523
K 4.370214766614437 10.03882419135078 5.9891773760410345
K 12.942922866433385 4.855937556108724 11.349411007325344
