31
Energy = -25.3332882 eV
K 8.676816112020946 9.167538879218698 1.2988634639230454
K 3.9465062656052576 9.237737448361054 2.4650845315566134
K 13.373911513755175 8.519085960920517 2.085733793581808
K 11.201774895549894 12.700163295047075 2.7485870612286676
K 10.380597193252534 5.142110020333245 3.475934720877067
K 6.924522475959216 12.111821003029943 4.386005171380406
K 6.597958401372264 6.986176143896269 5.0051230902854345
K 2.4040034961475385 5.450632990007884 6.499999545394593
K 10.6429079663671 9.223839846452933 5.357631752936295
K 6.529779013710567 2.8012049096004623 6.960905463449489
K 3.50723906917005 9.992602702586069 7.2036199050324985
K 14.481183556663403 11.473923484348537 5.848807560674583
K 14.157175259765097 6.718749366443453 6.393743970854224
K 10.445785785676518 13.452374419491589 7.330073153868041
K 9.976927479727628 5.4381372569771775 7.95534509226019
K 1.5597705606596215 7.328055642327166 10.76284471616117
K 7.791350428390468 10.005410370023439 8.344002800385098
K 12.272913419984345 9.228303838757725 9.563291076552618
K 5.881211934713692 13.77714595143881 8.810898183803229
K 13.782007642884256 13.074364776728217 10.381252261635504
K 5.56814525866867 6.4928337351111125 9.31448570839407
K 12.321801103916936 5.059661062594229 11.60104141363423
K 3.1992819205873397 3.08318704051434 10.395947197203773
K 7.796635268400396 3.1964339933434807 11.54563719687584
K 8.778665895972008 7.722713702292023 11.897348809715023
K 9.256808050886145 12.267458494319618 11.882892103900062
K 4.73271583958165 10.380343421821056 11.915093638620336
K 12.213936936951365 9.240718944543993 14.163069610444024
K 5.002716483824964 6.12207332924462 13.830557595824109
K 9.577321584919051 5.437718507122634 15.406872466922744
K 7.459764853769301 9.609615131956579 15.611442611479202
