31
Energy = -25.27431532 eV
K 2.9234187130559426 9.32594916634118 9.283703033535224
K 1.2631775228313258 3.027609329504035 0.35622009015397
K 5.626861163356645 7.553432145370709 6.295924417697141
K 5.632711407047368 11.778289433214324 6.017053362852486
K 12.309497937974795 5.636570599260292 3.9671374916656243
K 5.639218381073189 5.361728098339709 10.429243058508717
K 0.8579634800890534 5.649520978318333 11.45460784804915
K 1.6104747210518826 9.323793735306229 4.560915282529021
K 2.7225810376343698 1.7511278397879764 9.698619571604235
K 10.398548462062942 5.660395846664322 11.508475741365466
K 5.659487251709717 5.317922910920148 13.630862981252998
K 12.608873776264657 8.06438407274418 8.158422011376194
K 1.3344684314580826 7.5448654987186865 0.1967214561736
K 10.019281376676041 1.6364144213728444 4.903788060086946
K 10.061507236620304 3.0646437064232614 0.49151400135948786
K 12.864702418176439 3.4391237562903596 8.211165444197178
K 13.06962560395232 7.8830156126249875 7.874093298144176
K 10.004325533805353 7.661651362185804 0.3267894075016283
K 5.653916730502859 9.21326191704398 1.9972458458533524
K 13.408031817340028 5.485260291891135 3.8268055868719704
K 5.64909100751999 1.4110316918525223 1.9974046422743523
K 7.819885111088764 5.294521247370227 3.2464167384910585
K 9.67297122793668 9.454162506038339 4.704109649670305
K 1.3077265717989635 1.5896765643718387 4.866628491359415
K 9.156375733776878 5.435833603792582 7.326482772143618
K 5.655216603166599 2.3840909796122096 6.3870394592101984
K 2.133792013639747 5.3190837647893625 7.281306552594686
K 8.238740629664697 9.382246577039465 9.318765134687512
K 12.864702418176437 3.2779646927694435 8.19725783730585
K 3.4813640423600667 5.269511215501016 3.1909825674762895
K 8.584213245771842 1.7796991079451983 9.68973714880754
