31
Energy = -24.88898436 eV
K 3.796637049627485 8.581869354319029 3.773751840598284
K 7.211055627443399 11.299155296298387 3.1382803728311552
K 0.9888043573087973 5.740445369440208 5.251649295725354
K 14.677577508432863 6.214244297486206 6.921503293193077
K 11.356217594064345 8.933043535714173 3.9499850090611157
K 7.8739155409129244 6.905842156801138 1.9828056347751202
K 3.0098647587225815 13.107001725107963 4.177827470447722
K 10.910772544331568 13.387593886948823 3.4322134574103695
K 5.375039388601022 4.478275300818958 5.100117448614246
K 0.6949688978652169 10.078967544918964 6.611757592613263
K 14.13719060740335 10.785773066524285 7.682156283809481
K 7.415506541420252 8.092577571985744 6.150920646519673
K 10.240890716188067 4.671603275183875 5.424952220086563
K 6.993178564184998 14.972972230262432 5.724876187769489
K 9.624251645901426 11.83574796114172 7.287788811493283
K 11.087030534445033 7.849097261350475 8.371004754925393
K 3.7195748925726324 7.201297575084899 8.626289666763581
K 7.633821311710849 4.719090113217187 9.196801636674575
K 7.259403512433353 9.365998642432599 10.329155811613994
K 7.574179459825255 13.659344709100143 10.762270312312962
K 12.160852083599291 3.802259059963428 9.805290992967345
K 11.56822966356537 11.353614155728954 11.398687258498796
K 4.8046034409489184 11.599529527323336 7.639041281387083
K 14.558955237383282 7.770676143635088 11.150451703515337
K 10.201425210223638 7.009250464205328 12.376764654772055
K 5.901532008336809 6.366784894756784 13.132062988392772
K 9.042341917382094 2.916104279675544 13.209626859333019
K 8.365610107276035 10.458040199321879 14.490268544281271
K 13.077536570420817 4.6323645357841485 14.29189340952665
K 12.642980926281405 9.054401247324204 15.277452466195486
K 9.223409084500922 6.284391921457758 16.459709397205316
