32
Energy = -25.81067155 eV
K 7.852754781166412 7.2135191243682 0.7124969349564467
K 8.580800327034073 3.0696182610447056 2.7546041137113777
K 5.420740646573438 9.992589566974747 3.396141686315112
K 11.92062968989254 6.0900232729119494 2.606414611377824
K 9.954396489945116 10.3178129864937 3.1698059409753805
K 4.571898826892182 5.469247928290157 3.320193739683269
K 11.272180378462412 3.6998080526083954 6.653216905187058
K 7.270295817763841 13.660732844213172 4.885324539210389
K 2.0595313549669596 4.336158627174073 6.974288206494456
K 12.286866346752637 8.128386441085306 6.844891734514744
K 1.5979849649627877 8.523475291463406 4.997786948072428
K 6.534378074355243 3.2194108777377646 6.901674917249099
K 4.202854632309726 11.716426588373306 7.971707087637179
K 8.200398149722922 10.135340387113416 7.2829287576599775
K 8.471198857961419 6.61975472845346 5.001677099239476
K 11.63252574434634 12.760154244712668 7.041190410326499
K 8.039540410574473 13.666349233495207 9.902091061771623
K 10.87731999758407 10.142735972081844 10.694018195200538
K 15.043693361234002 10.870591400749829 9.4441215679867
K 9.132848395931784 5.974585983227187 9.854185700942361
K 6.543593216144006 9.245444459225945 11.41697208964426
K 4.653284593425673 4.796628376986757 10.723901939298257
K 12.44201792020037 14.253333078569275 11.238521408150254
K 4.959886632721156 7.42530526172306 7.39931814756815
K 4.9295823041578855 12.996255879576504 12.97040188473945
K 13.508013770110791 6.769341498388833 11.133644366097993
K 7.360668516308726 5.491179311635775 14.143276863746513
K 9.374689218269264 12.432551700070935 14.021743809446082
K 13.887293859086581 10.760577736849918 13.72948615232555
K 11.276365125796522 3.732648956159855 13.479054583335571
K 6.47446066851007 9.594421089058523 15.727940262011023
K 10.710729507592852 7.9390134199387665 14.650400915882296
