32
Energy = -26.15084421 eV
K 8.42354522964945 7.69102389085999 16.553215083723472
K 7.701183315670809 11.79980398097759 1.77399463078234
K 4.132192722312805 8.81009319468885 1.3930651344313103
K 11.74108525643494 9.467444006413293 2.973667782596869
K 5.825557939151062 4.344387625899177 2.1794165937639547
K 10.39899799389324 4.7224634698332295 2.9048941001688777
K 7.455236672401335 8.017081702331254 4.082670136173678
K 14.299278848866994 6.212161578413644 5.108318727855015
K 8.433965782922758 0.7976940322254393 3.972415385212402
K 9.339842580484724 11.79445489983404 6.213477251133595
K 4.708171025175693 11.416544741588183 5.479119426884535
K 10.474700337242849 7.020760355194099 6.868627027694302
K 3.322200340152598 6.749268053618159 5.66260909509527
K 6.902367894387781 3.9725390182701386 6.646876959125534
K 13.594113709034737 10.306444927263996 7.338360936964419
K 11.421632221870262 2.838220236164885 6.9550296904515925
K 6.56721998827466 8.419935730841111 8.219307790726386
K 6.593028674036814 12.931768689330816 9.786100612390404
K 2.8754217378318865 10.10455405610067 9.944717643244159
K 10.133926638239755 9.701222321814434 10.269700228032539
K 11.054918941925731 13.99839416248025 10.21994403304937
K 4.181867289315014 5.46221360901143 10.520002217615215
K 8.872655242076496 4.837550917983768 10.728763241463136
K 6.603416080496645 8.812914565834244 12.362221581714197
K 13.237486585793693 6.467358657379241 10.335459999031091
K 4.3922941697622395 12.473794210978053 13.682537569199818
K 9.182101357885095 12.172466678731485 13.882234284654974
K 2.8418072201793563 8.056357347068925 14.359974571482116
K 13.504383875366539 10.685416581367189 12.56519447285298
K 10.591265709194898 7.397295143494536 14.269328810749409
K 6.561584983823095 5.094535546932121 14.754789542042362
K 6.602277218722597 9.393563649651394 16.55321508372347
