32
Energy = -26.05489485 eV
K 9.27704295540593 6.287213693747749 0.12638537144188983
K 5.168266627201488 4.987801307510566 1.8540300765668072
K 6.33864457381059 9.566371519086344 1.8676006968789982
K 8.979166722255341 2.311768394683538 2.651454866679765
K 11.47906366771072 9.623167103806656 2.65200395443057
K 12.902208438307118 5.151558592743464 3.060416544930146
K 8.72655471507777 6.298060256192043 4.239616867489952
K 8.87180941095054 13.340925273550504 3.3541264595513245
K 12.189903075130548 12.22213360048077 6.6604886792837865
K 4.08127200164132 7.475397157793308 5.409287840927476
K 5.933490193002458 3.3069263749676936 6.157628582801194
K 8.327002577832442 10.014761262617919 5.923705865576935
K 4.608004556813338 12.223990664978949 5.202483988074514
K 10.934327060506902 3.337155472395373 6.984519328407051
K 12.60510513913453 7.655103254721252 6.844960739640009
K 7.805760463688616 13.706591892047587 8.547560258700617
K 8.090002261530453 6.418953595907565 8.33011378287911
K 5.168140034426058 9.97789305018567 9.130719410702639
K 3.480221763050348 13.6339174661479 10.731987018092696
K 3.8805976545142995 5.690342379049338 9.981859252098864
K 10.046856825486845 10.038279940108303 9.967255658456377
K 7.776679657559664 3.294872599058494 11.312994214740295
K 14.263246160375754 9.993247051823003 11.099746935455553
K 11.46923232373222 13.53781928304933 11.995640510382591
K 11.79281253152313 5.949922201836031 11.144355667012254
K 3.362429300528934 9.591497413181008 13.309137192926393
K 7.402058607920799 7.7500302414984095 12.326745133825018
K 7.208415288080538 12.23442679512209 12.974343680387042
K 4.816243481988179 5.1771977026770655 14.647234018463374
K 11.126887598413125 9.57157046624785 14.419045672348625
K 9.457056406856347 5.201401931039039 15.214387393494974
K 6.893123680497814 8.891327816699524 16.33979009230735
