32
Energy = -25.97661747 eV
K 5.942908378768823 9.063657166639432 0.8946483350965513
K 7.87195483458839 4.874945206280786 1.7343766214889969
K 10.575506696030033 8.765407969496612 2.114250025087614
K 3.611575271428706 5.903073747702293 3.157079937206262
K 7.774037150847326 12.052679323803785 3.931559643163157
K 3.297426869980397 10.094824211739358 4.859910284211202
K 12.360258337935049 12.55617544972248 4.202801064768412
K 6.988656423924628 7.792301261969453 4.768090252361069
K 11.021811531787657 5.306312575620188 5.055187288221501
K 14.516571880231457 8.47654542993792 5.225118815514837
K 6.670988339201396 3.609794059358249 6.056968872003189
K 10.486935428357906 9.602790941913486 6.447548241247997
K 3.849896052372544 6.95482254314263 8.117733579009514
K 12.852753272814544 6.735243541159217 9.12681973734633
K 6.263069441494636 10.919050546439207 8.06427848877691
K 9.719898739392297 13.611837782918908 8.245119451445836
K 13.752330565032173 11.284992224255127 8.881701224938345
K 6.064216742331267 4.046929955409331 11.25912546660762
K 8.387938604976647 6.6099851390472475 8.650111027632889
K 11.421864708260347 13.233791264201017 12.873190204355227
K 16.946424123584485 8.49348300616042 9.451363590283279
K 6.183104829751085 8.383971234000931 11.88867272653958
K 10.213032556034179 2.926951829408189 9.163165294084795
K 6.873372629393315 12.734052500653156 12.203347442556638
K 2.6479835881631155 10.571433682208179 10.612393944534887
K 10.016005265928795 9.943455373151805 10.762123125260105
K 10.13694400305861 5.947839070629693 12.888379863361742
K 2.493696242439321 6.731570294908255 13.036404641177633
K 13.662024443319307 9.066716907175477 12.9928592654488
K 6.321318276525591 6.023314455761906 15.47604284544103
K 4.3422778291951465 10.268143897220668 15.168794506266238
K 9.130286677765678 9.810977142879972 15.087903929477017
