32
Energy = -24.3748167 eV
K 7.262357684517551 7.7870951885358 1.1213175119086594
K 10.402134691826156 11.02646670970112 1.7218293359457826
K 11.650606402694686 6.420352032013727 2.7609407254346303
K 5.829564108995474 11.963438464422417 3.195081949004639
K 7.781034573183025 4.492381572319784 4.445811896936125
K 11.873253727971363 2.4673295412622656 5.601975157212572
K 8.654703909450731 8.953340267169468 4.8729043686696185
K 4.208515567053787 7.907001310042231 4.722765998062566
K 13.090518623916763 9.917740967312874 5.446208755467246
K 15.029297399713467 5.681523487916569 6.207913030587481
K 9.469853073866012 13.360558248400597 5.703111590124062
K 11.019756798368444 6.234904195649693 7.174181521989189
K 2.1087643865279153 11.803211628487103 6.377456436363623
K 6.729505057742309 6.677907800532132 8.152460994484365
K 6.029449341612592 11.000271661995269 7.5431424994772565
K 5.2294838627853775 15.037528383760815 6.959542152760091
K 10.216843491950849 10.261882340700064 8.788645860446405
K 2.861241714419834 8.348605856609355 9.492840347592304
K 8.149129688627983 13.805402404181361 10.464435899961854
K 3.6626818046459677 12.680693717014956 10.921772327183247
K 8.670173404628875 2.8104194037482246 9.044553421008272
K 13.955353712384836 8.227065930891195 10.038752533846592
K 6.793014611755844 9.56157532313031 11.487577858289846
K 9.872842699751853 6.616348014252683 11.264896664912493
K 13.061351380613322 3.6824110497571647 10.201905036871844
K 5.613273834615338 5.2044063236527505 12.163069809880954
K 10.915256050467923 10.63101270374335 13.153113295722243
K 3.5996410447764657 9.006268159645693 14.113835996778834
K 6.749209460104079 12.219944469610363 14.690521132768326
K 9.621583442550603 3.2119057118050067 13.64829036710297
K 12.760056140006965 6.424275301276355 14.263264005100165
K 8.125207419252675 7.572390941239068 15.251540628886369
