32
Energy = -26.17422738 eV
K 10.160852079827574 6.937021086362783 9.805327472330895
K 3.2139412087898167 2.1582609428676145 2.1514624101927136
K 7.9387029543986545 8.455457757624188 6.166816791716499
K 1.72852967249426 6.884488634527362 2.1019254468879627
K 9.793423112619935 6.886290168720039 2.078880293898779
K 1.4528195364384302 11.47443391269716 8.346957331263441
K 5.753219552113225 9.60429909424587 2.2031325323158324
K 12.974025411101891 3.3214306166374676 8.199070434763168
K 13.059611089507714 3.554052960010243 3.567107844958226
K 5.7585213425959445 12.4284790361388 6.2488850981453545
K 9.284488088407088 4.360778999691148 6.10467279422239
K 13.37427852544202 7.650876044145273 6.007564363602062
K 12.749059179738854 3.5622634363990704 3.5336275909370602
K 5.766729805194671 5.359068034728364 3.9048584940714495
K 3.5839688042629074 8.423520667499442 6.183044519338273
K 1.4535354326339616 6.910108733840679 9.931203823055773
K 5.779735240994105 5.4224353728622185 9.097231097833934
K 5.7651487775610715 1.5227959262206765 6.496340831429502
K 5.772303749524927 9.774125209825794 10.038783739060992
K 1.3525607019074586 0.041646228590655913 5.758671125673277
K 12.430528092853612 7.8138103619132835 5.796313411923195
K 10.077100531921642 11.29544588161702 3.730233905684133
K 8.764852919829995 2.1114207867793726 9.850461898718342
K 10.198521167992926 0.056926165689020834 5.744938369284442
K 5.7668179183890285 5.417677258204945 13.948560113046693
K 2.8293662019258745 2.102850224229518 10.00030847114487
K 10.062581455688251 11.509385963827858 8.31702263529001
K 5.773231955711482 12.679623527051623 3.5534360397775133
K 12.974025411101893 3.5418215146434275 8.04374423525692
K 2.2660826019641247 4.327958079565388 6.142211324816403
K 1.357664511194679 11.247100049404033 3.8048530034601415
K 8.322026861211477 2.1653621257541014 2.1435673582138364
