32
Energy = -25.89305786 eV
K 7.524531228549201 5.673374544647799 1.7750518660142647
K 12.505379334400999 12.007004321200407 1.828039144466262
K 8.179034341604027 10.204451854891571 2.291193130731408
K 12.040994135629484 7.298279628162927 2.401316407069673
K 4.593619037426529 12.578782666845411 3.7424910005756686
K 4.49859291811288 8.078372292280056 4.5237395093721116
K 9.31397292404916 14.250943412178177 4.357050353967316
K 10.65007860767369 3.329540546638565 4.351798552047112
K 15.54603668459744 9.858463289078868 4.4825960938167775
K 8.870239592213904 7.101289205269942 5.625973450892232
K 11.461227763444073 10.518518977486268 5.7009146182967285
K 5.9043970984002705 3.7077833818731065 6.253422091555387
K 13.859189591568095 14.135667254244721 5.666783854507154
K 7.195917843802745 11.277294791814809 6.935483044307289
K 13.267616342652685 6.3444187980785 6.9061411843709894
K 2.191370139556821 5.675140081676114 8.532784418295977
K 6.097186897335554 7.423826509764936 8.840261299812964
K 10.53186143149725 8.885308813793845 9.536765662207053
K 10.687381471368404 13.366390516237928 9.217358159488306
K 9.615822341832141 4.088692500311084 9.072953451866931
K 3.020499916423971 10.558851199478413 8.73230063125208
K 3.4217161200370896 7.75286764696285 12.484604867220686
K 12.430501228770593 6.03130633728913 12.340090599156412
K 5.365205414389459 3.4010997223170243 11.022617107710973
K 6.870240319137466 11.429290501627937 11.37247775979337
K 7.989986296805968 6.987183042896356 12.49412159511684
K 9.307698935626108 2.8583190369141973 13.621581784268287
K 10.652555361294997 10.478067945364822 13.715216250345227
K 3.1019614882079294 12.118273608889018 13.457963027340694
K 10.014485618444004 6.633699108742558 16.354748861297598
K 5.706884459896647 5.038653851679809 15.504607497261734
K 6.402217939256405 9.727247435368826 15.675955549580799
