32
Energy = -25.93351439 eV
K 7.965875384706157 5.552468595280683 3.359779786808658
K 7.310572498114989 3.9767128579410294 7.7970206445293915
K 3.810604199353098 7.16445333189303 1.3633387639152683
K 11.640516634606419 5.617371136309161 6.339065339236466
K 11.68109903267688 9.355857928002859 3.8157154486351965
K 6.631683982230298 10.202547303417084 2.9767487949456752
K 8.454965508972714 8.46662902699185 6.660847599311355
K 15.650320303853768 7.566401929336096 6.147246343155267
K 5.794130924132642 7.74285932633743 10.11427024113143
K 2.0666294949695625 10.521061580958817 4.137366944651216
K 7.246252373604769 4.114079318149951 12.416477616316007
K 9.181571316524597 12.88452074961216 6.00535270219474
K 16.550910561600627 9.920144488503912 10.050408820306302
K 4.038311290776124 6.710132033698667 5.7533099382170505
K 5.179297006693736 10.99328927501634 7.293779130194114
K 4.879188861981501 14.304034793218806 4.405075564024859
K 12.57659615275754 10.263069257350992 8.161248834726168
K 1.4049956633628695 8.92454988974054 8.854964693916576
K 6.029129042074622 15.073721263217157 8.867344716920384
K 1.8120849621682662 13.521782563224308 7.787119165648493
K 10.345044824496123 1.4255923616400867 5.661304099332815
K 14.419828435241396 5.979691585219158 10.296141153365605
K 8.771889235139524 11.5079704663129 10.473780227362672
K 10.17054128413005 6.960758380055908 10.287509698592043
K 14.732815486449493 2.849033998003815 6.865120869851532
K 2.7531406323985994 4.585160315795076 9.590817056943669
K 12.681800514543234 9.551389306200408 12.797648700284311
K 2.799666779144381 7.473305303976099 13.129112263029793
K 4.057469183224338 11.701929995653757 11.631138492829958
K 11.098890508643334 2.572135145616244 10.092591062736808
K 11.420623907380074 5.270961489172535 14.09176345282273
K 8.088823910001635 8.491654900107248 14.021861730016994
