32
Energy = -25.70661405 eV
K 10.418296742954828 5.975017930996108 0.9013189646997616
K 12.590997156694467 9.838983287459321 1.9177416140137986
K 7.819216712473667 9.778932078642297 1.5781253115763858
K 10.224460734561472 3.134259091407883 4.608038016744868
K 6.3285660016579905 5.736825895738766 3.182064606483288
K 10.107601428278327 7.634698240659337 4.659378519215184
K 3.389736168467236 9.159253063979795 2.7863668403447535
K 5.947010788594954 2.103569744744384 5.7289828099702
K 10.035663610463425 12.111377201222245 5.105712837455399
K 2.818636402736976 11.006890642682297 8.535737786743603
K 13.631526398033762 9.639549308095255 6.5693186374754005
K 6.253504181743179 9.694354846726577 5.834851969099014
K 13.892790004746884 5.787267748625086 3.773358366851529
K 3.4658416532155853 6.405204977621807 6.636082567163568
K 7.658928464815731 5.493621807855567 7.5869709603389195
K 12.210606522304543 5.498356565838197 8.138840388609893
K 9.724218046760477 9.285797491760423 8.522649022422828
K 6.886495716807777 13.014402549152264 8.808610947445704
K 9.528359517676197 1.9052735762893867 8.87318424337848
K 5.727554243637164 8.311695054902035 10.243584160610075
K 11.467615295110472 13.343582268234938 9.618950436728566
K 2.1317078256925686 8.504354712544158 12.34897530766598
K 9.444841206212836 5.95562579108381 11.784404213262846
K 12.939568564774488 9.07208487368385 11.443363859142575
K 4.6184058428749175 12.246430415442413 12.541075975681352
K 8.784851809275894 10.717529411978118 12.239771821278078
K 8.353449738472431 15.131066922389671 12.470489206095177
K 6.204142530002633 7.858275304342817 14.58365275083903
K 11.994031282951907 12.83981362157384 14.098798840462997
K 10.793445222989693 8.507214369974854 15.443975727752639
K 9.07418587801684 4.516247247012687 15.812154217270171
K 7.847152658362005 12.1058523087004 15.93687742453801
