32
Energy = -22.99844187 eV
K 7.455417185423121 4.531625734996224 4.818882046987481
K 4.503908421272249 7.44973116191297 2.7120338558224386
K 8.911248619227724 8.724988179683898 3.7331540708133124
K 11.686141898027163 6.022108224652106 5.957775185936687
K 12.712268136014602 10.485104736854783 5.719412117077811
K 9.780064456358096 13.29788177552071 3.5113063545365537
K 2.9069537965286 4.6433691738866045 6.018790316688842
K 15.46538020450816 7.676831392372895 8.146096575048068
K 3.0729423312743047 13.238177558087807 6.967087212346505
K 5.486788619984199 11.765162117906513 3.710103102063993
K 5.663048493776593 8.219319565803822 6.719126177027642
K 10.289806646179118 1.7809168824315111 7.281932948305692
K 1.5822184904593048 9.128615137081178 5.832371764894994
K 8.63513181849548 11.4564649931341 7.185237398135288
K 7.003720327259777 15.46652003099646 6.314082484450481
K 13.086826136667524 4.181502703082118 9.927536834307956
K 3.08853907758034 10.078831977267633 10.061060325739666
K 5.987718578731475 13.507418498544437 10.204653772365566
K 11.548647088338566 14.733904963445909 7.548631561299022
K 5.797816639126214 1.8335355341837376 8.357004166854168
K 7.3534450192333995 9.068759817802805 10.567738625030463
K 8.62258115262451 5.281697993223337 9.045689412466626
K 14.471902635046591 11.83982567250736 9.927602979200723
K 11.548678437139387 8.56528643349843 9.564514024037727
K 14.706465812680513 7.857224591331252 12.57241249943594
K 4.361632175856391 5.745152983557836 10.149015738300088
K 10.170661764408012 12.46836249237975 11.278748001479528
K 6.179989840223205 10.613737291471198 13.986047764446843
K 11.738097225967808 4.715718745441796 14.012405291648745
K 9.088976771087387 1.8863925426906647 11.68602418393811
K 7.458646486864411 5.7503701563824645 13.483408560403708
K 10.589437243476985 8.940562467708215 13.955216178749172
