32
Energy = -25.90899925 eV
K 8.09430285919481 3.900490004321915 2.2138631505330157
K 9.983706530469743 8.195853578214711 3.2742004448324984
K 7.424559695025925 12.121047541568169 3.9817225461170476
K 12.232682187973007 4.133062517351516 4.118817886003453
K 5.304783874169562 7.2304317238198115 4.126272885628441
K 11.583713419784404 12.07823426549272 5.788750004888001
K 9.220420242043282 1.0886928249568726 5.572282877383704
K 8.641815054018098 5.122948326998043 6.28846999052278
K 4.9189488735670865 2.844659681157954 5.546863512669243
K 7.98966127281929 9.220567334239217 7.079308950984832
K 12.381531257741281 7.792037320115697 7.24545901898464
K 3.787022206317792 10.418661501385388 7.3210910461370515
K 1.5468735226978438 5.743762174446743 6.1909137605137055
K 7.3046287303066215 13.129477816320117 8.28465089091344
K 14.587240493751382 11.42984051784451 9.180784438837625
K 9.337405250159128 15.967576647481346 5.6118447924079105
K 11.73517284728891 3.3044756875942327 8.808443805276564
K 11.455975419617031 14.803199506212751 9.498403551439585
K 7.309364763044 2.3230384004936755 9.618345352826227
K 7.361444481685494 16.956784696665256 9.690542996605444
K 10.442902311162648 10.739474607704627 10.144465214592314
K 9.090032619841935 6.595329606167468 10.441143509049112
K 2.8216399272881283 2.7237679533080756 9.644121165921284
K 4.150635379094419 13.877998416618565 11.234945767822282
K 4.983572913394787 6.2665129320435895 8.617025981220136
K 5.921464096821024 9.813876373555841 11.397019235702924
K 13.18993254682018 7.812783408420367 11.871435861729973
K 8.30904210067083 13.45677284840679 12.822375895192435
K 5.7225129851575 5.09398298964116 12.758927384911408
K 12.754980455092142 12.15447940385349 13.321205138013216
K 10.062870908933228 3.4613126354346035 13.078378917498574
K 9.293199244421006 9.142905228537497 14.171962495214924
