32
Energy = -25.91317666 eV
K 8.480129722782422 11.311792044921907 3.344197264026285
K 9.229907231946518 6.786856186515432 2.1594576999008366
K 5.812897220191038 4.093154788683426 4.34136914755598
K 4.867636543712533 8.310003295560783 2.487025714405884
K 13.720952644389332 5.219377178537177 3.9450952362151437
K 13.087850502000922 9.275072300307999 1.8362856142371267
K 9.88195942757584 4.618203469376571 6.059959512119802
K 4.571360776351636 11.861374626143043 6.4767518594632865
K 7.1392499067756185 15.653015600440359 7.0670883054877365
K 9.042197285547141 11.893213088592317 7.977337252048147
K 7.071626766475897 8.053715009468752 6.101292258739465
K 2.705255769178503 7.52320688271485 7.239073125841411
K 11.47917547164721 8.854027630442612 5.766957038525515
K 8.078431638577733 0.8758673280429687 7.182076647541549
K 15.796929703981178 8.910121289609224 5.76889730786991
K 13.752185907496196 5.850270037432392 8.594474243824877
K 12.754647186155607 1.5637460218046528 6.958942509261021
K 13.113544717446239 10.4686645916305 9.765411134923118
K 9.673093375635085 7.44182314258251 9.615477103091177
K 9.808040363174845 15.162119821164117 10.985742893666913
K 5.982695849257981 4.6279169752026785 9.130860384035879
K 5.791127248552422 9.360012666576292 10.101029649617942
K 5.486275390375737 13.77111118655458 10.885395194311677
K 1.7942323642820388 10.985801049142578 10.268529286659508
K 10.24592736192299 3.2069099015137965 10.597801764846526
K 9.290634693192528 10.960093574505809 12.390226273171919
K 2.6797676774300174 6.814506480149059 11.902522696119792
K 11.75670146077231 7.272244431674585 13.412196083369704
K 7.145711819946846 6.541877454727084 13.366323217320721
K 4.711855262449964 10.494789139749008 14.182252553237138
K 7.652766419781228 14.00623334723528 15.027632225407137
K 8.776242877603186 9.613890045606395 16.443329389766486
