32
Energy = -24.04245592 eV
K 6.767018866306138 8.160314450248544 1.0028614286540924
K 11.34388768357006 8.98874394834519 2.093421279377118
K 9.46049798603121 4.4210666565915 1.9477169095294895
K 7.953551763941649 11.644325898026691 3.818680838791181
K 12.28901968561219 13.067853096012907 4.12409019307433
K 4.900205794804557 4.622381369538334 3.5492932479969466
K 4.080486642637699 8.941710363506832 4.763021844277822
K 8.219971726758796 7.177166339887154 4.81520032703103
K 15.136748193715146 9.596008863591814 5.059139418005382
K 12.559563212883015 5.656330929823171 5.156243075566649
K 11.140070431639815 9.7863194595009 6.477561148032413
K 8.718103104103706 2.9619202498581925 6.233080613663633
K 9.379044801522982 13.66704761032571 8.043342091537305
K 1.4649008197691655 5.450646637007521 6.928165259501664
K 6.923662944064736 10.042007776202777 7.805241958651498
K 5.557000506057981 5.704238659881773 7.992922369707959
K 13.906118468852727 7.654106950884052 9.291889036651202
K 13.976301855770801 12.214856903928595 8.728515846003512
K 2.946789164976665 9.192484920358492 9.267805747686708
K 9.83814764836517 6.224319425296657 8.787227805860516
K 10.331214220234864 10.114985298218901 10.713145534021496
K 5.765946730284799 12.51715685645642 11.099571472480594
K 9.777637459880035 13.550821331764638 13.021673221233382
K 6.77015206563575 8.093200214114425 11.729594081126928
K 7.535562599246338 3.6054069322843336 11.446650701367545
K 13.776366885264437 10.619722482553223 13.094551755868135
K 3.2684843893650717 5.229171142596163 11.735940093459586
K 10.105341432566014 9.35557095142917 15.269649814618361
K 2.999788693087036 9.264084565542394 13.725212264859858
K 6.373105437066578 11.347012873975379 15.226979946515062
K 11.177151491581755 6.099108268148617 12.82826426997086
K 6.678220799605085 6.1499720793013415 15.343409910079725
