33
Energy = -26.70102568 eV
K 7.834519983908602 5.73188466488525 1.3704192646073514
K 7.697987271859821 10.457484319834348 2.22113860011886
K 3.82072408663945 7.377335683304037 3.345154812107748
K 12.005478940702448 12.751634754724828 3.2631974207867214
K 7.756115796062417 14.333610292995296 4.7683206048164495
K 11.691644711310857 8.192367385406357 3.3497162092614277
K 4.931691751259602 10.920920350535765 6.107038101395445
K 0.980850066228599 8.829721927627096 6.792933403018821
K 1.1875540947629073 4.302293161160783 5.97586246357379
K 7.79019385834669 7.121095839083166 5.407054219381504
K 5.658786498322751 3.2009231178959525 4.671950882639451
K 10.323773716574458 3.564500180150904 4.818834427723127
K 9.680854040666249 10.888484911645007 6.39465519440826
K 4.39345193925099 6.142268889822644 7.999417389465773
K 11.678966132359506 14.41659734896279 8.280722625061697
K 14.19295448250747 10.65370431210344 7.041034394061094
K 11.74395851497292 6.779277377430372 7.8087587860309675
K 0.9360064959799544 5.898243198251095 10.474621287119177
K 7.25454572248008 13.170833897384446 9.63843118415371
K 8.230159251977321 3.8955334338028424 8.877466892520648
K 7.414200285481288 8.62415230242043 9.489638864014337
K 14.612067960935235 12.429735803423451 11.470848762549087
K 11.068163857608567 10.443102210062852 10.5265073320997
K 14.54787968582347 7.726955883759719 11.39013600530647
K 12.700993183474651 3.462084318712986 10.706721797508406
K 3.4871259586764776 10.057525518669749 10.599751768307483
K 10.488315421437633 14.037355452430974 12.906177903764588
K 9.955661740258003 6.451604505637712 12.269639213119843
K 7.441258109007464 10.46688745745877 13.59378123204057
K 5.303979764358723 6.229660256681186 12.76885418510634
K 12.048879880193345 9.859629886071641 14.837411357523063
K 13.055427719917049 5.310107251335123 15.093751535062985
K 8.668050865613221 6.854705895286822 16.322273670302444
