33
Energy = -26.92851086 eV
K 9.921875472814198 9.041828703819665 2.9011265487719684
K 5.6792032537832675 8.590482341328613 0.9620643067380394
K 6.479105556018611 12.459972425386121 3.8503574107777725
K 3.2767932614564503 5.428091123284379 3.538257333609498
K 7.769168600688838 4.873705956521996 2.7887326644910235
K 2.458395254411361 9.93358107195116 3.8845587418652383
K 13.492042442039187 8.905758799449808 6.623784952431351
K 9.879702157129843 6.436716395278061 6.538094107502377
K 12.398502415569112 5.338594813783199 3.3238847583509576
K 4.476642100306176 11.580638037293614 7.831280659518481
K 6.155306466880872 8.30060240333964 5.141806284432374
K 5.875139971975209 4.052449323165567 6.985915039640658
K 9.384790423504576 11.082858845522166 6.80789112147577
K 2.699041017095352 7.310322749827804 7.785790931449291
K 9.71068287178492 2.100673297962855 6.057349157047809
K 15.183473115782144 6.41498030764554 10.307023286896301
K 13.441721673602954 3.8872753517271432 7.43858730184717
K 7.486334355539002 14.88056058295873 8.199777313362437
K 6.86938554317556 7.813738167756723 9.27456380380755
K 11.644661911533898 13.181422142295478 9.978415362313129
K 11.09985804453574 8.56899883809118 10.27400554368669
K 9.45361617650387 4.305199212369495 10.455956621653293
K 13.452577046478128 2.58141791910379 11.579566352038146
K 14.67874377699191 10.450111780714451 11.7035662145443
K 4.782280506162638 4.95476265232065 11.433089794571996
K 7.729209249114345 11.546659146715664 11.035617876965478
K 4.460017588558427 14.254684437229576 11.69791761808194
K 3.877609098579458 9.590485150891135 11.997738985950171
K 8.735277427616705 15.166139624022179 12.934752005204691
K 12.2647621645506 6.460869735638489 13.8215091017889
K 7.926408299457719 7.687149729047821 13.629394775009189
K 10.876152182526711 11.13079947630939 14.130232349754719
K 6.452364967625319 11.759313851041709 15.158236068214547
