33
Energy = -26.72799471 eV
K 8.926201766605518 8.766809938544615 0.45129108261358736
K 4.293295687522308 7.112405453354971 1.0593241073634678
K 11.929685121677116 7.590407517946523 4.2945703287459605
K 5.391721156079594 11.366415887117455 1.9430680627813415
K 7.138816473717737 7.95644061658291 4.224571364624652
K 9.647168584958763 11.896372988930194 3.981756399140742
K 16.006098990977748 7.381516574727964 6.840180737965743
K 4.230402549556956 4.5682565170198615 5.196646757180327
K 2.4982523467314905 8.987346369137972 4.918458867595293
K 8.897454941013716 4.738793573854845 6.735103196741684
K 13.32215365728581 11.27559797137807 7.3494011217225
K 5.562254243767934 12.184250722741288 6.500629818082115
K 13.39584085093509 3.5814511358698633 6.551896474510087
K 9.269853313445156 9.682100485908006 7.629606315428548
K 5.328568366842016 7.8202280252064575 8.135590705179654
K 2.1647495284820604 10.602617254756625 9.585900793543978
K 4.36258322494612 14.571957509448909 10.261789477418242
K 1.492499901753144 6.014402779833793 8.614006058577866
K 12.307351285880062 7.11610809105006 9.003206638551276
K 6.69992585100471 11.11586751587713 11.098663012156546
K 13.990412956131793 13.783644094040914 11.00715487394204
K 5.634940430379348 3.651120716210457 9.837929579754416
K 8.509238505979102 6.962916524786318 11.033377246180782
K 15.47705630745204 9.356426486246775 11.158073790207153
K 11.103765637458919 10.693452059887468 11.98959740004822
K 10.919903756108194 3.1233924715834016 10.618540381105934
K 15.400341295184495 4.63272789184065 10.685084109419726
K 9.56790053192559 13.887857524531611 8.78350972718307
K 4.171596992598583 7.306423657087882 12.554250850856056
K 3.4727791747947188 11.48358641394638 14.027390549709365
K 12.16212385858712 6.560697400479861 13.673923218188726
K 7.775445614251368 8.929463818749483 15.03217054594679
K 7.997663036077954 4.346989951434266 14.271382347646936
