33
Energy = -26.97084564 eV
K 11.517906878030667 4.728343470488767 2.17988325470366
K 7.7744201025570385 7.354932075022425 2.526056068677329
K 3.1848795353373642 5.894167153846574 3.5687571297030347
K 8.894139778032917 11.964790135052569 2.8602215609558486
K 6.966360491869738 2.967737309564921 4.038916547239483
K 12.304928550119259 8.952500738328142 3.7278672510755295
K 4.467962401113635 10.338583300903197 4.72133075333968
K 10.147710606033993 5.147557722694398 6.287868742328232
K 5.854505237543133 6.429492351921851 6.739278143599407
K 3.198049510989968 3.194892319334686 7.345776141256684
K 8.579444052727002 9.668100459333347 6.293144023001133
K 14.622369974186107 5.870021396577465 6.222967946534821
K 1.6814451010458613 7.752039766780216 7.743535478443126
K 11.862499587851442 12.98449098127975 6.618930621937306
K 7.091641551071453 13.81507830496247 7.044680216536006
K 15.715535704150133 10.447632006108785 6.674655186190866
K 4.954282444141567 10.415629377951339 9.265170115446299
K 9.265100913039342 11.46929848106568 10.297109016761613
K 10.08029269247436 15.586035750408701 10.423137111453013
K 12.117322651164566 8.616482351339553 8.450953519751936
K 11.888794100692275 4.538354235577331 10.4616980564847
K 15.703580073191464 7.798704109243988 10.455158104066731
K 5.911439220366442 13.735130090133417 12.267552317550726
K 2.470487832078774 10.017343187466448 12.711749524714634
K 8.253158886458516 7.167341068482895 10.185604940075338
K 13.776264677460233 12.260462462730112 10.805765810240562
K 4.024413631721873 5.852618122655294 11.138617642324371
K 6.968058987740757 9.5851011928768 13.840906183451516
K 10.125199446780133 13.053850497019491 14.219493409845402
K 11.599335275097703 8.543704820998164 13.050691707968042
K 7.422406442964273 2.897043574984709 9.265399166202808
K 8.128206971252304 4.890820748876459 13.730763239460394
K 4.019533196428908 6.633396941703124 15.408037574393878
