33
Energy = -26.69246915 eV
K 7.8698239429110135 9.195076567600083 2.2999251031687993
K 10.757982366705923 12.956179778272272 3.1686835756686222
K 10.346250508493616 5.489652118235599 3.901629587886821
K 3.536646107205359 10.234141034036856 3.0380611747876807
K 12.603686114575051 8.922182118415476 2.273511188457503
K 6.801589652540861 12.679665652773433 5.270844127180033
K 5.312206818282518 5.5598954716678515 3.7278479762250814
K 10.396754277137612 9.605953201937606 5.895681463213513
K 8.248314068209648 6.051925564988134 7.493403022384511
K 5.140073688681746 8.602279240933639 6.523194667590007
K 14.466690366150527 11.650044634961633 5.381183267605015
K 10.89251683963908 13.476331655496642 7.751408424112015
K 14.0149297165749 7.311850717313191 6.598685588510868
K 3.1128964321148564 11.955755894006403 7.845530456298545
K 7.966049375670654 2.264579371086658 6.098381534437965
K 1.203677311550944 7.480920446741172 5.9350556368163705
K 11.737874703322586 3.844911172727913 8.582670715937287
K 7.644422780692915 10.588257501463756 9.178623642121417
K 10.939738998845362 8.036160494168339 10.346804799678948
K 2.1663046485572783 8.192478429595203 10.241989372297002
K 7.727644596540414 2.8371847325159805 10.653619821451581
K 6.903251625937971 14.552828683107355 9.733000791172975
K 14.863578078298637 6.27522065610662 10.967349981706345
K 4.041610456360171 4.501485299038404 8.161728128650754
K 14.196924523296845 10.809863201628207 9.825283323959333
K 6.292403854948581 6.849537826022074 11.268217028261933
K 11.040676451424245 4.903577416094563 13.280272292055718
K 5.135214221324591 11.216811114689186 12.430943549971218
K 10.258715207180908 12.25311274948223 12.138567951179033
K 13.041508784778198 9.108595695411962 13.965531360713333
K 3.8206715294917246 7.552474282887861 14.592368710586147
K 6.953130589561274 4.366558046955414 14.861847285148976
K 8.529359698522697 8.637627565168016 14.531272786294567
