33
Energy = -26.58454096 eV
K 4.14855266235437 13.638420141452487 3.281876040353998
K 4.288870758420621 8.954485028470627 2.9853248391238894
K 8.150388380366294 15.431467087534669 4.524204080619655
K 8.602672170456382 7.776887964822697 3.548337782557861
K 7.785988866531943 11.700241060483078 1.6250594103983906
K 5.42099836046757 4.3247156565760125 4.1289718318824296
K 9.747037328157193 3.4401509811177657 3.245842183683445
K 2.4036192068988607 10.810142717226533 6.787271037277626
K 1.6513198142676382 6.315302119227152 6.041436858612973
K 6.742398368946711 11.714346293079743 5.8863535917921155
K 12.598273947318578 6.960496049557938 5.839071701896506
K 5.4668705642282 7.7295260441086455 7.030542672340259
K 9.381377880234348 9.142955288575106 7.861038019136587
K 11.141534000102098 11.577580811565007 4.819830965151452
K 8.801207537433946 4.780374015181885 7.121912576302334
K 7.376961117205132 0.7653503643013693 6.6634326862638416
K 15.667519208784155 6.525109479222867 9.580675892079775
K 13.504084091893741 10.447425242599767 8.917335179657687
K 4.752334356588968 3.6659346095365968 8.64767486227062
K 9.94317706833286 13.564420839613973 8.949749583951384
K 11.465942126096525 6.300945907596614 10.159432187675463
K 8.924911598674413 2.602471631539607 11.02581212239748
K 5.900120305726245 11.140976447538023 10.277037299253363
K 2.735005613123562 7.869660158704702 10.379469314529839
K 7.004799119314624 6.702949887924481 11.109389256117014
K 13.447680715759299 3.8275469177100425 12.694238943439938
K 9.98182961631609 10.065166789123792 11.945414320507979
K 12.855203268238546 13.107797514746212 12.629085745118612
K 13.90742456091354 8.580499448293947 13.233245528679227
K 8.46905414522945 13.656456249045256 13.5652461037363
K 9.940638672567568 6.280362503417177 14.421976418108413
K 6.555241773507522 9.529216587360064 14.532407555886948
K 10.76537288749823 10.59902825470121 16.06971350115252
