33
Energy = -26.82105126 eV
K 15.535138420257445 8.718926193596104 1.868049326120933
K 10.73694275408893 7.750176082690527 1.6993670224026065
K 13.62425213341308 5.947279037647549 4.912108961830661
K 12.496590168901395 11.12674501676398 4.1732399322343205
K 5.376789564655004 6.703181122312641 4.082187384183798
K 2.4005737016430335 10.550301866963654 4.973914485040723
K 7.755119269371221 11.096052373623076 3.536221858066188
K 9.265645996774298 3.8731784731757535 4.450644259038777
K 9.539038217504944 12.53264600869097 7.603479090487542
K 3.708897563529786 2.7917489352576106 6.080445533537252
K 4.857702356652848 13.867496429539209 7.030158966253562
K 16.56335092617017 9.59802920965582 6.12020850538839
K 12.767914324100344 9.06011012971862 8.2382687571968
K 1.9727393180320059 6.767257800407885 7.474689595186682
K 9.569466546582422 7.864717346467509 5.8804197763483534
K 5.791295403633805 9.616614140572926 7.396752098457675
K 6.716026394355739 4.9997915124631085 8.151503239979911
K 1.8961222583251376 11.099797233970797 9.586423204869297
K 11.246246515257472 4.503031410552156 8.85633215899665
K 15.578305172331927 5.895322066917691 9.20722166078494
K 8.939174826684473 8.487816074217715 10.244430461186296
K 6.315669063304478 12.209582920120285 11.116130897807135
K 15.876651011601554 10.022118546764696 11.07311745218359
K 4.6205078920388845 7.797341502068669 11.0929070354959
K 11.465630765247898 11.758389141503494 11.812066522934263
K 14.056519777073836 13.267203308534427 8.142265852733981
K 3.122499989546223 3.7137948516686063 10.769330678545122
K 0.3764465553885917 7.393300207401874 12.387121991705184
K 12.415295767981009 7.071781916813408 12.537879067747848
K 7.784038257098643 4.8136107300742665 12.560764504326754
K 2.9847354785616966 10.565962065445047 14.07673997730526
K 7.432935997770926 9.0934793550893 14.420539226898091
K 3.736768811885069 5.968248189074926 14.97010171448904
