33
Energy = -27.13748371 eV
K 5.729389095525935 2.0651744217679644 6.0216246092128785
K 3.132093358464314 2.0264339995584133 9.741966262889743
K 5.715144661856067 12.704299486907766 5.885567877315111
K 5.721674255142415 10.155082727968981 9.787890011276389
K 9.813397563074561 0.1483290873627126 5.731854222589099
K 10.083913715880733 7.138631644895942 9.77294276784396
K 2.227225069958127 4.575592661105388 6.065058547341972
K 7.902251416077923 8.684113319223886 6.088854327021846
K 1.7159049827014765 7.037151278972788 2.0293581662763645
K 9.826676035961457 11.622608975783358 3.6603766187843907
K 1.3351634679229865 11.582292460490388 8.271757914985773
K 9.228729683508954 4.617223584719759 6.073698379935791
K 3.54204650876878 8.66877622150777 6.089044773845522
K 9.752032897117687 7.146464466722255 2.0291768531841776
K 8.324166633059706 2.0422829129002245 9.748502582725244
K 12.571730015510196 3.5783064404297074 3.510419518645405
K 5.723356974797227 5.711910935141994 9.006686314539127
K 5.711580691172304 9.951208957472538 2.048013164074859
K 3.2697750600084787 2.387818903223305 2.0184687944988093
K 1.4916811030821018 11.577860590165153 3.6797881873478544
K 1.3278412367239503 7.01523143233628 9.760983007562333
K 1.6576033709302254 0.018466900129774696 5.727514687516597
K 5.73535348509293 5.74243880944963 3.696880394963739
K 5.727622567109643 12.894353159384336 3.477657067184602
K 12.733175549459588 3.5045580120684585 8.114719633344418
K 13.434367671090065 7.840309332821908 5.745464762212964
K 10.091922129466036 11.612780364212856 8.275866114995504
K 12.381341237948194 7.930732534590159 5.753378722643493
K 13.103040964412848 3.3024345907357495 8.094042256215937
K 8.25904038367002 2.40754091119491 2.019536430502915
K 13.268591809351337 3.5061239838916642 3.502123738127577
K 5.7317725422952615 5.731486683183665 13.857014950876609
K 5.731350638207641 12.704299486907766 7.977450118623078
