33
Energy = -26.8990822 eV
K 6.774702828434134 11.633827295099675 1.7047482715198756
K 6.703296096272694 7.094419512771247 0.3025941836173231
K 10.534938738680367 4.910023778241803 1.9231270296138434
K 8.381129245191849 8.190687420686046 3.9658601388157932
K 10.832679618438316 9.52571987153515 0.6909207469724159
K 3.7709056059039003 8.505151550374482 3.8016859073187703
K 6.286009760034531 4.080564236998616 3.9732538336809347
K 10.282080039170536 4.466585988724518 6.391249142558708
K 10.467282637786662 12.449556688823002 4.494373215790884
K 9.94373930455073 9.359601108420648 7.561274181816407
K 2.4343034996451403 5.014350225229245 6.703529295257038
K 2.4939540729577763 9.52820645961254 8.461652212996848
K 12.987387425364787 8.080462493244275 4.604189723638104
K 6.035545280087227 7.080102550612622 7.296836569135725
K 6.0391431865827325 11.999157839412252 6.2309230186833275
K 6.320897005724459 2.850715199895757 8.657396830793775
K 13.687991605319962 11.378812883850182 8.51970957644219
K 9.430622560277087 13.655122290220643 9.163336648416681
K 13.266557610593424 6.654938176853657 9.310369230242246
K 4.8679749431586545 14.10767138885695 10.610254995693651
K 11.04049027534554 2.5597958829300493 10.583828596960535
K 8.784849123040999 6.1568948166144715 10.492974286737208
K 6.526798926437871 10.174544428612174 10.412418632113441
K 4.206621354883799 6.285523475015558 11.515590628980105
K 10.687759814817182 9.880393282402755 11.71990092437076
K 7.539322421706927 3.432893701601955 13.557673904966135
K 14.895086300354631 9.456104349154188 12.797945483411405
K 12.641064029761129 13.550498096146038 12.740741174878401
K 3.595405709302615 10.627769308494308 13.483275833546513
K 11.711341195292448 5.95252011158405 13.899941347014817
K 7.9130618099079735 12.86500123110966 13.835607039517035
K 7.376113172475538 8.06743383761743 14.597877161420405
K 11.397353738723497 10.28135945548042 15.85134916930559
