33
Energy = -26.8114239 eV
K 6.122572321094335 10.876734899337503 4.4254939220909995
K 2.3350520112505886 12.667502781929718 3.8527531393993804
K 6.226213788084047 14.933055321431125 2.8336816767045043
K 7.4039844399294115 6.453241912922467 3.5113825251521122
K 12.265682037007771 5.949756508860096 4.4279107059889915
K 12.821972354464139 2.637832684704805 7.6743750743963535
K 2.5986728265608283 7.868902079098125 4.56564067157396
K 4.817685530442789 3.5189910133273026 6.294064828517011
K 9.408152527242313 13.875320413377517 6.269132498130503
K 14.067966818167838 10.266765844197565 6.309364056491516
K 4.863301679531304 14.852354529533084 7.218320623678033
K 9.500596824712211 2.2121994252476935 4.28333165065118
K 9.771280739459238 9.383053692431293 6.177015548831443
K 2.377526791453445 10.932197863647739 8.196653816473406
K 16.177372491358884 6.119351731470806 6.982969189209564
K 8.940939879564262 5.004016440298878 7.536811965599979
K 5.566254714365078 7.7221772979731105 7.674032186983055
K 1.7256509718716455 6.276878214400355 8.951673141627152
K 12.37254070406025 7.095673717384321 8.942065425992485
K 15.03811449853799 4.75437217514183 11.309903871363739
K 8.425517337359873 0.8896359560417803 8.566454801546328
K 6.827472830071563 11.511165915371494 9.079537409983535
K 15.777408955163668 9.259826867036871 10.537469657601338
K 5.822640809563783 4.375860224462121 10.949760353636211
K 8.190606944027468 15.20435172092502 10.712793286526589
K 8.584660658460686 7.994717092869597 10.867541932333998
K 11.419970956170594 11.63986975584315 10.177622938570668
K 4.040993603754736 13.437541328254259 11.897670574790682
K 4.138530002941253 8.82002187790559 12.108500215452386
K 10.43594944930187 3.7160265646729944 11.80130162878471
K 7.788604447114681 11.404201449870511 13.601588706790142
K 12.141130159484156 7.879136390262849 13.427959531432501
K 7.881171855922495 6.343458268262592 14.711414402189684
