33
Energy = -24.54190481 eV
K 5.978843689993418 7.979822832952425 2.5739054268017663
K 14.43217061230043 10.628452138267068 4.822398201376784
K 10.143880040839596 9.527507209934988 2.7693868945170874
K 6.570605481355159 12.474191722011929 3.2649470286619846
K 10.855859345642719 13.721423406870638 3.8242669298050487
K 8.876436059874239 5.466024122064985 4.560786799842613
K 13.249785408224552 6.297271371529576 3.423675271258946
K 4.508922598563309 5.826312965827415 7.0087061210624375
K 2.679532740380579 9.577715182546303 4.7167287105147215
K 6.931785244096737 9.642734142302356 6.665310395488855
K 11.652025169611795 8.218469772369323 6.8490966069607895
K 8.072566277146759 14.204277123392668 7.336272965446959
K 3.728612618068022 13.339802912498241 6.755206576194738
K 15.765222114905265 6.539093803913925 7.220890428460311
K 12.253333945133145 3.6262244748411003 7.065163496921544
K 7.44837373847435 2.123040953920505 7.226289107421182
K 8.77790750630426 5.6605978102200085 8.928168180812216
K 2.2060344496205526 9.770538147651317 8.964657123928141
K 10.24456724296823 2.211254391032812 11.109556333501589
K 12.087177053878694 12.852719951738186 7.838794060320122
K 13.048139936216982 5.857563688493953 10.930485636970618
K 14.550180733875713 9.856802447558202 9.855621568731722
K 5.806237529719905 3.3305293057044243 11.324665622945247
K 9.716302250374973 9.789574412464969 10.317834997490246
K 2.0278911756189317 5.849997783306481 11.149831909462494
K 5.709202570161774 7.898334108258016 10.918129343473892
K 5.6761894215623245 12.37497281974974 10.710468281514656
K 9.97107959444345 13.605285191369534 11.746995572393098
K 9.230963718354936 5.903277911504169 13.541460396341357
K 2.956810469098243 9.956346519770156 13.452653959062044
K 12.151647250866949 9.437083424179436 13.749893113964635
K 4.942636759026689 6.189376874925007 14.857884835337977
K 7.536781166722512 10.05108499025619 14.307572016439725
