33
Energy = -26.73959641 eV
K 12.791204390529172 6.0631310229692295 2.1900961144742865
K 12.945406129726964 10.566142646656845 2.990560416698118
K 8.744864212684217 8.368575883697671 3.1358917523870278
K 16.134100928794815 7.878728175851 4.812623347346264
K 9.35649804467855 4.154391165039064 4.978294883430862
K 4.5930657573350135 6.177399503859559 5.106650001299503
K 2.20985091208418 13.44110190430555 5.6153320783803
K 5.315837801473462 10.580018734373056 5.731083537781261
K 14.06090104252965 3.823424378548512 6.152416475898125
K 12.067346383500286 7.6825580284237915 6.033402148424613
K 9.741795790339625 11.68500343611665 6.211308546684753
K 1.0630817639508376 9.143351218875353 6.67986864520961
K 8.00224253481913 7.462078673312833 7.417674484592596
K 14.151541021146915 11.392323487631618 7.436474562416604
K 6.139878146337908 14.449825081144116 8.019219314029412
K 1.367819953850297 4.753739908752615 8.429949962744402
K 5.997795926469393 3.7409778097188053 8.78051521672265
K 15.041727918366327 7.072674915784043 9.253887553541489
K 4.188483881407533 7.771068238391716 9.371379944730345
K 10.752771673549578 4.475695149553648 9.255646438296449
K 2.838774029136561 11.967591903150483 9.859883590701417
K 7.129986965928277 10.796878436684892 9.98395513102152
K 11.112275515845651 9.022122298085087 9.954398980686927
K 10.83861978673528 13.415723587059638 10.192643121493473
K 14.389652992337009 2.7923158148807086 10.591588531443954
K 0.4316339176432325 8.262462127782307 11.287908462406877
K 14.318877145798872 10.747456266580093 11.94339005715118
K 7.748266539861494 6.525309953657802 12.056171220402476
K 6.003337551302512 13.66883195057857 12.7552178026925
K 3.363352397396342 5.0103144283966285 12.53137514501636
K 12.565836322577109 6.413679885023622 12.98469046378762
K 4.516324426249284 9.431912416481037 13.515046242725308
K 9.185591140080778 10.371934513099887 13.850198769848502
