33
Energy = -21.57199325 eV
K 4.608084442048382 7.340911008534417 15.334369758585604
K 8.625435839518797 9.309377080345932 15.198972667796212
K 12.254045920048812 6.664126860104156 13.898392078469888
K 4.86167319829046 11.968305457873127 14.558254223520722
K 8.165581605282004 5.239981261445954 13.15583368087011
K 12.397967002734308 11.32182100985233 13.733878414342291
K 6.114984913651964 9.065389690056758 11.553635920382588
K 8.41665041605251 12.90470972841299 12.064267028886883
K 3.7979889717572144 5.180466494763233 11.405252772402099
K 1.8667376631092807 9.377204309459234 12.408858310720337
K 10.300745519630754 8.84045300558329 10.694497059858127
K 11.73947371337816 4.77834871101355 9.450763379520264
K 14.695348515900688 8.794060782060289 10.743489094407213
K 7.393519848917957 5.7885089793301105 8.9851397817906
K 4.319914647164644 12.630098740300486 9.829087806060459
K 16.25958794094654 11.759945043093118 7.911855652436482
K 5.4755608662855595 8.675782375995363 1.0250520236625567
K 8.85781001808899 10.678414175967264 3.0899483731294013
K 12.8987962029172 8.487026951080539 2.660077753858966
K 4.563189152116635 11.428172517049722 4.8514861027592655
K 9.180515025273952 6.0329375017483775 1.9945445991143123
K 12.429328652989849 11.768807645313341 5.53472566085981
K 6.415603237452475 7.500929104005284 5.11461628592453
K 8.01717815736274 11.236752630405961 7.68776941620225
K 5.10275864984152 4.240115728523437 2.417772682198017
K 2.2231494226256907 7.377392981287967 3.861299206096473
K 10.54635389005623 7.819739313536395 6.384352255761612
K 12.612599714408018 4.3624978610462835 4.7356470421972165
K 14.957527808795458 7.734918066856421 6.627895719945185
K 8.43168071701445 3.3863716191842044 5.607731686545885
K 3.4617985196294594 8.538996597598091 8.155407909146987
K 12.150717496499666 12.751771588785239 9.590149756300155
K 3.943897822095019 4.101870691271976 6.821181408132535
