33
Energy = -25.30218553 eV
K 10.077604020079393 13.790542074462154 7.533849839660825
K 9.707742159080153 9.815806160025828 5.664384006772149
K 10.191204285186167 9.514194806850721 14.647589567461608
K 10.267954639380015 6.011825922261082 11.99425356934219
K 5.092789656209568 4.2774196716567925 6.609757473634384
K 7.838928281441082 13.224164227620319 11.990971721814027
K 2.896520554303088 12.031138204962506 6.170032167838877
K 3.500518620399631 11.97663189467816 11.332169632946648
K 7.677447917981436 7.044083596292104 8.2733581598535
K 11.702358053866032 12.48610642327375 3.1984809688825773
K 7.155831097052823 6.053745540059596 15.33997520180379
K 13.43956804653453 3.2760730688997763 10.200703195345813
K 15.957453834973425 6.1401163224074224 7.247223849569005
K 9.277089238477727 2.945473903295398 8.489101999186653
K 4.08038597673043 11.403088392345229 1.6967585346042404
K 9.31432093886141 2.069949535403842 13.002672933080037
K 10.643227042675708 10.225859674917762 10.190021490037223
K 3.092386430769436 7.669666016782962 13.643193662213019
K 5.753747118085133 10.667702270675601 15.598108819300796
K 6.782907990474086 8.885539891841523 11.980770407732722
K 6.564541149622975 11.204914578121052 8.263432938799209
K 14.262348908814511 7.746846100184124 11.29580922893068
K 5.5485354307053525 15.238052213426963 8.289104142222078
K 13.842509740287644 10.55885325251241 7.054112426316277
K 7.0525260187581225 13.265613137014544 4.196384531451697
K 5.793991955738505 4.497687985577449 11.323391484009305
K 5.368577803865236 8.511619366176527 4.687071898817413
K 3.4058881410288513 8.072985556680774 8.861291468455489
K 8.964091972258723 5.608993538792476 4.282309094065771
K 12.987545863091773 3.2788252334417844 5.532738976955037
K 12.97772348189918 7.777735926602505 3.555004830726537
K 8.432060893495247 9.603871882716971 1.5549992044500842
K 11.871299117714758 6.646500009881026 7.822598953561109
