34
Energy = -23.02641816 eV
K 8.028690639118468 10.233265503065043 1.851159887970575
K 8.066865212832665 5.831031320712298 2.131291852638372
K 12.101926575316513 8.112460387085125 2.51164034691136
K 5.043935475270001 8.222857410651606 4.72365606301732
K 11.723366959726842 12.710337283378651 2.854740616459731
K 8.147478599833612 12.49036790819544 5.478300125327565
K 9.554471076485774 7.665352332848098 6.297342924809881
K 11.212565688617454 3.696008634846216 4.77641906274312
K 6.596986353046279 3.328958437042895 5.371578992224955
K 14.707653773508042 6.402960033927818 5.795093737939356
K 3.597603343195488 12.499035271267665 6.347144315376515
K 2.268082466409532 4.711951691012118 6.373358891490632
K 11.747811731933716 14.753163131594974 7.323703453419292
K 13.621336384018198 10.634949116849358 6.195017259424596
K 5.532301542645486 6.0477200345807125 8.772771552660306
K 13.586313117323295 3.366373694498167 8.806632523912269
K 10.4096847507918 11.266353473472103 9.380808400867663
K 6.183036571271298 10.268877422838777 8.804305365499177
K 13.230710631406229 7.659966562803491 9.887131129121764
K 4.722353465912702 1.7425685717223862 9.168530849511797
K 9.219895378969841 3.547469911121153 9.136630259230191
K 1.8668595034074045 8.761771113405128 8.751963896120662
K 14.540612839303387 12.129958943582174 10.47545292334057
K 7.281621440534924 14.679116221195512 9.51788701167514
K 8.816406996116722 7.648495163399173 11.212760734178584
K 11.026624844864086 14.638861826944026 12.137848574612672
K 3.2719535027900637 12.55371699349262 11.020821742364992
K 1.9178550825813037 4.7777187898487465 11.063948759868032
K 6.382501784985207 4.135446365698004 12.875776612228707
K 4.3179489102626185 8.38073411279697 12.862685334107573
K 7.37591396454212 11.766191993559662 13.2160361065213
K 11.360614108239735 4.883040670170706 13.169960837013258
K 11.737802373158283 10.205704892391418 13.662989736225748
K 8.20894512059666 7.655944989017359 15.453340330202936
