34
Energy = -24.35473818 eV
K 10.195345278093182 12.788129925704022 2.8202740856785966
K 3.3456302288220474 6.708998522476833 3.3080770007947304
K 11.543490875830894 8.33700264230861 4.247265131990328
K 6.998556302275647 9.661722575080487 3.8745935177561783
K 7.951935280097358 5.1642617866615375 4.390478909078212
K 14.060182990980906 12.173797350828176 5.5042841112865935
K 6.465351989752118 14.003064421948576 5.394111235104391
K 11.067985403479907 15.776354570480125 6.248436995559435
K 2.6717989300289404 10.539279219099763 5.633918211677843
K 3.728414641707035 3.0228732527661837 5.986880766775657
K 10.0580697444145 11.745707510324566 6.888750056249143
K 11.937282032266522 4.609539510200644 6.971911409720677
K 4.8605490871982395 6.873513091615294 7.203093558490596
K 8.999668138387195 7.69857851532249 7.643712368006322
K 0.6162719363175588 6.250449015019177 6.956489937533654
K 15.636690252182108 7.012684310216274 6.224418227501238
K 6.152614704951944 10.767543083478284 8.448308365370906
K 7.571705474798303 3.5114153640412695 8.789600937087865
K 10.673105185414318 6.116211121498137 11.141606687931862
K 3.2482871042020802 13.661712888343319 8.928580712870268
K 13.209677732089323 9.177127359089305 8.77915434102101
K 14.889761729393026 5.19776913349884 10.512223741926014
K 8.200297540976848 14.573425166514221 9.633019719243569
K 12.755317204601571 13.467838383841942 10.03312081816462
K 3.213312530147431 4.347653453189697 10.390776196846785
K 2.2419528822226957 9.10890286557782 10.056817407870213
K 11.495479907341387 1.975768361428462 10.964022442587321
K 7.8731960748016006 3.4803425219053805 13.3118722486753
K 9.6811766822746 10.55569143880459 11.329676630499145
K 6.318501346400127 7.3406705151675515 11.43594609697028
K 9.199942051399656 7.628532987102066 14.860654047673354
K 5.521758510953733 11.571117651214227 12.602931463667206
K 13.462377644817492 8.943514295385809 13.148535169620699
K 12.452741751326267 4.50723635981216 14.634886618717074
