34
Energy = -27.54583726 eV
K 15.187881435169125 7.202997619641943 12.540546668657559
K 6.9136087519734994 14.964228683820426 9.84241216479379
K 6.384464312654741 13.770664254651958 5.260561375694746
K 10.436224651237124 8.444853162286933 2.015031501032517
K 10.407752427018686 12.98504541058802 3.5611052247553565
K 12.180394378611627 3.29822197626924 12.748168188097072
K 16.131693046415567 9.286249028515078 8.224471369197047
K 9.941957762006828 16.492507209712013 6.50968687628709
K 14.361537556924732 6.622359138661723 4.531698385898673
K 3.4332544075940072 9.276567267296299 4.862656135673171
K 2.236676872505338 7.459532145383178 9.845155903629495
K 5.440676282593958 10.782709939816305 8.93089981741518
K 9.958919256728716 5.621902288479264 5.592780016096817
K 12.265216615455278 9.742679396493434 6.043064795648047
K 6.27081646977896 7.1686735089156 11.674710468216121
K 6.217872073622242 2.4602046982149535 6.307891760688917
K 6.378814499762225 10.910080797689961 1.525627472243701
K 8.263395392527592 11.175671170118946 12.425508964648943
K 7.893812028380998 9.731903814828106 5.258226370501175
K 9.74308120449466 12.57094775898779 8.125855606310209
K 7.549021386600893 3.7870963686435593 14.01014704083567
K 4.322480447969173 3.4151649442062473 10.325201447840277
K 5.886807378308817 6.501749670127323 7.439896668685166
K 10.577690429609424 7.207166784231975 13.179408474290378
K 12.814288709065462 10.595855167209454 10.671626861198304
K 8.963660180339655 3.815934512861786 9.756967079179704
K 12.99219863635368 5.948420553363419 8.99224715392009
K 3.124483022185089 5.854773691649639 14.157991198071796
K 3.7786301515123477 10.374102556711769 13.230456451738993
K 9.416888867929632 8.333179952294156 9.102723420810685
K 2.2892793626265266 4.764430338657675 6.169571567869054
K 6.781574561899319 8.025609240574935 15.77650348191147
K 6.295796153190765 6.396604100126631 2.9548454675739304
K 13.795708836205506 13.648470398222429 7.042912169840672
