34
Energy = -27.8435848 eV
K 7.057867433737218 6.633577187824753 0.8765018508877152
K 10.591392954943295 3.4830211162600975 2.004798919825895
K 6.085340975255749 2.6899772819204624 3.2920950957261113
K 6.2535352261810315 14.791169492098064 4.941999859747523
K 3.701647334842039 11.43161264307007 2.578127989832711
K 11.428768725338522 8.112658300661758 2.212484096454126
K 10.72504726857994 13.534621475917389 4.8423179655353685
K 4.025640297771095 7.029278573734701 4.23995884937758
K 9.572403819707969 1.7721700355375936 6.446378841503466
K 8.53057220088758 5.952019392822459 4.86684625616988
K 12.924525293051559 5.123133693083034 5.893844148975938
K 7.746194176080565 10.363238153412995 3.706146678307749
K 9.245307057873296 16.244468794300495 8.472841671597633
K 5.388171225366177 3.6965291241923874 7.751016577558591
K 3.445605819889247 11.622862250532883 6.988913903639507
K 11.293959846982474 9.315742234695552 6.600352256213101
K 7.925733623025012 12.183191980733158 8.083480430488384
K 6.333848831045841 8.301480908436428 7.737648148764861
K 9.589959366112007 5.511666895935614 8.990589861978702
K 4.956648888017079 15.128869313735999 9.603715431806304
K 2.365148736177539 7.3786787832131475 8.849881858255673
K 12.594767035756218 2.6142216738679758 9.958568848512177
K 13.511205221956264 7.651747570802443 10.025726937711022
K 12.159378010582735 12.543343709528228 9.641249604375107
K 8.134586409210984 2.043816459168563 11.40050012979506
K 9.235553634947895 9.235513688726343 11.058835555613555
K 4.77166219327756 10.748745255782175 11.395408197896897
K 5.869636210650817 6.13214296398041 11.740787720889887
K 10.945766412292434 5.5330450402292195 13.274532167020581
K 8.496614763223812 13.494256873404325 12.474939836980703
K 12.026920353829576 10.32145411866403 14.042919332085395
K 7.1353416769261155 9.244184031703513 14.952875300446014
K 7.245594622889297 4.436238966332038 15.541310324898268
K 10.366407643136814 7.382075305239067 17.193158640675524
