34
Energy = -27.7247095 eV
K 8.550954794897656 4.511628932543079 1.7020738825188029
K 4.467505988801829 6.422285612805566 2.4592185655596825
K 7.829822696182382 9.760958074423078 2.1133237180537225
K 5.90041379668514 2.9249380067932584 5.447587859034805
K 12.118896772758985 7.312504328634104 2.8894699550722174
K 11.652067699049088 12.336833968527664 2.6595494507222215
K 7.880660681605465 13.218438784504087 5.1817216513777575
K 8.0027543123813 6.964480286020276 5.230143423957499
K 3.975024658373932 9.728413276277548 5.617748317563347
K 10.677911930369223 3.6290829140289347 5.758431638360766
K 15.233363487276367 10.655001317329923 4.850723688295027
K 1.9092248233032316 5.64007885879245 6.0458522286016665
K 7.335166323392942 10.28142404418605 8.065336209096733
K 14.119713520070745 6.808378850747387 7.161766236742793
K 12.29279014010567 13.935956858128048 7.310558100902276
K 10.86648895373557 10.456133924198083 10.565261510532562
K 10.199933401841848 6.3100557683738 9.206471653122264
K 11.125765777799153 9.889879381637488 6.259098968318198
K 5.611471844065103 6.246549294501499 8.559613542313906
K 3.1186889988920616 2.831995740684597 9.456030980034647
K 12.288852006301592 13.963694666603038 12.327308924811494
K 15.075940018914622 10.885965213744822 9.42381450830951
K 2.160808182967316 7.959476321962187 10.190428187305843
K 4.31600470071234 12.058576019434758 10.26757208971754
K 8.443429609821324 14.239037664316495 9.716142698628184
K 7.765916601824372 2.7587194278259988 9.900483182087012
K 13.679709678780503 7.228479236320905 11.835369268818429
K 7.1455460510271305 8.597908458077375 11.956204840243585
K 11.237917757731722 9.647861372664979 14.854856495433538
K 4.957971343030293 5.031783134522218 13.134482656182168
K 3.5799579463006626 9.813577528776964 14.204846243568529
K 7.699976588506068 12.48101997578965 13.824330000121277
K 9.664745764539262 5.382658070918257 13.54741302504239
K 7.176134713654415 8.147756251604548 16.33829786525033
