34
Energy = -27.53293748 eV
K 11.960232030156345 6.54302690811008 1.2590567491744993
K 9.182745110600761 10.408509558636101 1.2601950254747853
K 10.165418129209126 2.4478917895309467 2.422985716121803
K 4.7630902642227895 9.058986737892285 2.239640729690778
K 5.87948284134906 13.317437520442692 3.069453896914651
K 8.21061976912888 6.214610028660358 3.1119125530190455
K 10.171261585449011 13.865198458152754 4.857907132679144
K 12.175135392291011 9.560478303394206 4.612113422815277
K 7.63265811022238 10.189523419364935 5.199940807815164
K 12.614975993547334 5.0417221928909175 5.399396540877577
K 3.3918962321646924 10.683238329846308 6.421760982883322
K 8.550203576610793 2.7171971968371182 6.714191093609334
K 5.088398295530029 6.451642871326651 6.263581126476773
K 6.616373497568422 13.750499035135132 7.931173321646314
K 9.506917929896378 7.047070061238104 7.347327543636928
K 13.882311665773734 12.884850859834861 7.326107614632292
K 10.233007077332816 11.361653777968701 8.504382244939773
K 10.424887208429817 15.526600237578261 9.429116691192196
K 6.323148896248408 9.491288630148937 9.439323926785624
K 13.409003452745113 8.299266817989169 8.895545403024107
K 7.893496933455105 1.278926926568618 11.45115611334077
K 2.900473512257994 6.94767116172319 10.267199442565369
K 6.8538850684621035 5.146924519746006 10.274208100407941
K 11.37439531285975 4.278088194838227 10.294518350088934
K 4.545403903283418 3.952471849490621 13.668354084499217
K 9.800830598787014 8.282347943853361 11.635315323088436
K 8.05918175897614 12.545178832968274 12.434060385418263
K 12.535147651159205 11.594777409350796 12.270857276549954
K 1.8873416047811813 7.546590449540648 14.403169615572873
K 3.320879486670346 11.285455602211695 11.853911143948983
K 9.088843476965614 4.922285682570235 14.301502050621336
K 13.165582945708229 7.0682093246240445 13.686164613457306
K 6.093187318819038 8.339823965063507 13.860200809339352
K 10.051345217763718 9.702317250898895 15.646032016117973
