34
Energy = -27.56388012 eV
K 6.910566029329002 8.405065434121322 0.8315656889628116
K 11.062509258551307 6.819214527349995 2.3101024118138986
K 11.721870414819959 2.243373002079735 3.2370838556522905
K 7.558215042680495 4.071095241657147 2.9426836109424754
K 9.395146357672784 11.707820152592761 3.0258211819718306
K 4.99978221460129 11.200698489013838 4.128370010047075
K 3.732031247652898 6.707876453809509 3.945965558580218
K 7.8634036361632695 7.901462104495104 4.88856232666949
K 11.034296550180738 4.877451499492702 6.429174671448676
K 7.955999743280097 15.402737792614989 5.953169784457728
K 12.085252236885905 9.334936691850002 6.367812724845588
K 8.727485259827585 1.0699026512914784 6.5270400823165815
K 11.951216499692718 13.965552412249098 7.623455466799827
K 8.192613598904188 11.476557854892196 7.330168665844188
K 6.224394342413733 4.494809590158056 7.093101009172097
K 4.3905911703260685 8.755799785582578 7.8326248387395365
K 2.1623332723273836 4.866255199463839 8.16568989678895
K 5.3574808194989405 1.6997581173721927 10.41945097862576
K 8.630591993261408 14.610954551666852 10.705509945634578
K 15.168226206332891 11.205197359983538 9.662968565750935
K 9.38656852994962 3.5028846285468354 10.477314769432988
K 6.711131321600953 10.28852922130725 11.311704572923295
K 13.073664226439988 6.886538372583588 10.176020567268944
K 5.300620572500793 6.0969105112096456 11.349771499552377
K 8.80485177216461 7.470099756458839 8.99579748463164
K 4.728088329381961 13.49928408398899 8.872571157308956
K 11.038044134285823 10.82054888121119 10.574434331935127
K 12.981724229603486 14.261027762186044 12.201863458350122
K 5.230848629989664 13.203802076688595 13.733965236747741
K 7.0036390328585885 3.696483209834714 14.508564641480167
K 13.727099088588963 10.027922702036898 13.764982947412202
K 6.096955434159717 8.68229379411085 15.294175584529079
K 9.744939873845988 7.342014194101565 13.324528902430519
K 9.570382136970304 11.927705100740646 14.516546777674204
