34
Energy = -22.97112497 eV
K 8.64528776540826 6.842260911923518 2.5597399237508367
K 6.951908169459268 2.641960952145456 2.8111882016654315
K 13.387298020607549 7.733320367945536 3.446893737546926
K 3.9158774091130044 6.431540523594044 3.6929082585997577
K 11.293721466602568 3.7123604777792196 4.633304023047986
K 10.158037021197467 11.509977378294778 4.23462586362025
K 6.403024509509281 9.470029602877837 5.453223982453889
K 7.231929257955571 5.022168332006254 6.280832823190287
K 10.599979278280053 7.749959817285586 6.430610875910474
K 3.953649379864288 2.448804724968429 6.35582859906602
K 8.375209053073512 0.969074138396636 6.950320326520384
K 2.370689403411658 10.757337258382178 6.207631180297001
K 13.728829178193052 11.041617958423876 7.26630642651947
K 14.721488109418896 6.478624877889563 7.676741337039192
K 6.135919011393749 13.811360250160263 6.604522593680908
K 10.710555522425873 15.111490268523632 7.696352477985656
K 3.4004570881271623 6.734095782176314 8.29472580627352
K 9.304241725375947 11.371447835124341 8.523459144997558
K 2.755490596606795 14.306534123766493 9.60542400148401
K 7.387397021428408 14.59854353562653 10.960910120476642
K 6.3588389157221386 3.564779886024997 10.395911355254386
K 5.144767336779152 10.83706278623596 9.660840986616746
K 12.40376263760669 12.89355501360968 11.36615680718895
K 16.00175179882687 9.763889487663842 10.896279387510603
K 10.915349479880588 4.032732870279377 9.278394937728484
K 11.890917883180293 8.502297768763516 10.518413279985959
K 7.7603600817147225 7.4735020138035795 9.71159314557086
K 1.2067476018715664 10.101093403630571 10.771978586722783
K 8.536226357621077 10.62774220412116 13.097651219999355
K 4.278553725212892 12.322879762662222 13.552533764657184
K 14.369294640806002 5.657506341465284 12.242104860420536
K 4.875048532061944 7.6733618101431125 12.76673886686724
K 13.016015352756634 9.438015997084252 14.40705441582766
K 9.451225463822102 6.008920332537365 13.28864747683721
