35
Energy = -23.80864969 eV
K 2.664636202975935 8.318931793738956 4.547119056222897
K 5.394128870557688 3.477883775428998 4.531456732313459
K 5.872612859877692 11.728964545112971 3.4697925171721145
K 2.2324400948205083 13.050720723017557 5.807225255700757
K 7.1494760480746 7.528395534771099 4.745216028786426
K 10.20483950258569 4.24568386432534 3.7010933460091797
K 11.074195250381866 8.768598153742317 2.874553601030363
K 1.0483645512163722 9.641354560488919 8.756297882919824
K 8.737145056996166 0.5162402409621727 6.032129534736441
K 3.8971689538941687 5.953654461979059 8.318338346601834
K 5.189842026554984 1.4760103754067873 8.781675686409269
K 5.032378804140868 10.381488914464642 7.482657032980612
K 8.251864860137744 4.199132788861243 7.79312479403232
K 6.624237775874183 14.601963942309556 7.010055509433517
K 9.402070184064085 11.216554465574148 6.193759772673155
K 14.528511383981545 6.08061677525373 4.5968303778138155
K 13.953295574808166 10.765942234313167 6.555809471276399
K 8.829368326214974 8.617766420598556 13.634264798987628
K 11.244573238563495 5.399326469070843 11.412095959658693
K 11.141971144002705 12.789683722450004 13.37354775772886
K 6.282849858812667 12.501065977373178 14.304285970180588
K 11.628762823207813 9.887661276774878 10.166762134840397
K 13.695889616111376 8.691062244061097 13.605668114990136
K 15.20111408319546 12.019399073570488 10.794727797480327
K 4.431264620306567 8.95844443778527 11.984283959181257
K 12.631979297375011 3.06036207467845 7.580908975988933
K 6.7021391769745415 4.704347556181307 12.034585422752441
K 9.482737305453329 1.1661066096264214 10.54414595408498
K 7.834069189124549 11.881558019606377 10.436127362383184
K 7.859310050858824 7.88660821449823 9.422740911379242
K 7.711415584476256 15.788952482933931 11.378387761407316
K 11.424524211370372 14.206579240205894 8.778466863791303
K 15.017933647481716 7.180340719238206 9.281069346353434
K 11.234373880823377 7.180127004612757 6.857341255480775
K 3.5955768966227732 13.335532258902235 10.420515659137076
