35
Energy = -28.68520994 eV
K 11.170072808220057 7.5241675921557745 1.329807419830196
K 3.693329978378913 10.374123194789538 2.9987661952146136
K 2.200830082082623 6.129783188688331 4.121725739076284
K 6.389314566884804 6.709312341113903 1.7375152186353073
K 13.993510400424299 5.114532548776793 5.22583262829152
K 8.480488803180505 10.515652850707534 3.4084130654954916
K 12.680373648153541 9.644655664423121 5.264719086165347
K 5.583832586048325 12.513874866515248 6.8059520362391766
K 9.592937182969978 5.992199108877991 4.829473548314148
K 5.572195943145265 7.957646784954439 5.830911784618699
K 10.271589786444462 13.65929861240444 6.8657470436204875
K 10.638478746990918 2.491032617016375 7.617675465159546
K 14.649657648802833 3.6299836614849803 9.81551765148192
K 5.940033940783384 3.4388804562784396 5.356784359041909
K 15.953015786813696 7.8738715191516375 8.549656886224668
K 9.059525624545236 9.664173844348674 7.563386003816863
K 1.8877353097565128 9.746361696729 7.267840039557572
K 11.990489813051376 6.695675299023072 8.640185031540655
K 12.783658188441771 11.13680100174878 9.83532423396757
K 7.079605347530862 16.234207741617634 9.428564888150586
K 7.7094313039629965 5.670761707838777 8.856750184275123
K 8.237205164653487 12.405984479544147 10.690826340872356
K 3.2830465248244174 5.3239371574229715 8.52417592492062
K 5.117250034666865 9.131873469428532 10.265327504243114
K 11.196069894755073 15.366128511011135 11.215911205689839
K 3.996854478055683 13.266955750398376 11.149895822034726
K 6.540459988036867 1.8805508850537684 9.745067852395737
K 9.476037227198685 8.453060914302641 11.75739366521848
K 13.664190544761773 7.494420331622768 12.71043920499686
K 7.421550662563936 15.012948222165914 13.912073007833785
K 10.639434593736585 4.039237400602836 11.973443308973552
K 11.02803095250512 11.757095636451655 14.164682144105752
K 6.299109718818055 5.757721659830096 13.025312390451163
K 6.523284526101707 10.522993791689554 14.402248608594252
K 9.877177818022014 7.4899051171444295 15.732464136264362
