35
Energy = -28.62753389 eV
K 7.260252011242552 7.249552601641776 1.2366813958492402
K 4.629276927411172 10.274845987772887 4.2028491999274005
K 9.538767969112747 11.151521608394747 2.7111934411134087
K 11.733311314940154 7.082812962787344 2.6635849911558496
K 14.09042122885862 11.076593732573107 2.755398888412896
K 11.441830427045243 14.382452443451097 5.742163952665183
K 4.294096354309694 5.701139853249013 4.271623440994546
K 7.721995901379218 12.134181228671157 6.889023378454815
K 8.150897228533529 7.92830039819803 5.393317598229741
K 15.331094801452242 7.262102963844178 5.355990380036173
K 8.343404679713696 3.5376463843718664 4.197695893868752
K 1.1516104432812393 5.349867968192767 7.272347334982651
K 12.149737809450741 10.022795353413917 6.473092502747224
K 12.939827874662624 2.98878432959997 4.239803573732875
K 4.24791039314666 1.901705313284471 7.273589906260017
K 11.646975055026429 5.424329711607404 7.339875638555911
K 6.912561588364329 4.972642225618529 8.413630547911287
K 9.53141911393698 1.3996765469728893 7.997965677082423
K 4.3534042418938235 8.452013783038176 8.39108889133502
K 9.310436123940358 8.41176035672465 9.554203249109088
K 13.71182889203415 8.400406428400533 10.38811609438853
K 3.8178572612736716 12.954884871938189 8.860091792679707
K 11.423943990416776 12.574846927052231 10.060299958159057
K 2.9867224557708907 4.661129137218091 11.057408827237413
K 7.965204288367099 15.349756981759699 9.963289148603065
K 10.601626556957326 4.608936194243438 11.554945188639486
K 6.508634255705012 1.9037398711837685 11.430074386716436
K 6.9560304207053605 11.08001607922842 11.36322801487989
K 13.714817390139507 11.813709914118059 13.723130051915419
K 6.527176127505731 6.543685300324482 12.912708482987943
K 2.860613001935911 9.554412545015264 12.522715955065546
K 10.426098833813755 8.846910677330474 13.766467242426266
K 4.7971740514465795 14.07985217635427 13.328312216260294
K 9.502872298992967 13.64622614032154 14.11358654202543
K 6.472241623797117 10.328833938667495 15.63257915215511
