35
Energy = -28.54649271 eV
K 8.945417877866687 9.914673179449304 1.6751162228347074
K 4.275756324253325 9.180579546601386 3.172720824138818
K 13.52277602118999 10.62618714509043 1.9800021654226287
K 10.347703932837096 13.871930915388177 3.900969591849815
K 11.903205762480317 6.338204931089257 2.8782030249708757
K 6.976801643105647 11.466119915270266 5.391967474098167
K 7.759543971372918 6.690795698385356 4.773779447063279
K 7.306187447811196 4.828991051817911 8.797487101458835
K 11.167033746122156 9.83303725083433 5.406126508062143
K 9.354879388947841 2.3759183394993113 5.924893556139484
K 4.386624841569666 7.998834270455849 7.5797424076220326
K 14.227310124731519 12.68188675141335 5.98155154252772
K 15.115804793803365 8.111478678073029 5.705002573602492
K 6.382397907271307 15.40582104943979 7.27519600975905
K 11.714026606907101 5.689872577141013 7.347673291060763
K 6.592408248371234 0.7899743786264057 9.701962340773726
K 2.8225192111973683 12.315172703396403 6.840473847303273
K 3.040214275200473 14.646907872793195 10.83955312305428
K 14.373360338015946 5.330620951321386 10.88842596906884
K 8.689528902863866 8.88023937594544 8.586565615596914
K 10.80347205328955 2.2635840902285316 10.406679035326265
K 5.992150606330478 11.802539936204452 9.75367264903175
K 7.470463320028775 15.241339681275688 11.698079474206768
K 10.21843924900795 13.193267684392618 8.433557855340498
K 10.304081006724083 6.511702961783721 11.624932708771517
K 2.1820832208904024 10.067541810553074 11.022901250366587
K 11.762483592298386 3.9387261696302795 14.652762266648525
K 13.033972696303998 9.619662674154675 9.616194788127546
K 3.4942079033610893 4.573797928516925 10.777010121113447
K 7.371683037103919 3.5503515345576733 13.216132319111704
K 9.598900168201968 10.952344055495118 12.485470181861661
K 5.274813702265457 11.809981124617705 14.032242150002293
K 13.101793464179977 8.311812614221624 14.208306927816215
K 5.955498263993452 7.84302464805446 12.082804679796853
K 8.701984965351281 7.51260511953163 15.511369571321156
