35
Energy = -28.89011687 eV
K 3.5362286674066556 7.050475323556131 4.125518797224783
K 5.76847354235863 13.886751897050589 5.1395379870473334
K 1.093447531635978 0.32712393589289557 8.785638975362364
K 8.459081410440671 4.357924241234384 10.988760346409101
K 1.787765037445335 11.104822651462879 4.638366667572278
K 8.534105941418922 13.944422049039925 4.533662750228639
K 10.09072604411999 8.311958628805828 0.7776078586549462
K 2.2337112942042916 3.708495950644467 6.488716337490341
K 9.843108223317568 3.5498050962677974 1.9213295570338815
K 3.3833174117719462 12.491748682052604 8.926952787761017
K 12.961167110379261 4.324454517556534 8.858744174255293
K 5.849240383627704 8.74079191090321 11.01832404073191
K 5.742102841090133 0.81937506250102 0.7233370093321025
K 12.879917433851062 1.868245004196797 5.022186844259455
K 1.387653248983081 8.163675340000877 0.7605060541845384
K 8.103014364655559 12.5345446247866 9.022071364812868
K 5.813809973425276 1.0716242189809706 8.285564811810538
K 9.876561862936958 8.177123698133885 8.479028739206978
K 12.986194638568854 1.7075226771383911 4.898745932304596
K 5.767549036690998 5.8031917578627965 0.3500818358560693
K 5.765901182537616 5.747439212119608 7.95204611294827
K 12.392606696220918 6.666669190378434 4.667447072564569
K 5.765578192128495 10.440236789664146 2.0222317139693518
K 9.364859610364336 3.8100682773681664 6.5674471006739195
K 9.749472898464973 11.142883553035022 4.696510124212704
K 3.1248756143926864 4.207658870522318 10.949764232693838
K 10.53182269061108 0.41169060415896025 8.802454779475791
K 13.358171122111916 6.487761055059385 4.60087378257365
K 12.831168939197122 4.498947421716183 8.976158566840349
K 5.783365327528977 9.84944318981467 6.629276906392451
K 1.745498319476101 3.4419798579971315 1.7650690266517632
K 5.794180664853674 3.2250004773524807 4.092321133523854
K 8.018606785124488 7.106919786147435 4.165711026998561
K 1.6921248611265065 8.072602817258577 8.375121584842509
K 3.1295415092630545 13.886751897050589 4.523373943773472
