35
Energy = -28.81367459 eV
K 7.668980324168486 8.790155133652611 1.631376916125533
K 9.528401466862405 12.91816808523902 2.826845158227652
K 10.25150046789063 5.200058703317309 3.2079361030056894
K 5.09110568775715 12.24721128459833 3.4621247263222217
K 12.048469526837147 9.233751746494864 3.5385930259921157
K 5.86328341934074 5.034489789624236 3.5308540629323204
K 3.5104872070285085 8.423143380840427 5.013552830344709
K 8.048497597594318 9.510282834961453 5.836317304334858
K 7.397873160637059 14.524266934502945 6.5895154101476905
K 8.47871223386298 4.98754285320881 7.616230738550051
K 11.47995136673124 12.569516228002817 6.919614406717567
K 13.311835194933215 5.9930125408838935 6.518304324420871
K 3.134924473909533 4.484857180997679 6.951330803127299
K 11.161452912352239 1.944038461610499 6.172655950474899
K 15.169616091391477 10.015829820897883 6.614716888173518
K 6.539338692728166 1.3174445019351508 6.177316900835284
K 3.8652502636808563 11.846652608094633 7.790276322565324
K 1.504759276966097 8.057524939062171 9.24369226170633
K 5.037718209877078 2.738761716700982 10.340560768119941
K 14.358123500801955 12.569583770794308 10.299229898191411
K 9.133018427852747 0.8783422421022387 9.980121838621127
K 5.443263202080427 15.114364799309909 10.687751324513709
K 5.786919515114729 7.6298336971884995 9.502878828216447
K 7.955189852174496 11.51305370225834 10.043062524803958
K 12.45507626486436 3.954334408051128 10.372232211314229
K 10.30716950587038 15.103990191561849 10.679982830725683
K 10.851745989618736 8.390192011420075 9.600205242168927
K 3.9163732627422703 10.838350540512934 12.265078014763244
K 14.89652741075872 8.056891839058114 10.739699315750588
K 8.38752608789735 4.661249818874922 12.478091997692385
K 3.875148172508305 6.1753406276232194 12.996535754445317
K 11.492976993178608 11.314452736931077 13.312638583771808
K 7.629124147505034 13.344877338713294 14.149273503453607
K 7.666406818036969 8.796586114396218 13.991927622506967
K 11.851013959610047 6.919608101743166 14.017236292101225
