35
Energy = -28.50636395 eV
K 2.287897425780369 10.474928416318713 3.4260607264523943
K 9.365944067517976 9.687262110489474 14.579256337742965
K 4.745990824826657 3.4513913681079154 4.539786234407504
K 9.108872547225348 4.700242682369366 3.562459668799299
K 3.6538419214669853 12.94624948121115 10.42680018775325
K 0.604651745753007 10.925518545437091 7.6526268413878205
K 11.215635507060206 11.4734147827564 9.635270793603762
K 10.206082650539255 7.005770296874146 10.81687850138586
K 10.644368027539858 13.016390968725833 5.165203448300131
K 11.260106653846249 4.086051678316783 7.7156394286341925
K 15.490912460528374 11.37606419921682 10.271067640187255
K 2.163916346040809 6.726764134878071 6.254990238046166
K 14.369666428659988 7.16434792695464 8.85112144066645
K 13.927175286446305 10.24493922444169 5.871635029101574
K 8.133426947515114 1.3345782713226795 6.631724626657487
K 8.118463189829747 13.682730480909512 12.658444215627304
K 12.563852873716524 12.803484391106084 13.689992991220153
K 8.685474019994228 2.6698339250247574 11.275148014278372
K 4.827320126024074 10.54421548480067 14.168320832393926
K 13.560523879901659 8.4025327987919 13.313757496178939
K 13.176162661324003 3.822309284793525 11.788212032641828
K 12.102720678483049 1.5165264118082362 4.222900742565552
K 7.110352319195483 9.905231035939943 10.532117448677177
K 13.452142074991816 6.025215630448449 4.330719582363664
K 6.704695706315518 12.230891280278675 3.4408737141654435
K 3.3814256521516044 14.197910036241481 5.994803997577155
K 9.528583230629906 8.560014463845084 6.574310792595242
K 5.027910718522887 10.042443068863221 6.905339469858526
K 5.8662139631051 7.666081614369366 3.2304600305069555
K 10.324014797361162 9.212095081210613 2.4834339230962996
K 6.214774145792442 6.129060943167267 13.028764416769963
K 7.423285537657046 13.85268096797585 7.996719948963042
K 6.33901032222833 5.520665017046361 8.228089769056098
K 10.267043072114939 5.147966458306344 14.884411638951953
K 2.8660918917279097 8.172747239463892 10.571207501199186
