35
Energy = -28.52841 eV
K 10.11436944201324 11.669310894651133 1.5408898943466063
K 8.904325522023976 7.431002208329281 3.040491999768469
K 5.59447549876487 11.009569574262013 3.336641289600038
K 4.098590318136382 6.294681362310753 4.043909919476267
K 13.146510924437205 9.124453743300458 4.014335122251361
K 12.306770010440937 4.591674126462873 4.379284466856603
K 8.278997091189924 14.805285596496642 4.239823068275404
K 12.84076809917632 13.703612589908342 4.968090391754771
K 9.486606440598255 11.129085198920261 5.655150349087947
K 2.1526977553172917 9.523753040702761 6.845191321729005
K 7.749049484936346 4.054915481949459 6.054027554046437
K 6.408707597050337 8.300747623004831 6.700636961176923
K 10.800562869514481 7.320272195661729 7.226734805058799
K 5.378872445853471 12.875537110315774 7.6412992151544445
K 16.41077464109186 10.99252101517341 6.440626600579059
K 3.8131412381928054 5.1218401287293664 8.543986084194948
K 14.879644667743664 6.768297225033809 8.242935852296853
K 12.951399302583871 11.101004199006184 8.79466738269293
K 9.614202508717355 14.480908146261793 8.621844851056364
K 11.408019857242271 3.125266916670516 8.497712673786399
K 8.75600608487194 10.36878868846766 9.830428807408436
K 6.975678263189678 1.9946377333313998 10.370714409185032
K 7.974051813290353 6.021862038392344 10.23056627599526
K 4.757949267737629 9.206083149224517 10.522686134094455
K 1.8728745376575064 12.385654674306043 10.677289708629141
K 0.9824221015662427 7.818500756909341 11.107156160255043
K 11.037283089872574 0.5172653608874049 11.722614950882187
K 11.974829881394545 7.752682912189052 11.79340559026342
K 6.13603954256472 13.075201145093075 12.176150206034599
K 13.95546903516556 3.894976541634965 11.984582504392533
K 10.875449483005763 12.251780018429336 12.780309002902472
K 4.724602395356776 5.462628306363099 13.081350693609052
K 9.59967262129648 4.3219947975590465 13.76258523314762
K 7.828116357793351 8.720331294030577 13.911337837418825
K 3.402644656844593 9.975449052663853 14.41211752922521
