35
Energy = -28.66681669 eV
K 7.677094144316956 9.125141495456385 0.3795363454778418
K 12.04927281535477 9.983953356404584 1.5415911516543785
K 10.348628750138317 5.5875382610668325 1.5872102375714094
K 8.635267920600723 13.008920302828738 3.0216281439775807
K 5.793951716112879 5.5752981019533925 3.142008056165156
K 4.637125423797397 10.374563955562019 3.874206077774562
K 9.018683984889016 8.66210194864128 4.175396437814954
K 13.164884649720511 7.149744937671475 5.125306209856931
K 12.115574130456517 11.798231611462933 5.9055038863798845
K 4.942752280792072 14.619011640839759 5.9346689436539695
K 9.405719683137429 4.248449082538397 5.8846839581967885
K 2.0727358432770435 6.904308055631604 5.88781061343449
K 9.467647747912649 15.419094963686845 6.957481471687199
K 7.621262275319889 11.683916424629889 7.035422269212988
K 5.9502008539956 7.522311473497017 6.976712284782699
K 4.9704271589153395 3.29703807055646 7.399502100659879
K 10.324931177884102 8.34190912799856 8.064911656070658
K 3.197344798670998 10.81303841476641 8.300577792984447
K 14.191161572631358 9.154772042632183 9.68467629255231
K 6.825942474776741 9.604339442286737 10.705383206184402
K 10.759866027510506 12.46815586057583 10.348206731963025
K 3.430132301264035 6.658712154117369 10.604223225758894
K 7.88294869444144 5.290195517748034 10.103334210867585
K 9.200480484141567 1.3669311016592585 9.516734855730274
K 12.429554304746185 4.654318988670297 9.444817456578479
K 6.2090188588136925 13.922251379682683 10.613932167774156
K 14.215092564777859 6.3342200360039485 13.460785737054685
K 5.5279614678570725 2.6182690877823673 12.204876142642737
K 10.589107816459538 8.058284024207941 12.167450621135174
K 13.118550061360121 10.888006431743019 14.000934787669037
K 3.7564488221087227 10.589510197826488 13.193659863468072
K 10.181514378999726 3.7311573879802764 13.44374419908263
K 8.361383507329547 11.417659048238258 14.289650817348955
K 6.49178853609197 6.831372101484669 14.136925707468116
K 10.731672723749568 7.59340392451974 16.182636291718616
