35
Energy = -28.56956005 eV
K 10.280958013866538 3.870732287773716 1.4669380164035264
K 8.107958769927237 8.025439101204551 1.8529216030549427
K 5.786182863442411 3.8787435221809172 2.5294109398681726
K 10.913611883414491 12.037936071680248 3.180356153137915
K 6.264151120939546 11.596621262930016 4.158542878217833
K 12.713614837510772 7.323720614450708 3.669594762860554
K 4.900967538584908 7.318805696308122 5.2760164336106605
K 8.572146595650784 0.8965221116645254 4.658898423411246
K 8.997638492621475 4.96308270784441 5.201879591102506
K 13.378398584021873 10.785807241106246 6.997043809939957
K 9.41836385281661 9.037374853325593 5.832502660001537
K 2.3598371037694554 10.907705868060315 7.222531624163783
K 12.749092010047235 2.8157748259986874 5.22526696578021
K 5.199059475939239 3.0531177116356654 7.183701727748968
K 12.745036954960701 15.276847701898113 6.542117372195093
K 9.194453196923833 13.15125597828466 7.160430256903248
K 5.091853138546795 14.407727127063703 8.646596898406626
K 12.492973115511058 6.200894407841575 8.19041695830972
K 6.158516031851986 10.19639554882102 8.522129748438118
K 9.144809058859478 16.67432586478402 9.184607013225992
K 7.769245988098651 6.107203801700912 8.909760960168395
K 9.731693927459428 2.314011537778579 9.010648846115274
K 3.370970554438192 6.604339719322267 9.664167912460755
K 10.262118481514385 9.647793300413042 10.057886860952735
K 12.32560102137657 13.362754656671509 10.721757308381429
K 3.312836698629847 10.963605798117653 11.81137412720918
K 7.774855675732714 12.871556014879472 11.950821095544333
K 13.91929600367342 8.864556785993374 11.689958111518521
K 6.781287570227254 8.206634958947634 12.36427078587338
K 6.238949131360113 3.6105007974552965 12.1416338624317
K 10.605324492704298 5.645428075330381 12.345787112498442
K 3.2828495995636175 6.76832706019106 14.23427133992413
K 10.404075295498858 9.840836866340595 14.460397375695957
K 5.870385841644593 10.353040416135007 15.693116758609273
K 7.557511222372801 6.097203849366872 15.918867849336733
