35
Energy = -28.61980006 eV
K 4.924075444750925 5.627933949772591 2.411131129168355
K 10.52357382243521 11.388199124493873 3.8464339945796606
K 5.984747185152288 9.904782342357825 3.981947608414439
K 9.349820029702723 6.387653026331798 3.2617025186895443
K 7.808252672556977 2.1243826670009223 4.559691283176348
K 7.181587640965326 14.483257919881293 3.543701475232599
K 3.2350159635171667 12.875292342739401 6.477155193967317
K 11.305144481091837 15.491899331557367 6.344447587930485
K 12.456322744068837 2.956020592174728 4.489736455969603
K 13.318526049725104 7.458745893859 6.036920645237648
K 9.051397967386968 8.74132074552033 6.943936662527269
K 5.551706276971538 5.527383182944487 6.549293058766242
K 1.8711193060854043 8.200080455568695 6.022404386183182
K 6.437563260749091 2.0830768941873536 9.414776782881752
K 12.12757487499342 11.550273376934904 8.113842751035616
K 7.691328126944272 13.183287081282115 7.51090648845729
K 9.929414381543287 4.607331146093248 7.548508671873117
K 5.115978740725719 9.586795957607695 8.631668174893258
K 14.058002586453512 3.6961376184912638 8.804807190582776
K 14.59384575374357 14.54414990761032 9.98112580260939
K 7.4449202362085725 6.389949241716923 10.592963981167934
K 2.9412035758695683 5.833649547384051 10.277010907014416
K 8.79933610179456 10.635770315083109 10.993005650412794
K 10.702032452652244 0.3926905760793694 8.02189171597501
K 10.088004624588784 14.914610629161395 11.02228027187199
K 12.0704877259817 7.390100135098988 10.647658615084557
K 1.2344913327072493 10.518729358570265 10.054390695710921
K 15.734164501296425 9.778323913013475 9.62391307445628
K 5.002686752156539 13.373876814569675 11.24468571260217
K 12.67655966750059 11.556869227346873 12.95295325988078
K 5.932815012946457 4.00929593854056 13.690337125933102
K 4.889138091874003 9.20832124957335 13.190671541230476
K 9.237672262064315 7.702127823620342 14.383752165112957
K 10.287614256116814 3.1356211736271975 11.878282219694132
K 8.190554290516577 12.488738694044253 14.6987433955154
