35
Energy = -28.79377554 eV
K 9.146197775944959 7.396478048009353 0.6814486672062495
K 8.137167071325557 11.955133726798328 2.3450126385632193
K 5.288705127804779 8.236572044110403 3.3068723874415986
K 12.67204327895428 9.998326342644466 2.2927028571321393
K 3.6206329333042317 12.772131007035718 4.378846342009988
K 7.805253908338752 4.166046992479137 3.9896701324796853
K 12.522659175015038 5.246355973289714 3.550673665928141
K 3.414407623468352 4.549363959594179 5.908841076461836
K 9.635968180713347 8.464971417671595 4.7633749684352935
K 7.096689108062287 15.388928175878872 5.760736104886029
K 2.706444124353538 9.275604779243405 7.562822579343314
K 6.838042640117432 11.228030741135065 6.606978862729604
K 11.21238096216085 12.655547320237368 5.9934865202583785
K 10.993018931350548 1.3363395172965244 6.194439739597732
K 6.4927399154483885 6.892537872196786 7.420779085610489
K 13.827316794162055 8.592724322510106 6.779497978806333
K 10.606712864717558 5.340357218720795 7.595123671701441
K 14.54986291102208 3.914145296193978 7.8420457752811945
K 6.145367026034291 9.863715220812495 10.747113226543615
K 12.986134674872046 12.088069893047406 10.8250335115974
K 7.052429131496559 2.573296121167436 8.50982024407383
K 10.17710675434143 9.580533485414433 9.096265477731116
K 8.427033410491626 6.135142959672161 11.303051407729004
K 13.020459631348574 6.858934507155031 11.269515526577432
K 11.086488291583615 2.5001259282371597 11.052749463933258
K 8.569657665985106 13.825422807770707 9.981434550768746
K 3.7776564352295354 5.793400196334231 10.819073741467273
K 3.9384489372570948 13.516434218726904 9.201022132203919
K 2.2787456485693043 10.160652573244512 12.328789509984562
K 10.268603751720653 14.17604864751299 14.02204128675148
K 10.24885489926739 5.313937110285614 15.054876490058508
K 5.806961798798814 7.5948020684036806 14.67312085887751
K 6.698373930745541 2.930650654985006 13.39065471996026
K 9.841593387166435 9.821244263912323 13.699780986024162
K 5.961984355481279 12.710137644924746 13.904446868497368
