36
Energy = -29.59516519 eV
K 9.821130269051924 6.950089992940073 2.8439533398414496
K 5.95342248463113 4.622316383244404 1.5682065629017956
K 9.877203370641457 12.170946714703874 3.27912585629741
K 5.5982030413231305 9.252021812488572 2.689315873371915
K 9.166440641769842 2.309668862502618 4.52404056347951
K 12.909246570044045 9.329090854750834 5.9944563569544265
K 6.3893007454411075 5.664919280776633 5.714976242722876
K 8.297436052343924 9.345555086379736 6.21919163666284
K 2.3062911823176746 6.069786907700417 4.229340949790562
K 5.998593888045121 13.33676165013564 5.79277303119443
K 10.822514951189719 5.486158569084998 7.0551849684056025
K 4.401891750763401 2.01040454996832 5.168792128602115
K 9.649223749291323 16.311659892015935 5.6042126683304
K 3.605361750903516 9.341137927579597 7.14864168951379
K 13.71168100811321 13.98196834886776 5.701689582187138
K 7.41977387954937 2.3855578076578303 8.890893399172887
K 10.248819476176678 12.66689221272021 7.908516503353182
K 6.906570877402509 6.797766913024546 9.74096355985432
K 12.183605605736542 15.948036745518646 9.603186901649247
K 12.349845651892672 1.943896432899021 8.974501629371112
K 6.800766172724481 11.140186808175965 10.005938236881093
K 7.427797033245128 15.680228605986237 9.838584730115436
K 3.1237748175880045 4.79356797292105 8.938376922309402
K 10.731740661780721 8.854763210891619 10.14568631930959
K 14.191080283392758 11.559573037599895 10.04713334487809
K 3.2929377084074276 13.566689912917017 9.643220532213368
K 5.792156063704419 4.532934371958373 13.201814253208696
K 3.5664401701191473 8.638473905889056 11.915829294514582
K 14.31604120650783 6.34991511640344 9.949344152918698
K 10.365112572088115 12.711584874695145 12.662570333877799
K 5.758848962189445 13.244898895983765 13.532741823200519
K 10.140611850226193 4.654784685934343 11.731175049032474
K 7.979885097324261 8.801728222559532 13.951037670571887
K 12.79931359686987 8.311321168631107 13.942388711097848
K 13.872053564272345 3.7205199293028715 13.602246739244988
K 9.959456764047157 5.248765806307023 15.974521914083612
