36
Energy = -29.43141907 eV
K 10.423074591580402 7.9962482312706085 9.869783157429831
K 6.001973659674889 12.866829391729773 5.946783014966118
K 2.887806140261123 9.17602413460756 5.456615210150395
K 7.139210008367275 4.909875592702279 9.81430461543626
K 9.470583620817715 5.8255415693857975 6.248285118403579
K 2.734401186932616 9.280423446319796 13.730583025893816
K 12.412961479301586 2.9099160894605633 5.296317152758199
K 7.952145002990203 1.4115061694181403 12.074561025295678
K 8.289289692812751 3.6211945232710976 2.8167499994229743
K 2.8296705154194197 6.769224436065535 9.672898636432118
K 12.960795626880573 11.657017858249485 10.172431235581398
K 11.540851048659594 3.5576299964957787 9.8477811255451
K 14.62570355235946 12.11361810521715 6.159144431448154
K 3.964786833766241 2.0998176106275186 9.66198918977359
K 12.821627844485581 15.111337953855477 3.424158229589732
K 7.381220560792694 8.500905222983503 3.0916918567943865
K 6.447022743285969 8.708058932867127 7.485108151947134
K 10.34678167652696 10.426556489542325 13.81306877256864
K 13.860815402066375 7.2744271674067615 12.0035018810598
K 4.856993162424916 4.755654144683243 5.810234182280154
K 13.80984598227664 7.405241371610481 6.916731788785283
K 4.847614109263722 4.780931972312695 13.576927585191763
K 6.747539871301436 8.610159295709973 16.154437405467267
K 10.237418087095111 14.926625425795969 12.151760230449511
K 11.765108343543368 6.633897892572199 2.6796001628052424
K 8.39215690076233 11.906235437529075 9.77443065576665
K 8.12131109553206 1.497353995483833 7.171827830935334
K 9.62864692597624 5.583426926258562 13.750809772164239
K 3.687453319089456 11.574143363327822 9.7478112205024
K 12.868423890410122 10.781504256643714 2.2820539522595418
K 8.953296129865242 12.996262854040639 2.682582550537193
K 10.477151675822428 10.425627994275088 5.94902994954594
K 6.21957858617662 12.786552672976043 13.69186329142956
K 6.502896406124911 8.618566857414011 11.956036957791824
K 10.402297122496433 14.773929066711949 7.238737622086466
K 6.275340021198873 15.611526367519604 9.763161827845565
