36
Energy = -29.4425895 eV
K 6.715045652462935 11.770276465051612 0.6589235824730038
K 8.169385515263956 7.100411546631559 1.6803696220948436
K 10.889610490853881 10.729047213760417 2.8445403964698026
K 12.485519034258795 5.593463249951263 3.3455946279054194
K 3.490077155651741 13.474511129597868 3.804746392934894
K 8.118408459781483 14.634495212371707 4.194426254246566
K 6.311258319355822 10.290709994667663 4.493911869065208
K 8.775774529828698 3.0925050553601174 4.910858166860652
K 12.690002618529464 1.2807844699799231 5.562240725595054
K 5.2190682982924725 5.990509417179065 5.4314810004849186
K 12.838222788997005 14.135146756211133 5.607595188727497
K 9.612303867532532 7.515008032092596 5.797127031607555
K 13.712952271959823 9.518219408953259 6.389030377425986
K 1.2637028075327135 4.8865381488886666 7.010885704848901
K 9.585393433162979 11.76451212012979 7.129095683353204
K 2.383329127743465 9.708936458733502 6.888032055803084
K 12.77489988140633 4.919622349696391 8.130982759444834
K 5.377932293957633 13.575787901982471 8.035747262626714
K 9.917589300134745 1.2460569135970019 9.236449727047535
K 8.146392170691612 5.090320472832625 9.023116430959588
K 6.347662188331619 9.258421851953264 8.668126703707417
K 9.680117037633664 15.750284471245628 8.596294619185079
K 11.253083338884267 4.773240996846125 12.469688667127516
K 5.085706741947515 2.1099233733601555 8.174067639690225
K 13.03107858710405 12.502902337292676 10.101071763252554
K 14.750128265592654 7.957560996035615 11.403712041105397
K 3.833443441921089 10.683921951547639 12.007811516135886
K 3.657308731286289 6.067550480995381 10.39937615866367
K 7.438966698507237 7.7579618102016115 12.465268326686406
K 10.84932670004983 8.656028798899412 9.92030765831889
K 6.682113990529569 3.1714825417021117 12.72551351121789
K 8.429955163648001 12.424559474718361 11.681036041447971
K 11.360479578720923 9.218133907231325 14.266077514286772
K 3.977064674294011 6.746308832769869 14.946376679072856
K 6.6844293171097995 10.488070160873619 15.707815602856373
K 8.354823189102857 6.00934135872077 16.184856359330947
