36
Energy = -29.35220288 eV
K 6.822957918682913 8.551692330197929 3.261911523348601
K 9.044102727366209 12.313895959163888 2.9909525556701215
K 11.56126580990847 8.442253519298939 3.0795523911473515
K 9.058394060708702 4.735689479479056 2.2022902489845704
K 13.598062339540752 12.039592643658189 4.923151125071256
K 2.9459507300837418 8.27010411971535 5.583141577967746
K 9.117429410701368 1.8342550323349494 5.632402316392076
K 4.372139902651285 12.147772606152634 3.0966599601278264
K 12.90308192341029 4.239190597016846 4.448871613449021
K 10.678095870199117 15.656582111958908 5.519166152118711
K 6.684784020204907 14.035235852781636 6.393297304667421
K 10.22290791779508 11.183963156463792 7.174337394775584
K 13.138413131152548 0.2744473344322918 6.389744148859776
K 5.392110742879966 4.514027964787615 5.510629546874623
K 13.599746104492322 7.748306514603584 7.114236621386123
K 2.7204591731791545 12.476652928967976 7.182988368565849
K 9.297788808672694 6.330047949991379 6.195777042028117
K 13.175873180394747 14.402429528802895 8.794516345705519
K 9.136443612870696 15.70050730339572 9.686795557779186
K 11.956047008406822 3.5753411719688173 8.945240884756831
K 6.316582915805014 9.475164713586064 7.90495365339648
K 10.243916180984009 7.502492128573972 10.06177807354798
K 7.417394941000582 3.646404147857367 9.389024469369303
K 13.29016121841528 10.490546359766519 10.780848002546003
K 5.286242748016197 13.65418262216518 10.786378434108943
K 3.0239517490267693 9.959195900178642 10.941081994307943
K 3.4664139940641356 5.671493227522109 9.402370816296337
K 9.006602112249148 11.697692464946686 11.465202116491996
K 13.756635209945964 6.188556079235002 12.127108388216966
K 6.592766358238545 7.47367027065319 12.04250837316284
K 10.41379860458293 8.620960178297569 14.350394886040894
K 9.768249067882063 4.222294315259315 13.198760862307179
K 6.005669030701545 10.850584542320313 14.652638870582344
K 5.180642505142854 3.5538596269566267 13.225805256911423
K 3.038499830940738 7.305070868697855 14.474704196683993
K 7.009776608322476 6.459201917431964 16.314136394973637
