36
Energy = -29.23578586 eV
K 10.403728602115553 9.40709231389043 1.894754501207925
K 8.602867004848633 13.842233073600736 1.5898920503098364
K 7.227130317423737 5.991243184692975 3.107572441321308
K 6.463646069686958 10.883962897982007 3.661958205734673
K 11.716743386531688 4.945308206171917 4.274901880747919
K 8.644472025859006 1.5033535164454856 4.594479395860288
K 3.2017172740187902 8.311967564545494 2.8826490814499586
K 13.914829754003005 8.623139689523176 5.413978458729531
K 10.844371174554073 12.7232032998401 5.390460469795185
K 9.709544376536636 8.420256153516526 5.98859916847978
K 4.608932645789853 3.2211745503590112 5.856814285118095
K 7.018467690125018 14.979252522761996 5.894450144461036
K 15.375906275207992 4.376522451907483 7.042909232351374
K 5.169539754698582 7.639299088279654 6.777783038492113
K 8.43318765374927 4.531683700968744 7.3344556983703475
K 3.3679236898654046 11.864711150428846 7.018378227526303
K 11.763867510155562 1.7720545733715882 8.108314862352024
K 7.556874649275167 11.37910102485896 8.097895322543971
K 8.417027043106023 7.582231834597531 10.120899679961944
K 12.032746012772792 10.685876381212134 9.271655916352254
K 10.093756574729845 14.641120925003694 9.643742384309144
K 7.272291204990224 0.6925195440949482 8.813424015052709
K 5.477795548704502 14.048815701543507 10.608436429968863
K 1.5211013374593694 12.123016936675205 11.440242766746259
K 12.27508479442653 6.275564644870886 8.966584433971592
K 9.603319849092495 3.6378749179696825 11.820456309646385
K 4.493730396522975 9.255117913706888 10.885875662531996
K 14.20092512012066 3.4755309519880964 11.576654824612621
K 5.238511082585406 4.6268705880728485 10.390650642624209
K 8.38152209706709 14.647670664426954 14.181907287353715
K 8.575875538660203 11.075220083321065 12.232916836203023
K 12.367641872095447 12.578858671896198 13.453316660517741
K 4.9929281333247655 11.555697140685337 14.676504398317228
K 11.65292607019354 7.774913968597851 13.270164003774287
K 7.033305250368864 7.219221323980561 14.261571489801396
K 9.302738766863515 10.645295391740303 16.41172634093123
