36
Energy = -29.19373965 eV
K 7.598848794976152 8.280761602492467 2.7170986053434385
K 3.274501289148836 10.032113791417967 3.0426831616475307
K 2.6182668380981804 14.443717472468624 3.7663685740768575
K 8.888623963801203 3.3237479376947032 2.921490767653142
K 6.610250603757728 12.737743543743782 4.517300616978445
K 4.366771638102082 5.5119355563836665 3.749674968472875
K 11.990125809066823 7.182287885870418 3.9672112570016607
K 9.7640523040379 9.965684409828803 6.193556297627784
K 5.514569484681709 8.600173871166486 6.510649880018341
K 8.654595144151857 5.222694370999757 6.498032243331833
K 1.381284152254151 7.629186085023898 6.514080550227005
K 5.563599090230782 15.621260326444883 7.826194318019112
K 2.645008096530439 12.042504692973724 7.42617378994221
K 5.580845788251163 1.8086927275304163 5.898162171999408
K 13.060508661738368 3.479498896779921 6.282843394107219
K 13.840351398248725 11.432162311859082 7.270844386127493
K 9.720537716477537 0.733161622620467 6.714438045555382
K 12.771916952520494 7.314042155285927 8.426478584779536
K 10.009144487854746 14.400997742607434 7.544898522133913
K 6.887140367945488 11.769557386121026 9.062859183335824
K 10.854719657404248 3.7238502650790286 10.228893354447196
K 8.215339160646904 7.522008870709342 9.886972115724127
K 10.972462249785071 10.830723860573054 10.4555739662263
K 13.458920490302937 14.194370416436078 10.875211229172129
K 4.058274998172196 8.80872282154655 10.876230815481847
K 14.975877738118687 4.6718426819923335 11.377819822065472
K 7.093848615050542 1.7848383403409278 10.109189069601701
K 15.02795318304046 9.79159000965988 11.58839223523986
K 4.406338230887612 4.946763054507749 8.795187188403624
K 8.85067155374061 14.432045824245229 12.060328495680032
K 4.283110234366962 13.486228340152717 11.725008277075295
K 7.3111340112094565 5.289177150049847 13.143574271364274
K 11.52400464440176 7.298254290586203 13.204474114624922
K 7.56823119564632 10.181609187029037 13.396871773123156
K 11.980469394352914 3.0113915947552425 14.240335421520982
K 11.929647860818292 11.746604702842868 14.436844331690132
