36
Energy = -29.73951304 eV
K 8.771807892109752 9.392906772794555 2.4702294793617594
K 8.858086500161814 4.318377084855906 2.0020349235732864
K 5.085726143428789 6.8908071183195 1.7125798602430702
K 12.207577696303202 12.23985490130548 3.115934496956039
K 4.658555586015481 11.129968278958648 3.1993868866465918
K 8.374644588609447 6.306528888629375 5.862947974755777
K 5.292166612448038 3.5158690597584434 4.760415326770784
K 11.48118926123176 3.09171053680369 5.738550258277125
K 8.228045228388826 13.431513893324505 5.056428770804091
K 12.56766319453565 6.971623459732242 3.475005211279497
K 12.218717322749866 13.993132474895527 7.562084119722387
K 3.10062631117447 7.6771794250200625 5.706136383624388
K 11.008014907421082 9.72597390971479 6.566176455879845
K 15.211068538901738 10.317089180738417 5.815194481805235
K 3.9607774145499914 13.36548155823362 7.182777402093552
K 6.479077027255603 9.874680300672464 7.300645765170531
K 14.09238196092299 6.208078670747469 7.6998007900800705
K 10.272970397945022 6.910558378514354 10.26257655267058
K 8.010845909098506 2.3744665713221242 8.373605468598512
K 4.883402911188465 5.440160324432585 9.081235949874914
K 8.065718821104708 15.561385933171257 9.181136076326284
K 13.781871122489564 10.516341770521901 10.241705456730552
K 2.7228088039827587 9.586406606295148 9.993120334874593
K 9.24998619756885 11.540285812223434 10.224579504027457
K 3.481420485750525 6.169937700139444 13.361780351760993
K 11.884047409319427 2.8893120307035134 10.490095330484268
K 14.452895387276783 6.526358756743065 12.213622744694748
K 11.792808465199512 14.161753396245361 12.242366847373587
K 4.993191210137539 13.297883524672628 11.479466380648955
K 7.3867855714540145 3.948270675026905 12.607113202194938
K 6.64899294302914 8.673680014833193 11.848965944588818
K 8.025059084184441 12.264121131939456 14.531341009660046
K 11.415949406643273 9.55661125730303 14.029258135707417
K 3.825457735357979 10.381895855956007 14.838397976609468
K 11.050248200309232 5.0404481480194345 14.750596881255913
K 7.380745267485934 7.630678113167055 15.944038780608663
