36
Energy = -29.43179879 eV
K 6.669819563458007 13.892950514883175 2.6792004074198816
K 4.647048579523216 9.877424567388198 1.8205516519276415
K 9.15724941545174 9.9769980363003 2.7265107341592665
K 11.009670426877532 5.720351709904129 4.733186976521527
K 13.364266945131755 9.961441114211015 5.321660689329635
K 5.540020912196822 11.251656560610018 5.658488539349291
K 10.103675485952577 13.391345258940671 5.693219756875651
K 6.414655971795984 6.5716812588109255 4.574652686482813
K 8.1559630764321 2.2547977731639923 5.660383132667596
K 2.1893102791418078 8.214735540940607 5.947021346988131
K 5.3468430173863 8.280109448510714 8.786160186238801
K 15.406347207291244 5.738055297220553 6.481462829694344
K 9.312735688662428 9.21207024975195 6.845709243250471
K 8.403919628599734 5.193886630232608 8.495652583663185
K 14.279864000920032 13.895189020079858 7.190920977605122
K 6.02856361259641 15.452757971127411 7.192406346559216
K 4.036173704885184 4.181365715341892 7.957738377612882
K 12.354479614550293 7.073598916996439 8.958884495960373
K 7.4432590972827075 1.5381528374119147 10.340037047865156
K 7.508945474214107 12.105205916997667 9.486487980046808
K 2.952586264563348 12.026694343598548 9.283371784837524
K 10.076080084779452 15.548686626268097 9.716633821748067
K 15.863349891187788 9.511024633019538 9.278642237164597
K 12.006860265340102 11.55736636388908 9.912591342011776
K 1.629934900724446 7.616649289337377 10.573633893510513
K 15.353338590688908 5.034484385319676 11.046983380627173
K 8.96718289065489 8.387196558807352 11.303260287546253
K 12.102315600291888 2.7515460594983017 8.187519822083438
K 10.819322169358344 4.377748269298559 12.292230133742477
K 5.445674968947141 5.502667407585258 12.202418612339631
K 5.692863990014277 14.947590056203124 11.84504906525192
K 5.057513217089282 10.098487630086062 12.850193675476934
K 12.976885817242831 8.452356163486716 13.109761075235184
K 9.234251100724302 11.995642360016088 13.520154585980887
K 7.422674761521668 2.7369090918970755 14.699600620630175
K 8.649601638089575 7.294424276433855 15.250867525164043
