36
Energy = -29.57728565 eV
K 8.677478952576793 10.467429259003923 0.7966637692991253
K 5.869863599650197 7.304862312596971 2.920690079863784
K 12.17454023409786 11.508452980094429 3.861115348190194
K 4.756054520296062 12.15964456797734 2.3681930788143832
K 8.589648657585794 14.622643714207179 3.032318334374297
K 10.472608440118483 7.209022269613626 3.582908341005931
K 12.882728457504644 3.280317380723865 4.519915249996038
K 8.20347524481442 3.493316734685467 4.843275881913603
K 14.45160185410398 7.425645929981237 5.885294874518369
K 7.915178424910408 10.86056465393013 4.869943154822986
K 3.85069294695815 4.988996730718889 6.679109644718899
K 7.2963063871845355 7.231247171844598 7.10499133301334
K 10.928460522135701 9.54558574828119 7.594793703722669
K 3.7689754212068296 9.893241732268514 6.240892579467732
K 10.993373209291718 5.299838282173544 7.83927785631954
K 10.085513979210274 13.998800329891974 7.398208520795486
K 5.545280023656461 14.277375493511247 6.540291999921874
K 10.878945254649365 1.1241163676467012 8.115206768092909
K 3.0075410983715583 12.383189897113672 9.931300938786782
K 14.664051089656015 3.601642052248139 8.794342227586466
K 4.317722492880661 7.712133032788588 10.423550531955915
K 7.184869259171478 3.4693145034077366 9.513568583968478
K 14.384692101620967 11.779352205046242 7.878005834482755
K 2.879660711177772 3.756460813313121 11.357790420157649
K 7.195731671895593 14.608875837964485 11.35991268075938
K 8.764601037365761 7.76434987633573 11.525686913145096
K 13.574201547916342 7.72703094390473 10.643199310096582
K 11.232633770071532 11.69246881137399 11.404292150597193
K 3.03353905806333 7.127931463671704 14.509198693815177
K 7.064301866073235 11.053255130991104 9.278164173968099
K 11.146868489176692 4.044599743539477 12.064345961636587
K 6.6795551867739835 4.5856796221365554 13.6236275794136
K 5.162661324764585 10.977162590601159 13.48571747756088
K 11.669674233904965 8.353325144542174 14.640726850985642
K 9.012117495743432 12.140055718795494 15.122413799393184
K 7.3449090316617465 8.192128549317271 15.911122949080521
