36
Energy = -29.45240364 eV
K 8.823724406802006 13.08312877623535 1.4220164982057084
K 9.370154297942769 8.59850520568846 2.5965953502292867
K 5.787524006527291 5.083667241732781 2.5527096289923747
K 4.992550343357582 10.217849906228885 2.2267496441197796
K 9.307297262725692 5.000203108403438 5.360241241576392
K 12.263378263559865 11.70319460892929 4.624499284895567
K 13.370314416094459 6.8504763329532254 4.9668059507724385
K 2.06564617710936 7.019200386951056 4.66409142952243
K 4.863535986530038 14.778140011646402 3.5933328455211897
K 8.18166379060041 1.0539924850685691 4.660869460829501
K 10.187518579874988 8.96292133428709 7.298232629987492
K 4.859373103421937 3.7313677609023905 6.916763589726837
K 16.05576175855237 5.622843072959359 8.515446173926444
K 3.0128956844164154 11.496687940157804 6.282870175042683
K 6.065509316793705 8.078880863288147 5.785207439838178
K 7.837008866865767 12.241681451059351 5.425322685882076
K 8.80545832271202 1.9293678297697137 9.098170355695954
K 12.742287392558648 2.3028029637020473 6.091326483749935
K 7.421933522264955 6.196941268240458 9.645843220659723
K 11.89408933271955 5.411274685507213 9.206143596164301
K 14.075290478850821 9.94672803890214 8.922645177642222
K 6.511235792531453 10.68629400417343 9.244261289755624
K 10.514259533470533 13.091091582803907 9.140937017724228
K 2.945735320621467 12.475272206130937 10.863587799719706
K 5.84249115184063 15.045841508737759 8.247891142966523
K 5.344119242554003 3.8558996352963764 12.271737373912952
K 2.9870227834358096 7.557114598150276 9.18509579084903
K 9.824468265649692 8.918334995551813 11.948420233162539
K 10.224495294550888 4.314324055982451 13.013898152279742
K 14.2597121079213 7.434996300060523 12.460458955246246
K 7.403651000180588 6.413395938539561 15.550681537449387
K 7.445208757692597 13.475903407556512 12.49454233857357
K 12.324680590652397 11.998744588439457 13.333118794264736
K 8.221103512031602 10.93721538871679 15.970835197241582
K 5.107586368609925 8.995999130841813 13.038256448673728
K 11.627938238286587 8.05634065671725 15.947018335511213
