37
Energy = -30.43161557 eV
K 11.570824185698157 8.762463960995852 3.955590682869888
K 7.505293358437224 6.687355437300441 2.970944216854345
K 8.094515378503404 11.736382527945086 2.7304712464345604
K 3.2855693142444298 4.664776891759209 3.8336061312151917
K 11.299041226713072 4.004330176361106 3.4151178600748775
K 8.99340757218042 15.98831521943432 4.302345554632576
K 12.528912660345927 13.039473595519674 2.8127734914632225
K 14.69414130527188 10.837732966099718 6.736945314214709
K 5.87575727768071 13.526769362897461 6.448061302040202
K 7.711352166480048 9.519686795774305 6.295151424834216
K 7.1301526358738725 2.31332790228064 5.235956874210127
K 3.9192896812166587 9.404406217745876 4.375208897830779
K 13.916756245344477 6.068821307160286 7.119412594647876
K 10.720828350226586 12.8901560759588 6.559226014882929
K 3.1753757233030107 2.386110294060358 7.915921912496393
K 1.2129035089653535 6.539409587330308 7.432026758193435
K 5.324943215517033 5.97322020108058 7.089733097043532
K 9.569958696371284 5.552780493039006 6.877336717370242
K 11.127948780615965 1.7175259728227081 7.535915713690782
K 3.983687927227795 9.97450006489976 9.09523795784598
K 11.345417986652299 9.069331133051934 8.631053021928643
K 8.819697719697698 15.86390577190985 9.22676965325449
K 8.1210859381527 11.688363381750237 9.997412835332282
K 7.319050101642144 2.871887948457747 9.987587477584633
K 7.508427561844597 7.307329095048061 10.311910533468271
K 5.073192422268809 14.055816209275136 11.373354799248686
K 3.699073337526804 5.60196881298196 11.352349108825068
K 12.406067243419638 12.781426836661812 10.779685076658334
K 11.384178981505972 4.922590291977736 11.066381038467624
K 14.54265248036634 8.50901292214341 11.37550696190397
K 10.25855434881098 9.09511417800664 12.817108817333114
K 5.701362325527094 9.786471766226416 13.548093464330892
K 8.89336645327656 13.223912014389889 13.983934003285675
K 7.818074550284758 5.5226365821774905 14.210923938272767
K 12.916124799417059 11.0315233217961 15.175933953152892
K 12.34834110851324 6.451969745990458 15.317744622016155
K 8.918668105607631 9.343189612419836 16.82126160682278
