37
Energy = -30.39386227 eV
K 5.7283935558722145 6.195011165232191 6.780798551905065
K 5.767610609509873 8.48930390289759 2.690476402458719
K 7.7006614641834314 11.767844443767698 10.695009288008537
K 14.698124304215959 11.312557842407767 8.862552613190323
K 13.08306178714756 9.804481992075477 4.364591832248859
K 14.818860150855443 7.028887906292096 12.221718843975346
K 7.312945650863007 8.307306688497516 13.76603683749779
K 2.149338713939066 4.925654172564066 8.384609408689322
K 6.985441356992632 15.797168312856877 11.732680561922766
K 7.951735877164467 14.761803338119325 7.102238689645722
K 6.423224193404803 10.497299435491728 6.7232467330692565
K 10.905609643162578 5.1512575973176205 12.052938010526791
K 4.192706360590703 8.7418473923351 10.346591351473084
K 11.259438306177127 14.444646981218396 10.484556208766422
K 9.433603891362747 7.686556423099887 5.264820949865213
K 12.483238279194476 14.387532418927227 5.8710222106794046
K 8.573016754020035 7.7200669264665445 9.58884081667641
K 3.9153635868551575 13.243331356023331 8.889944976221631
K 12.906192093082515 7.164212831780165 8.218647879379434
K 10.155658313681487 7.65232525245752 1.1776103867119208
K 8.177179088776825 4.0511844973259965 15.037937714924363
K 7.632817608489964 4.187000239877174 3.2857173288824075
K 5.977056699258925 4.513876599273148 11.103253427649575
K 12.414364723224733 4.790214203074392 4.367240772383332
K 13.324972920395533 2.8683259985191025 9.249847645365904
K 5.483302545336719 1.933945088876024 7.206626437478564
K 9.24444579089566 12.496365029283007 14.618816428210883
K 9.057915075002443 11.904957297742689 3.3748517055040215
K 2.448680626378823 9.082258153518678 5.950464313182023
K 11.356773739311599 7.735362432889109 15.621888876012447
K 11.682935759380657 9.995175725510547 11.916411958716125
K 9.069113676965616 1.243291123528783 11.099616557799068
K 9.458187819777107 3.793941312120081 7.592003165297707
K 4.548192115539928 13.034410352802592 4.032807531567238
K 3.0481050399585983 4.684700213566506 3.8986323926452027
K 4.744550699880482 12.23242340654625 13.52307166182731
K 10.635675427007019 11.121966193574448 7.6503737774977365
