37
Energy = -30.17382336 eV
K 7.956937553018035 9.12772729700634 1.007971219627214
K 7.5674396663278 4.4363809827482 1.343573580012506
K 3.9763399765174556 7.434895973701632 2.460554260429414
K 12.177123275188137 6.334954492808541 3.269539973480057
K 5.983646113944262 11.332684014734943 4.416502036800325
K 10.502104349645945 10.559351377545418 4.798579935350648
K 7.84036451854795 6.890091822167662 4.60761843530154
K 1.578415261971969 10.31263261454386 5.31193355533417
K 4.832985152036474 3.5079661909547974 4.990125399122025
K 0.6483104943463305 5.782033875181704 5.4364863642435965
K 9.76117852471752 2.8921238757997494 5.448226435680069
K 13.246384894797458 13.573820338418143 7.162251516291857
K 14.664117567667112 8.929507019194924 6.459508646801038
K 4.16754783251864 7.491263827629808 6.96096602053191
K 8.43143995023043 13.59308327358217 7.669769993785225
K 14.545603380685906 4.222093988725021 6.956832993772784
K 11.052793455948313 6.615342032930426 7.441010871506058
K 7.6616628392340065 9.265975507893613 8.046078511173103
K 11.231633616566269 3.182098223891117 10.028403641986246
K 11.484008733684147 10.469156579177145 9.304519241969613
K 14.035724381542785 7.19178788432397 10.760695027345703
K 4.190086534686725 11.988214255614048 8.869949942955353
K 2.586958671671061 4.171503824233644 9.170457002906803
K 15.223229574541039 3.0897263723819703 11.549470194787569
K 15.086189870699314 11.737505667618061 10.911439139356421
K 9.384068608437369 6.984951572247482 11.606452587553607
K 0.8513323177070976 8.573660564331842 9.44462608687008
K 11.124926326179231 14.35242559046311 11.498292211070625
K 4.1904966667434325 11.811638420308213 13.627499769007862
K 4.938890364146925 7.720051356104583 11.418264998190685
K 7.094493538808677 4.573238591525264 8.750956570472377
K 6.4062098096709414 15.293968361465183 11.491141326906188
K 7.875625893675643 11.302970771357458 11.6625266121241
K 11.868675938371696 10.114898927944823 13.794623031959881
K 12.163858565903848 5.3169599784761346 14.355811500578973
K 8.388810602949583 13.427433189728799 15.20177286199009
K 7.746797854350161 8.86229404092148 15.231981180406102
