37
Energy = -30.35061743 eV
K 5.4995973738343515 4.448881497177628 2.455942013340572
K 6.500799985385967 9.260934198788076 2.356263067973193
K 2.321162803707657 7.511882627149448 3.6895428170696367
K 11.26753115813223 11.06694900682913 2.9863285235998993
K 9.688019909654773 6.0222883646201355 3.9369804397749304
K 7.613016620241029 13.730288533078488 4.30608162071706
K 2.692705753298823 3.595177109032306 6.281730563005034
K 11.480399871747856 15.523861648851776 3.7818863818159567
K 5.575780001403283 6.703812881285551 6.016122598344821
K 7.500708551114698 2.562034672924609 6.316673646453621
K 4.21030188092786 11.183244387315828 6.004762637230437
K 11.984531125451168 12.857617214311503 7.20874081356674
K 8.628661643681575 9.911966334343218 6.092543268697877
K 12.348918581879891 3.577746966071387 7.107080527931111
K 12.818162934857316 8.34431175587465 6.535755537444252
K 9.518478760458958 16.633292172907044 7.832556621140587
K 8.99434196877108 6.084123832101187 8.323054184798625
K 1.9050039762933046 8.026233093654596 8.29902594877393
K 0.909689689082866 4.434906550619752 10.453310530552299
K 14.451681638456146 10.429054558790671 10.364783574925136
K 7.26771118708443 13.19079511746092 8.68799916211441
K 10.17738700098937 10.047012542951036 10.09418316544465
K 16.02064482295044 6.062628613371869 8.802845164022663
K 10.949787274355604 13.942216803813208 11.595802955282325
K 5.977011778051954 8.999071401501608 9.660927547513166
K 3.3854928831410787 12.312544579436222 10.653676654355356
K 5.2872096416972605 4.347238590018363 10.039289480091952
K 12.24460275951621 6.391136810684764 10.74604591622819
K 6.7402718516159235 15.87567394758026 11.79563924508363
K 9.575465435667688 2.6249797104862416 10.87208769695196
K 14.256146560957475 2.661788302745711 11.285306391057341
K 8.04694644275547 6.7336923740473615 12.865080634393719
K 3.309401856230302 7.622922632490705 12.640866134828975
K 11.598105136993757 9.530459996122842 14.08186117187265
K 15.449779125781907 6.799852388383244 13.268275434885105
K 7.339695181244424 11.498569435031687 13.16445978451412
K 11.66745744789241 4.653419963452793 14.59909875951079
