37
Energy = -30.34649897 eV
K 5.421599853435689 6.497556246611435 3.683223978789288
K 11.634230122227484 11.642677173843511 2.391204363035014
K 10.365203584001518 7.103444979850242 3.2659991733947265
K 7.226169982256088 10.93814909835332 3.819152645434322
K 4.349702177631577 2.384679014530505 5.467294935827497
K 1.3533658855195292 5.9106108741659 5.926124133690299
K 13.434394454131656 3.7820878517712497 4.697014707869424
K 8.821839012232893 3.536131807403492 5.934416472264533
K 14.628689717525212 8.393376719800084 4.818733620248434
K 3.728413245467682 9.752062339985507 6.581312575668407
K 4.789603501377344 14.381088968616442 6.326547388234052
K 9.484655458679384 14.653262239274232 5.572143787841373
K 7.940848848900194 7.79744814141826 6.875067767217948
K 11.064136680057748 10.485912459031798 6.361350497650887
K 14.144064861983264 13.061178758895123 5.939939099247264
K 11.938791010861722 6.371275058589416 7.645697383530584
K 5.034362932323973 5.388240735999179 8.207535171297737
K 7.40277616216092 11.883435484761998 8.331576014716783
K 15.923555749611154 5.318206092594381 8.376447775381447
K 7.2850722318168994 15.753555952961902 10.05872577158984
K 11.430596410003337 13.44595300654167 9.76378541755512
K 2.034450532316579 2.9277950931074876 9.448808297390203
K 12.113891208638737 2.346549165044392 9.066207585816718
K 6.612946357236428 1.4729820446865027 9.508765047582965
K 10.220762122215962 15.239749303323514 13.617001997108638
K 8.928954909087585 4.926198575285217 10.692138464791764
K 10.224306663093833 9.198342550314866 10.498448770383238
K 5.9629322286860065 8.569983210380986 10.728898661345434
K 3.595970468084635 12.290695698121658 10.541428709274625
K 1.785868241558617 7.623643018409605 10.363616158176814
K 14.50510586479733 9.773449207985117 9.351931344281917
K 4.91735299620638 4.792604036050842 12.76214120737967
K 13.17024408021733 6.326515753298642 11.97250729150248
K 7.551320365536149 12.028700115931949 12.947654165751137
K 12.294567553144182 10.96198735169644 13.636778468896065
K 8.475063607876933 7.643030743089451 14.268335257824589
K 3.970272710851276 9.163522920026727 14.318127683762528
