37
Energy = -30.32952761 eV
K 8.723188565397678 10.885271754566014 2.333335510368858
K 8.126717683910641 5.597329765115783 2.3987620621146633
K 11.903435484520179 2.9579127166970154 2.472955359410205
K 4.976092699265361 8.818422206545318 4.128910873242072
K 4.810647433333525 13.519043164604538 3.4662433580919965
K 12.57705131893268 7.498277624312259 3.3858596449887313
K 8.070614010491557 1.1231048192202404 4.41107861279319
K 11.78355153163246 11.725037826109702 5.698536359848702
K 2.8879959225992713 11.706226673298982 7.49369760967843
K 9.101368275826367 8.176394948625585 5.704840375515698
K 5.918692435353401 4.660412080431235 6.390135998908326
K 10.549744726333573 4.216384297263055 6.10803120876539
K 5.504141305397178 15.843492286871266 7.627587556554609
K 9.04059684531463 15.267098209046711 4.447797762961224
K 14.78934126530161 4.060213918584968 5.843340352747337
K 7.264877165366119 12.084030558228735 6.454719876834414
K 12.00269985799864 0.21687586792662894 6.188585056455327
K 5.787975038780309 8.619203766081514 8.603865889015609
K 9.781648888233471 10.328686220349162 9.476885416495229
K 2.127551341038905 7.000506192151543 7.8785669705094925
K 13.214291696429154 7.811168007105897 7.987095430034775
K 12.680097130820128 3.5561739399579855 10.122945309481937
K 5.151264734732894 4.710645682542407 11.018204689625076
K 6.6466736924632634 16.783701396418067 11.764694671538733
K 13.321489101626527 12.102100082933935 10.321254052424985
K 9.18178759930341 5.938365558599484 9.585645714800707
K 9.778732056462221 14.784546913607324 9.108059148959004
K 5.837655345891609 12.59099000956956 10.92160830196609
K 7.466330038609971 8.423478316799415 12.582022270475516
K 8.37579009352926 1.712174138552278 9.200991218484239
K 12.03920894931721 7.756311950702928 12.459000816960822
K 9.738501687359355 12.340247308422311 13.390660823867279
K 3.0267189886002304 8.999287072091631 11.990727129277603
K 9.347598243814028 8.250726260209838 16.28975310144234
K 5.166389643359215 6.323430223212407 15.389537596107063
K 9.107902018193712 4.217980764366559 13.525991559977424
K 5.695593179968192 10.898703474385444 15.332028304785199
