37
Energy = -22.74113455 eV
K 14.448231718658658 6.6845003840113435 8.208389688350685
K 14.352297875662163 10.39867986337922 5.29800093072269
K 5.82868297834181 6.499300637510697 11.1400808882045
K 9.189147335995196 5.438441025105631 13.764627709555807
K 9.08268197156978 9.761949369982101 12.499998992755467
K 6.386714288324447 1.6230819799328673 5.510958556790362
K 7.014941938256142 5.54836246626018 6.855718334415253
K 10.71655149975239 7.69373551963726 5.685578105885694
K 8.872803202130466 13.82449519069896 9.513403571902494
K 11.89492094152162 10.326569949376884 8.971254595409423
K 3.431508479756314 3.760499454547694 8.582500532109544
K 2.309516321042465 12.56033863984839 13.346634435604795
K 5.192301951918479 9.003675142162662 14.721763815303396
K 13.396942650408949 14.126361910818636 7.998450213455622
K 12.692136423109563 3.186219944903626 10.921060954792756
K 6.73239128684317 9.216061483319637 3.795261346803259
K 2.363450189712139 10.496044227425056 4.234915948175911
K 7.73022434433306 9.686023199761925 8.051306047557064
K 16.006070643867446 10.851885017546422 9.831557911215393
K 10.016245991006265 12.254002249304474 5.2376092809852945
K 4.549600147910606 15.211578649433424 10.296766961159292
K 15.088415437812927 2.5003537683009256 7.040407499711607
K 3.539693807640619 8.202578740073863 7.545443451319843
K 3.9342501065637467 5.405650788010194 3.973138395596648
K 13.397518898521263 7.981953973396288 12.401503344022517
K 1.5267951337022911 11.979031667563774 8.695709709312823
K 10.784867429145493 3.055593981901722 6.595792423079894
K 11.30616862242392 9.213226085928007 1.9317101139608208
K 12.403495493311787 12.773541096197429 12.409635961940413
K 5.440507186893316 12.961509078890309 6.369835970997859
K 5.134812898353987 10.98253795197191 10.772194844211306
K 8.668639147129332 4.902888472834674 2.874304818437211
K 10.192609161746882 6.320605629061273 9.766286942945937
K 13.645171614709113 5.432760798436696 3.8304475675674032
K 1.7847796978722377 8.130403159348162 11.658205384294108
K 7.064616880175096 13.471780892056033 13.734682416906185
K 7.818006017437338 2.471487324621987 9.872572048099627
