37
Energy = -30.38635251 eV
K 9.844349506613337 7.815754394291972 3.031464643723045
K 5.555119435105647 14.327632474866595 2.9747930188163165
K 5.465698602088127 9.503241761205272 2.8604024604019482
K 10.972229415922575 3.1858458432475927 3.5479411980009696
K 8.9352249322495 11.852571104068064 0.8451114837973405
K 6.5936840096950675 4.646030725242195 4.368535133084153
K 12.879910295969859 11.385199129811602 3.478591477062228
K 8.709821611592854 12.328851450518783 4.898439841545251
K 13.942388056155496 6.695804200675346 5.090515010829794
K 8.470127654647714 1.436779592429715 7.334721583111093
K 3.188981500408827 6.822047689728723 6.625892411100223
K 7.151889467597116 8.491925743669217 6.595723484641106
K 10.213496912876682 5.425755662401212 7.005045178492935
K 4.393404469299591 11.975399284522132 6.703163171713792
K 11.342982428227021 9.59826447289884 7.115842294906921
K 13.120442033239101 2.5485191337431528 7.666489694727219
K 15.254599223461186 10.814410116403 7.387986734808573
K 11.823224589531613 14.041567251859538 7.644661773080865
K 3.7487422373439316 2.2603681765333588 7.417656549809737
K 7.141441598026737 15.655932934410426 7.513531944431831
K 9.240985723573662 7.870339358347846 10.549898995360438
K 8.227700555430404 11.881764144922952 9.167449506208527
K 2.8269231624848716 5.088128073642623 11.22792394103158
K 4.717226834595188 9.07840967057581 10.317505758815294
K 12.334235262606573 11.139434771148004 11.290333500934677
K 6.459714859144749 5.001311104805212 9.047767974451578
K 4.856700036483717 13.613260630585247 11.15254937832631
K 13.473092118089358 6.711760719152618 9.916195447017255
K 10.290187700906072 3.5943755800649893 11.246738987127097
K 5.987033389839422 1.5857986774500055 11.414855469592657
K 7.671967241285481 10.941004108035637 13.337576752959176
K 9.543193938435246 14.873068886285287 11.883224190972296
K 3.897245318624458 9.027983904209163 14.607500477362603
K 11.084745620176152 12.034144284400801 15.556444150797711
K 6.818918826199585 5.783267155798935 13.53811251012722
K 11.351315292680374 7.54060520575215 14.160529158561216
K 7.893510557977806 8.845897000879745 16.901339130854087
