37
Energy = -30.43899583 eV
K 9.948549425833399 10.445244490064836 0.9611229140284953
K 14.072790700512071 9.589863244674547 2.8520637858507896
K 10.984371187318448 5.955845394081268 1.723388675332878
K 11.617846617977676 13.169304536326331 4.730527712370577
K 6.598863568644549 7.329349501830548 2.859179992427013
K 6.914628411075064 11.863455399733192 3.9972288661976383
K 6.815987958877344 2.7705714997104582 2.849728965433576
K 10.215697264388544 9.0081652652533 5.03622110735101
K 3.0102297499145747 9.216529161965937 4.9658719197358
K 12.02441449431927 2.9051684299983256 8.880516184877875
K 4.48673643924449 4.669493769953671 6.539245081073581
K 13.817284664726776 6.010688837655491 5.546022538979193
K 13.951213138091031 10.534371373016084 7.520958681418742
K 9.340440395674753 4.718275186239388 5.666198867214365
K 6.288163134131581 8.551340666414065 7.596807822108778
K 8.240281398426129 15.55023977304866 6.522731849221802
K 7.469728889347441 1.0314717551861914 7.4181760590169725
K 4.340728628391325 13.171974359722224 7.30208035583013
K 1.5053751133018227 10.146621646410866 9.18101495367884
K 15.050801887387989 6.4176954594607 10.037375661357576
K 11.065058401833754 7.417629440856479 8.84906281344829
K 2.1817508867396076 14.514332684972324 10.993092549679938
K 8.937534603356829 11.691487360073271 8.624209020353847
K 6.784839668045578 15.439429366128465 10.75742344745578
K 11.72967576364972 14.51775042025642 9.782813507684535
K 7.80581323726849 4.762370282657776 9.790308691939309
K 5.1011624905694175 11.349039606222862 11.357649442436022
K 12.616469738793342 10.173193547013602 12.035804480464915
K 4.5939256818303384 2.2056299540813833 10.957883351414445
K 9.092607546681284 1.2717638149752113 12.034415834008328
K 3.9011495181103504 6.788116167933208 11.210253124274995
K 8.279497866293493 8.510973346253133 11.884560192898105
K 11.54063818385911 5.2211000506512795 12.903449937239428
K 9.054066754154123 12.620716430330296 13.516656221240506
K 7.078154224830403 4.856742926592649 14.297567581180392
K 5.578073195756371 9.225938698969811 15.21875049481849
K 10.149443573862802 8.562110554505736 15.783631719176359
