37
Energy = -30.28445628 eV
K 8.69186582747796 2.869906842636681 3.1523376870364515
K 12.389433034177976 10.137767560430737 1.7667908327433528
K 8.612639601401447 7.716633692404891 2.6334121950063163
K 12.732495561481002 5.499748356142103 3.1904270840549813
K 8.964559455003632 12.344533645896629 4.1661357612171255
K 5.364192839251661 5.499593039674604 5.220690802891412
K 13.23242802356241 13.212235635867973 5.822017459071051
K 11.888398479944401 1.655631195183591 6.301296304568562
K 4.28474960424557 10.297149130807735 4.341776601535001
K 7.586190604225051 9.064618314500423 6.704311765548317
K 7.153126768138495 1.9312744299151623 7.685552797180068
K 15.748841661612648 9.259341237139814 4.858984656165842
K 9.493098076241738 15.913823928967954 7.395063751673495
K 11.760900074912843 9.025534839359393 5.735761729544552
K 9.778486647947036 5.245866252512055 6.358852862244825
K 1.093609824867228 11.861778479750896 7.684490203145266
K 10.132380108667537 12.01741033257834 8.632624512386837
K 14.074848690847517 5.637479337289645 7.754669558320367
K 5.666141877533707 13.069736075534392 7.875500716870236
K 10.7735120523835 7.851522350194948 9.799315776744272
K 3.7369869452364664 8.67508557057849 8.42213144416131
K 14.428054589445829 10.340415527651409 9.366091335726395
K 6.863374706892496 5.883518101332671 9.68430487697693
K 2.9573420223616598 4.302357962582288 8.926979919212677
K 10.715025279170604 3.4320579932038555 10.401041585611523
K 12.754236768290621 14.627573918749668 10.527485746127565
K 7.131023031025184 10.055738069391586 11.015095495644987
K 13.862835620338736 6.73057544137724 12.268595966115058
K 5.83098969041212 3.030403033948266 12.467409950910408
K 0.31319139597414575 8.173451048754133 10.731504325463955
K 8.910064295310374 6.875858830879393 13.709305137856584
K 8.032343765220828 14.281269980996454 11.776313399017987
K 11.154777053296636 10.945072457638034 12.948166967565497
K 3.3816609057798312 11.885373654145654 11.748040125429984
K 4.344013360381881 7.509853033678267 13.05818346767304
K 1.3315233118004748 4.381612598282979 12.964731021080734
K 6.998507286348115 10.92604694123121 15.072455018686234
