37
Energy = -30.5192815 eV
K 10.643204303901436 8.340589549842635 2.048722554004098
K 5.328477412594393 3.0137741409789425 3.497642707939426
K 9.78197263647832 3.9332852795756525 2.4256722866671754
K 6.422902218837035 6.56166918219538 0.8077523477874151
K 11.053957504302776 12.871481840702716 2.8856427683728962
K 11.771187192178372 6.085382910802575 6.063776121225207
K 8.927654954692962 2.128447697863885 6.359201933366493
K 7.32279510331323 6.510567929655029 5.296133784160718
K 6.674663691643726 10.654248686569515 2.7059370403669214
K 5.02261035396836 3.4678281800934 8.056396336796665
K 14.144146085329385 10.002667418251331 5.089427971808923
K 7.80133560465211 14.29066020464621 5.975167059747846
K 5.142815419106893 10.617480178311348 7.033672965694413
K 12.93096417231401 2.588638063349382 8.358213354445308
K 12.410015322842225 13.797325330239502 7.23951945299215
K 9.596995705446023 10.15707346351304 6.008555077222902
K 3.264989975103434 7.313743488122207 4.2784542156798056
K 12.22815380413736 5.605272330800141 11.553378528564284
K 1.5499251117514852 11.310894821703352 9.80825088756457
K 2.919765355550584 7.126785508355838 8.840872526358293
K 4.9782685348506766 14.31100973181755 10.116354678257002
K 8.838508078776426 12.312046125673005 9.811622119858546
K 16.029788772250637 11.631976471861215 9.083786460086479
K 15.604723393981851 6.8521775954198105 8.59587965700873
K 8.757522504273972 2.6885674047819004 10.800739815376735
K 8.23392894162242 6.968043130536032 9.54749581085374
K 12.174767865483602 9.486332699623594 9.28228991609165
K 5.622981593721637 9.764558175022144 11.404509977861837
K 12.537065928319217 13.144212024175136 12.029884013776565
K 8.855420644530753 5.31701483153744 14.673831571115477
K 1.8132742922241478 8.194033643869583 13.25070034596401
K 3.122948088740748 12.445421629306766 13.970104324181435
K 7.636653523270912 13.119590908689052 13.947593937407994
K 14.841523192102565 9.173019739637185 12.762356329387313
K 5.023927341582848 5.083364303531902 12.433360694641829
K 10.050712110224557 9.362149353059088 13.36524789690513
K 5.907426158959118 8.73663891894483 15.559825423519403
