37
Energy = -30.50641664 eV
K 8.802341592791807 8.223492821565328 1.146787641128517
K 13.61740022380714 8.820338006367749 2.448421067467173
K 11.645412112110728 4.583843372612672 2.826722427589232
K 4.060279610413498 7.805447509448243 1.9392265230479424
K 5.8110529527615045 12.131732955994563 1.4665134681889451
K 7.132322436891681 4.879407997425889 4.160486049548795
K 10.2832458085361 12.268298040773626 3.337264022820561
K 10.725317103674682 7.934317146896822 5.243537163652125
K 14.761854718786575 6.201573128998404 6.54336747560025
K 6.674943676958985 9.617192071147093 4.8432981120789504
K 10.732033249472748 3.6869640042463745 7.437822004890943
K 13.980830544922977 11.077473751279612 6.736949129532164
K 2.6490133401011056 11.216539458357463 4.961838887438199
K 3.420721229597644 6.781077592530205 6.630121430034728
K 6.670359530008223 14.18563740169471 5.670477081378718
K 7.767613838048144 6.968331428992161 8.064701077575675
K 9.52507317194662 11.343318490484444 7.711326410055999
K 6.002241359419766 3.004839594668556 8.596434541897981
K 1.877290720714549 4.339008840804455 10.404252573947302
K 5.043088853708874 11.136423696063016 8.794569253013954
K 11.279860662262358 15.098784255998671 7.224594699641502
K 5.164988812224016 7.071065441241321 11.12080624046051
K 12.604328882200729 12.31602048005315 11.168982384514536
K 1.352790192206391 9.085744580028782 10.230108621731139
K 11.938791609203069 7.976653290281412 9.449524573536596
K 15.893315403299715 8.823591703966498 10.607853900892856
K 9.427281250520595 1.1701065862581053 11.079093109843086
K 8.594849673347657 9.733572591959048 11.614308670768201
K 4.723617057228142 11.132629992999119 13.376117801304504
K 5.537880620549976 3.2322299894139124 13.291703873753622
K 2.5432346490870343 6.868326618051832 14.329684648836587
K 8.055793069642757 14.09812625576126 10.829977096159023
K 7.2129327449529 7.595888777862182 15.292328253857113
K 13.850032179879701 4.391997572846547 10.94820068044869
K 9.459735318394213 5.276769287726864 12.068878953940487
K 12.348642131835511 8.440281094215113 13.894177436441202
K 9.352410937040183 12.00587543953447 15.032463981531277
