38
Energy = -31.18569594 eV
K 6.917608967091467 15.540025521605251 12.16350747678423
K 12.186710521794195 11.956933493364634 4.936757551596267
K 6.388059370242351 11.557837795182012 14.5873780716206
K 6.348201577634406 5.509056482073198 15.036122910314768
K 10.767414656113411 4.1593516612914065 13.28953959818326
K 8.681781740668383 15.002269472794568 3.9710731682893647
K 3.2339102999921328 3.5287610508977236 12.34317566557054
K 10.63189983845277 12.76660768126144 12.593809923708372
K 3.6342966098826053 5.322509543079853 7.986032842998199
K 4.6831761157615395 12.34857977975834 3.535682573906075
K 7.0710207149468465 4.503711900896079 10.951828970711931
K 13.999595711733473 12.941332787077805 9.101733990725858
K 3.5387514357335603 10.310483148523527 7.592400903286789
K 10.146809633664487 7.8585973146471035 5.349174145086042
K 3.152197641418702 12.954640006937996 11.567060385003657
K 5.584703946844925 7.576699408539277 4.318532320786967
K 9.838879525737507 14.745793136946428 8.4622919514362
K 5.209321291522101 14.715488623390826 7.689385198323332
K 6.951864680833482 11.728144378995534 10.381965841478387
K 8.09042553283504 3.9598996980085794 6.451793481351875
K 4.211988611121372 8.172062052112809 11.998176466117032
K 8.970441399292541 8.355587675357413 12.785139386180319
K 9.130117464349043 5.252669419667154 2.20141238451979
K 14.227578473975745 3.7732316072310903 10.037144743178871
K 10.210020891775336 1.5477660498339982 9.531093274322156
K 5.384992016467285 1.130776505854874 8.862864417411792
K 12.489514999190481 16.528589097633898 5.330900196484436
K 13.117983609217625 7.8159962686373055 2.4547461592471533
K 10.79367386090829 10.334903068447566 8.963724847269782
K 6.7781403959382915 0.921634662900031 13.207555902353944
K 8.944262567360047 10.152871859246742 1.9358154751103487
K 7.743637181985489 11.402518011822247 6.078317236351161
K 14.216884742705496 8.268794967589095 6.93222417875174
K 7.028617243832534 7.8813559341025625 8.469435829827253
K 12.610785464988059 4.166684941612094 5.538757659194404
K 4.727913246616935 2.926314098130714 4.321110394778493
K 13.429589505199852 8.383768148390697 11.713407003711858
K 10.854714137597046 5.925238371581687 9.256413099450528
