38
Energy = -31.36320908 eV
K 8.028877133445878 8.20420201939079 0.9893312364344035
K 6.571907316298198 12.763147056615313 1.3263394764816399
K 3.542690021254684 9.164987026963702 1.71722629407759
K 10.720681218364366 11.694515865879783 3.3344535135867908
K 9.891703694138677 2.9287311414281296 3.5195041761763974
K 5.714251441925466 5.407509902380981 4.026566557028564
K 6.5840554321021925 10.066748114062491 4.659131924295173
K 3.0990303820808145 12.75553898488676 4.681743810521754
K 10.249699637049218 7.239411723053485 4.782148410725131
K 7.815457080488212 14.464206875549596 5.620300523485737
K 6.39294453822594 0.8736767122585761 5.724056389317468
K 2.471044972765031 8.32138133004188 6.290854498721081
K 13.8487172200319 9.403975422240682 6.897880139176551
K 13.2138243160321 4.172535362040093 6.886847699606697
K 12.682097654498666 13.956481852713262 7.773683846481337
K 8.595040564394681 3.928910092797758 7.613094601077084
K 10.766515455909722 0.1629264722820486 7.405360421020115
K 9.673794552311973 10.920475775320165 7.616484030921365
K 6.453989604579275 7.546820540853109 7.994551471697506
K 12.264155258780903 10.594690138414604 11.424164017863914
K 1.1519382651719339 11.579976855529 9.184053268239026
K 3.9173190229019808 3.9858763935341277 8.366819119207182
K 7.072673727531976 0.8975493087691612 10.457798455012817
K 5.303419251840021 12.060705211480881 8.56861270081292
K 13.130388591710444 14.523988355815554 12.482995799893011
K 14.930341291123884 6.843854448267126 10.793950448012817
K 7.529722193282725 5.107139082888188 11.944417178661451
K 8.867111589434232 14.126152273269811 10.674774972009352
K 16.190451626522357 11.707765772447122 10.141994283011874
K 7.905240046809802 9.636379940116978 11.473566495916867
K 10.855334302108462 7.015214187693992 9.392949212012496
K 3.434799632342396 7.990456371644932 11.137426822264269
K 11.630558869676822 2.9817439870621314 11.112242953802397
K 9.473389003895068 11.90368337366345 14.874047753589895
K 3.6974015880421764 3.5397170725013507 12.836058500640819
K 4.912230814547069 12.276526846959205 13.094113433501073
K 6.415885346447912 8.1602766689048 15.204285710419859
K 11.029404770800978 7.12020886914731 14.004257283165334
