38
Energy = -31.22533211 eV
K 9.878422473641582 4.043142299750326 2.5743839754516737
K 7.014423267441728 14.557841114928447 3.393487650471564
K 11.842505103543303 8.157626732930634 3.469927231798352
K 6.0038330335453765 6.689577569662649 1.590257964310477
K 8.3663915293772 10.361644784103039 2.121093846063395
K 5.699658927413432 2.9245041295087377 3.968397053916448
K 4.024303562491789 11.006348073703595 2.9289142817951963
K 11.220806682383982 12.395788676969383 4.797410536658243
K 7.950308603115118 6.778983832335714 5.366525567398168
K 12.482661509173047 5.152203881072892 6.4201868069411
K 9.211287500809597 15.624669869086986 7.273032214718898
K 6.9181538790139046 11.320027684684018 6.136780589175426
K 3.559838445639888 7.198229908735919 5.421866296909642
K 9.156190137181868 2.006582425317486 6.463048808758177
K 4.855046043133695 14.96439285370142 7.6363755749842435
K 14.571483020070263 9.259564327948686 7.037370364298105
K 10.282261910713984 9.368877442098668 7.917287162124477
K 4.973620762677236 4.109100556616101 8.224190172997485
K 2.515993838243954 11.12749257764725 7.1611645875977015
K 7.848509195231411 1.6847342032240888 10.867347349979145
K 5.8899880504513495 8.723545728126101 9.215219400605273
K 12.515552196607986 12.907828639197927 9.095227720073638
K 12.449253603501017 2.688573639463972 10.019273101343813
K 9.025141836773482 5.449430723462415 9.329830919440584
K 7.976212968018158 12.785891226613 10.268845722827436
K 8.89281657210444 8.93290141282711 12.233981804954473
K 12.732201450816587 7.097504617847117 10.777485274778618
K 3.6644955612236405 12.2810350982876 11.27097578422768
K 3.868558913806212 9.081468518350176 14.141389438991103
K 2.0232471331965542 7.578663997677448 10.07291996440475
K 16.245155745146015 5.555312842612483 8.978580920748962
K 15.276209977978116 10.29012672639469 11.676161510691413
K 5.692416096077001 5.426458928783689 12.553990496254999
K 10.035880479331881 4.756161305427314 13.600161954992261
K 6.988388443321904 12.10694417586826 14.591958175612442
K 11.39799756841713 12.373079340736767 13.232454751039867
K 7.636060609688448 7.778117329070996 16.198992499892533
K 12.332330647146918 8.473230083674865 14.991109801220718
