38
Energy = -31.44618638 eV
K 5.726190717344216 6.587350278221144 0.597524218627831
K 10.311027358992789 5.887392830471318 1.1297823333922539
K 8.718533024571256 10.456575907924561 0.9058238488856294
K 7.201471728522309 3.0232759180963997 3.735324492277307
K 7.695512591210516 7.551463477273021 4.096317632177114
K 4.087712927204588 10.301015408794198 3.124387783336232
K 12.126825477263777 9.421166538009103 3.8649596607553462
K 3.3485605834467393 5.7605793067522075 4.884912146439349
K 11.315546757344936 4.726239725705418 5.60088702385577
K 11.361587216233106 14.033802005277376 3.5600830286655993
K 8.811224878243202 15.72784033336711 7.739548630624937
K 7.834841240878977 12.167336787518217 5.039274906608164
K 6.956700564752365 5.056639880225888 7.600871714901715
K 5.20191927828969 9.179284126093437 7.308367225281482
K 1.112619401323038 9.735596472198997 6.822149806747018
K 14.007852717824973 7.741632838515318 8.288051224621068
K 9.782707507369619 8.72853204889466 7.402700136258568
K 4.102548260522912 13.585556943609589 7.373175793672842
K 12.234508894872185 12.43206065681406 7.783153453964955
K 13.773518327901346 2.967772061722113 9.291972750293553
K 7.721650024132833 11.956139577728012 9.564317620749318
K 4.272520173831 1.7969452766104237 7.721742991670246
K 9.204743757113311 1.3581629955516543 8.420708247428518
K 14.788678573884516 11.200522503058227 11.579342664986603
K 10.350595905544601 5.321568849871918 10.16849056014776
K 2.8824752996304 5.91630341265751 9.694142785543324
K 10.859315362992977 9.52616331386695 11.379082811166416
K 10.686970787150798 14.034284446362257 12.087645604716343
K 5.790991049968229 15.08593412042769 11.646642044335197
K 6.821458695107691 7.794974253422433 11.04802054836185
K 3.4652248104291035 10.916960139925873 11.259991466915288
K 13.777670090615892 6.371620828873374 12.839307723433643
K 6.408839547155365 3.2903694009857776 11.896371307606092
K 10.976368138747382 2.192676800226885 12.990153349359064
K 7.316968121122157 11.080598790658165 14.103441444385737
K 12.005328051253645 10.403818001082179 15.232239807388885
K 9.232882659166142 6.378660102438533 14.564689744115146
K 4.437609819221612 7.0148839619474845 14.366101787482807
