38
Energy = -31.45580644 eV
K 10.415380551641332 9.58059988460478 0.23494045476626532
K 5.837142428550596 10.626306506396691 1.0113336582148966
K 7.307128184797178 6.10352033862619 1.687360439529853
K 9.234843300673884 13.602938196760078 2.321550901966598
K 11.839428735883098 6.442578937213731 3.408017702868061
K 9.165307788635138 2.492919379847023 4.12979034893376
K 8.500743543704656 9.797685563973106 4.12215644041004
K 3.973889211475995 8.185278232325112 4.670366113215104
K 4.383837773362245 3.462378837339599 5.389683983937368
K 12.965513204091572 11.172198044822357 3.994531553730699
K 5.166796199508211 12.84947267202239 5.216788203988817
K 7.95370536279965 6.009899591240957 6.066101562859466
K 0.7301485147732046 6.010769012932997 7.416391135505552
K 9.664118111610458 13.413908385317185 7.004114807680645
K 11.137703073672224 8.89397214212243 7.23293705127927
K 11.987025245012616 4.3087876458952685 7.7285298791813535
K 6.663664060593652 9.932747388814295 8.03076432298367
K 15.271880838354296 7.71117554887137 6.842227547354285
K 2.3562975572699174 10.414247157003865 8.749486384252107
K 9.618392178108783 10.849886873437287 10.967749319880904
K 4.691038169940721 6.321967301055928 8.972870658534976
K 8.905722454916965 6.576616582559315 10.35724061582336
K 15.550297988362274 4.607037095275854 10.675642833476077
K 7.474525365734235 2.5124312115100493 8.983588794583275
K 13.696403833395019 12.151224071565709 8.980462231367072
K 2.7992455244610395 2.6576565469696534 9.971069159806285
K 5.652459030287304 9.024666200728952 12.49958574755783
K 10.710339463547841 14.868903354638663 11.56998753359786
K 13.155982081632551 8.116974520367108 10.961631219626604
K 1.6453224004796752 7.034245167112266 12.008205232742233
K 5.829982517171038 13.545493316638577 10.245114691987274
K 11.15581539980457 3.7532858695693396 12.522027730240938
K 6.016307265494579 4.474922400409338 13.01875643299852
K 14.07907719733336 6.704316821614124 14.772648837297211
K 9.576197706969332 7.856840124317291 14.571845607718751
K 7.655688042386313 12.582028048396019 14.492003107549085
K 2.6326456246543195 11.990218840704866 13.111486139509001
K 12.640549770105753 11.40044788819495 14.101557314241479
