38
Energy = -31.2766857 eV
K 7.4980928769913096 11.708026456822527 11.228700958925371
K 4.434237085535459 7.949273238152359 12.061373572019072
K 11.712427783268737 11.162478144442229 13.233246664042747
K 4.612851622591491 2.15547107121184 6.451511816576238
K 9.145775809976225 7.717264323656281 11.595526967963405
K 8.54019076078529 14.51190611060046 14.37692521940044
K 9.299410639274855 9.514735224172952 4.6782203379492895
K 11.84938310967953 13.270662963168363 5.186395693972504
K 11.224929409839186 5.472282070164034 3.182674235402728
K 6.9924314898639 5.724285448580246 4.976834626306761
K 12.002808212359067 9.90702190418355 1.4239327342099255
K 5.693396225765007 15.557161644770995 10.610046618550301
K 10.956739283146465 3.495676670350915 11.01023674648906
K 8.172492753720844 12.53022285647868 1.9956166296336946
K 6.736240063276251 2.3381218459205764 2.3152483685663183
K 2.9318680335668206 6.526452070452939 7.399003718218262
K 10.33512644581162 15.030039801047968 9.862008854117876
K 13.783369267806137 8.872324294562814 5.658483945347406
K 13.840556413905475 4.048204395019272 6.993450294095062
K 9.47185602419065 2.0997920736271762 6.541735764782329
K 4.126254226450058 12.49179773040164 13.745986721093375
K 13.658931259238058 7.7464563958362 10.593970014594111
K 4.658721359781192 9.791957033805705 4.18492133112952
K 12.870384196640748 15.439580901342008 13.707789776903514
K 14.350426732379507 12.775418582323692 9.628915643514555
K 7.520233049424084 7.721280369116379 0.9910913530105664
K 7.194563134369722 0.744625851967797 10.64981452681459
K 7.605118636512194 9.648115877681382 15.31130398951972
K 3.294373455703157 3.351392249599783 11.173602709966584
K 7.257335668682674 13.319438389240261 6.644596493405385
K 6.5558671893584926 8.970794498466999 8.059319526632688
K 10.506199149753993 6.424691668442982 7.579430964735446
K 3.3865558696630775 5.37415031358036 2.784657780106508
K 3.3760134920357907 11.670082346257793 9.032276354798249
K 10.805077423814899 10.741380042366004 8.658860904427446
K 7.154958689279618 4.398895432316081 13.884336715627938
K 6.792257583383209 4.770539501235816 9.325036063969884
K 11.376131163155437 6.751585799612788 14.986500954162043
