38
Energy = -31.28883543 eV
K 5.080655687510241 8.291069794567985 2.1929532684715918
K 10.001469065068294 6.764604012126471 2.1443290508249047
K 13.653437805347995 9.975615843604508 2.1341705077737725
K 9.167956822144005 11.44134045774219 2.999948157396567
K 1.8743886070991738 5.178287215120085 3.4215172253984614
K 6.297375763815236 4.185537756124286 4.1788836405323435
K 14.451318280213917 5.85348541479728 3.93668345108474
K 5.220182184144934 11.874455566557497 5.474683804866332
K 7.706772997974693 8.069230296373497 5.443646639393545
K 8.609236714889024 15.385010215697317 5.760874505397697
K 12.909446275134203 13.229752318703378 5.587537832064529
K 12.00401693661836 8.813125029727873 5.647752985778613
K 3.1471652267239802 7.73003864308628 6.442944067860848
K 10.613160085116332 4.3052651983734735 6.132271855805158
K 16.145798417421798 9.742007763037988 6.097653809014041
K 3.113791375982356 3.2192603760741427 7.5581742111679775
K 9.328361000623048 11.701092722297659 7.434560615793901
K 7.589184054591681 1.1980151555789487 7.857868818487429
K 6.684974599381674 5.216419521221125 8.422403209841589
K 10.705458924811643 14.901322525863447 10.057128816024106
K 14.274864788776739 6.415118200073721 8.706669364733012
K 10.229470453243563 7.706012766469196 9.145782492614636
K 6.028172780109668 9.502857401360874 9.188273744005174
K 10.424683652940088 3.6131193129330113 10.75571058865374
K 2.216014046246343 11.071981181234351 9.492428679735657
K 13.38336293114475 10.899883559190021 9.664380241472848
K 3.2519261977883893 6.640300150935748 11.015035511497606
K 6.0956113654448965 13.990222327746189 9.919697544334609
K 5.97820586949461 2.8818784464245417 12.016966106570854
K 7.898546423173965 14.322856471089835 14.084525679885882
K 7.66884277388441 7.001871264867796 12.335148027643184
K 9.174554769201942 11.076617829290418 11.682611934362669
K 12.23455549477435 7.685716865214726 13.027085221082507
K 4.963693724092603 10.750552036181109 13.277124612688294
K 9.456748147962431 4.730832403333798 15.362947619452767
K 12.195538826651608 12.472032710328282 13.965704385736293
K 5.193225434457515 6.412410492198661 15.442118457781715
K 8.819641950638841 9.542611209090373 15.783613769409527
