39
Energy = -27.48760191 eV
K 11.865453611491315 6.154865558152504 2.881693902545817
K 7.38561446706239 5.977971505892596 1.1046841736040276
K 9.05390632508632 10.396418734323314 2.163036681247474
K 4.580008854194977 9.403231249793322 3.3164486095660384
K 9.041434705181459 2.8507942219554594 4.393642709108661
K 10.69663302330283 14.14127329249945 5.282537154748097
K 11.81111992803623 9.738180368869985 5.722422039962648
K 8.123456305721014 7.120725941330275 4.994995701943369
K 4.308236951759241 4.878698532491503 4.675626486201742
K 6.196137852047672 14.046539535493109 3.5453265065218527
K 3.220638548505182 12.193008660962477 6.881527765192396
K 4.836374874974027 8.132160028839746 7.667612157323572
K 6.991284159962219 4.151535125972724 8.284430175917297
K 15.253028469165569 6.929111841510041 6.2689151586635
K 7.518391768490441 11.254101240492291 6.249819019188353
K 11.806670811994351 16.113494550586957 9.612670545648104
K 0.9541399743871093 7.963629779250795 6.302331055982633
K 13.774391642437127 2.5310267103461754 5.560590616614324
K 11.30609947475217 5.425997002877455 7.255719820828896
K 14.423186048391704 12.591258717807817 7.966693286072172
K 8.955196906209794 8.300219847389812 9.129194730560306
K 2.6461143540683536 4.834045740562443 9.572145874754087
K 10.324205144541224 12.225456524667733 9.297878672210713
K 10.523120147876282 1.4459908283041314 8.763020909216898
K 5.907706802608096 11.58224753860108 10.510754293260492
K 2.0078639675982104 9.193360194889223 10.862002734312819
K 13.308079404016421 8.701336120320196 9.938174971946376
K 7.23683285234154 15.22939211951095 8.115752216766232
K 14.199942715592114 4.207948681985696 10.076523801622475
K 5.885683181736099 7.110126544928419 11.663675780382766
K 9.95895373037036 4.823422230204359 11.699531730874915
K 5.976069147851844 2.861088048441608 12.453221133231594
K 8.667301154561509 14.415915759596883 12.643194063091862
K 13.00506987217502 12.464241312515318 12.545030184725135
K 9.202675058559253 9.97854580845228 13.24292013832098
K 2.9272331357008348 5.890305705208322 14.329078004480317
K 4.914360994464053 10.123676811314708 14.626184742870123
K 12.588191197126365 7.390711652002963 14.003507068308819
K 7.6240745199703515 6.232828015965914 15.402367466492672
