39
Energy = -27.47795163 eV
K 5.529835226344725 6.741575038579795 1.2399366805827732
K 9.700491217457264 9.36876087060144 1.2067443344099065
K 13.387820977571305 6.978510182285524 2.878440961909275
K 8.934313637632485 5.219641248044965 3.345450194699097
K 1.9102743517975438 9.651190142821534 4.889459118231341
K 6.338678234316735 9.825976143840109 4.161052394479164
K 13.55427908085913 11.692242625932163 3.6626800123737255
K 9.306662760166585 13.26286047863309 4.438938181836526
K 4.001467609303433 5.537397473066564 5.336526479133864
K 10.696404463267461 9.054180653246066 5.340325564180723
K 4.679151965521897 13.387521958829455 6.570777657616213
K 12.7583461797382 15.777844437402452 6.274996744500393
K 11.819854871504402 4.762440373899909 6.81047725099022
K 7.691487519852966 2.5012630862832235 7.231270702754826
K 7.643909878522657 6.825016104309543 7.2277508481259245
K 14.719918038438317 8.361302820149543 7.210325262323028
K 0.6222359150366392 7.089804778147504 8.530808936897994
K 8.079540018261003 11.246761010333765 8.042279499923866
K 12.484464626179962 12.147235615929775 8.09399336001207
K 4.267426997343159 9.221373169928976 8.222915374014246
K 11.458971223182635 1.4056469869442865 10.016313301980295
K 12.955118138572841 15.271034472106054 10.970493823204082
K 5.125750022470494 12.829793024185076 11.129979307157411
K 1.037157773002404 11.734592496103208 9.146690806559377
K 8.788362503949108 15.319167757236372 8.794497604347345
K 11.08045949631543 8.500232542840322 9.692445656600563
K 13.7248954268837 5.352707054079277 10.867169259853478
K 4.560633550089946 4.97305116519824 10.02159077300024
K 9.192642686095025 4.971015191595773 10.742547193569273
K 7.309295345336146 1.5750159217413295 11.983456977930405
K 14.032700846005278 10.419510485964627 12.081889285056207
K 7.021129925284596 8.67458580484193 11.351429595649554
K 2.7948944262376005 8.750493806938142 12.38860640886385
K 9.711918425409106 12.29909580587147 12.212766991435462
K 10.938785827709818 3.4477127831115943 14.321848325501245
K 10.257200417469688 8.105644428475062 14.127256941105767
K 14.145069774801998 6.6713040120507765 14.976065053045417
K 6.389178960536511 5.620254977752592 14.314006568777668
K 6.302866450015052 10.379837859180645 15.09939135585078
