39
Energy = -32.23144504 eV
K 9.998118634430448 11.477416438090764 1.471053143632303
K 1.8054836226033009 6.6355118946790395 2.6982706197422073
K 10.76637160031001 7.017451971152355 3.0059978653942916
K 6.159157202514773 8.918930095997284 2.9642498173290126
K 5.843136338606143 4.351001630369274 3.7015006319123125
K 13.789189696267723 10.30783377916261 4.346226495783967
K 15.187313597655285 5.547350982909007 5.523817131562517
K 6.611291373010083 13.617326268491109 4.096373700552503
K 11.117231292706622 14.475675222624437 4.743625899580319
K 2.142136837958825 10.673411871104513 4.806475721104116
K 11.099417478746101 3.630348084515262 6.267115234522655
K 1.8327347104812213 3.2143820233101397 5.865739797993549
K 9.604594070194944 10.691272930176757 5.572856481071699
K 8.072070117816576 6.679452162620174 6.621343005664054
K 3.6554981017426567 6.9539884868484165 6.570351725586476
K 16.25446622205302 7.033172908904708 6.615955765222816
K 12.230710325292952 7.6834091998276275 7.432720292938237
K 5.697517581909047 10.703988835098947 7.342488898279576
K 12.990443079350387 12.125040556459147 8.642221867724212
K 5.808110960063207 3.1979746074375575 8.364137981857622
K 16.25446622205302 8.471589501425115 8.936092593297035
K 10.743645746526049 12.433391707355865 12.878386632323283
K 3.357206133950711 13.97461267961875 8.138831658114983
K 1.9290509136725933 4.9323796927980466 10.270271407446057
K 9.628582608610772 4.832637137615837 10.518331357199003
K 12.551328190802195 8.187817852573174 11.700489111027697
K 15.505212897156943 11.147611059373293 12.59917784239585
K 14.163764769130376 4.422279299649864 9.9507181717055
K 1.7899227637310322 9.661774356859823 9.586089062635393
K 5.7910773718564235 7.363012121952975 10.400538786468111
K 9.206667506518555 9.902129773847834 9.95872292833947
K 8.423624970737274 14.059107355400107 8.745184899734424
K 5.919046241325705 4.041335299984926 13.015914219069641
K 16.043212385861455 6.919547494477581 13.730329682662736
K 12.697304763783208 9.18718568243726 15.83432410792372
K 11.856092248319781 4.829008800676267 14.428375688735576
K 5.560710390541865 11.727972355933309 11.819601506575074
K 3.3083680936149666 7.773415156766867 13.716919470488003
K 8.436493260600928 8.10070941394067 14.021635488869377
