39
Energy = -30.90612621 eV
K 11.940251315587417 7.587465461558043 0.820411769788451
K 13.147564654739332 11.720645070005807 2.3579259589707084
K 8.2822501574182 10.515421010930668 1.4993866570135224
K 7.812020393353815 6.081515199314169 2.8424861145264932
K 3.4104791865631308 8.594579947363453 2.8634129046879515
K 4.625738770247541 12.945044564908532 3.9327059501187227
K 15.226348446616141 7.7836213768855975 4.373596115723593
K 9.616121878926286 13.249746317792127 5.027139400429413
K 11.06508044301662 8.89027488006501 4.617295541478195
K 2.7307715709816014 2.6502999541332675 7.857080520854428
K 11.997253678313536 4.3854913276599605 4.783820280775644
K 6.702348446900663 9.687243490890708 5.407850845430422
K 13.74716421715678 11.827557701517689 6.922741055896368
K 7.525346732974425 2.4303890832969484 6.010351647993388
K 15.504247658936363 4.033948255746778 7.787779535258462
K 0.41516681720674314 6.3220332117881375 5.939790718560591
K 4.614652474788788 5.867596601941378 6.052865589061242
K 8.871622888745888 6.245562373830968 7.12090424281547
K 2.4895611341799646 10.187564396134118 7.14925496749923
K 9.889867091185321 10.446300376372688 8.380786235632506
K 13.244347240650209 7.525051914560963 8.280420746250858
K 6.074200153188363 13.045996801886014 8.519174247307179
K 6.365266952037347 4.090188633350942 10.272150509360898
K 5.927515727152392 8.551681044533245 9.449602962981233
K 2.2345313492218213 6.615022708179411 10.157837596952914
K 9.775838441904607 7.146676358449863 11.209945778157088
K 10.586491875745406 14.310644683484899 10.120003279082043
K 11.266943700936546 3.319122236602666 9.251146260104973
K 13.714293666366453 5.8441895241842605 12.376406802479853
K 12.948917734822704 10.622901030189649 11.598197248233143
K 8.23861570674975 11.021155499508316 12.169188816562162
K 3.6601328678322385 11.111052564330976 12.032511647140216
K 9.434407638861064 4.3464030391285435 14.2425387506812
K 5.805110894037455 7.2756096131812455 13.57633305614048
K 6.623470144929336 14.761251259393797 12.979720129194689
K 10.834928484654341 8.759562273559379 15.135143081407572
K 10.717011194754578 13.445084270480862 14.667212401100656
K 6.774588727575985 11.164158832658094 16.052612939326792
K 7.57867101879734 7.0110885882556095 17.58140917307545
