39
Energy = -32.34070969 eV
K 6.759682042311301 8.924805113713157 16.574893188747403
K 2.9452785965723445 7.428499581239562 2.1924545543419263
K 7.0441899868465905 5.154494144121552 2.6851971805282173
K 3.681668286154724 12.040478451074458 1.9091410298577294
K 10.643165801717737 8.560010505199319 2.648898760326368
K 8.42301343781419 12.880759418537556 2.176554234259223
K 6.2299945968153265 9.608133269669946 4.060533152183203
K 11.672125822313316 4.359291211892574 4.8736956845204205
K 15.215004319533893 7.547038742683877 4.044213414068292
K 4.043952500398517 5.664468980050806 6.295869226859234
K 13.403566981843133 11.810530444611349 4.42336892339963
K 7.745720106688657 2.6493561210923358 7.000049483823804
K 1.9690472101883298 9.996931482335604 6.040900796018018
K 8.49552924416941 7.007611443350686 6.263458255542642
K 5.170152079114517 13.706634386430725 6.0573046277308356
K 9.422204204850186 12.063583484872932 6.343367932627389
K 11.877763348570635 1.235951684783109 8.508414919468175
K 12.421718035096767 8.526992155334964 6.991201986450514
K 15.091823635299647 5.15030760176084 8.180246963941352
K 5.65352045178458 9.933937955449986 8.19093916687411
K 7.705106124744333 13.581630517507248 10.301036831464874
K 16.313542775217147 9.788658598657578 7.899364486285286
K 10.818519766280987 5.187904254021416 9.4076504793992
K 3.07338115206818 12.470754642144188 10.402821454465295
K 9.653874559355298 9.488568747798205 10.051773458076756
K 12.977720894391908 3.6253061437886434 12.574637943197944
K 13.674479304422444 8.14201647767096 11.494922326230096
K 12.89256576091258 12.302515644681803 9.619240101636775
K 6.640593014505078 5.9148222505119605 10.062816574728801
K 2.411643412418781 7.5760990164210495 10.396641213664081
K 6.229216144374924 9.618905589057213 12.437530030634331
K 3.7425274454808863 2.9363549481578493 10.388176519840655
K 10.282828406118723 11.442358768299655 13.902691120687534
K 5.861341353618307 13.234686904299913 14.517793116978448
K 8.468957754519355 2.2602136477201156 11.855753654451998
K 9.639150208425411 6.626287906772095 13.639520303997742
K 2.624882979592929 9.617455972878531 14.506726125301048
K 5.061273906328304 5.571395386834401 14.06752957960826
K 6.948472167012267 9.293446222444054 16.5748931887474
