39
Energy = -32.16993904 eV
K 8.618765977844056 9.821331136772937 0.8995403745719477
K 9.314376597470682 5.2654425363888455 1.0147931735064493
K 4.917568033194587 7.136680291145489 2.5938305771607895
K 12.951242379526464 8.047423423615577 2.595620398580859
K 6.09302522794882 11.27566885339886 4.632908615082681
K 10.973787599588961 11.748642704757648 4.582569812419771
K 8.929055823074698 7.577364176591193 4.36709518606924
K 1.9216110643277233 9.62398350626046 6.219274696794592
K 6.921689230702073 3.496731472975465 4.883742154688891
K 11.818499489001324 4.045610482581941 4.87601909996236
K 15.470232579963506 10.734993762523828 5.828978111677022
K 2.3383364664618194 4.663505798268742 6.075430969426768
K 8.091261955232156 14.149230914991064 8.028646519933664
K 5.410502531155816 7.210425790101956 6.862939111238156
K 12.514277909000665 8.079299694730393 6.97877770298389
K 15.959868068807793 6.140782131460009 5.901750629795526
K 8.83738466767697 9.879896558901951 7.858939794877916
K 3.381399366524693 14.1931169661148 7.256754485254067
K 9.241130818638863 5.411976811697576 8.16460873431829
K 4.97882786113415 10.869996539264731 9.127182024520515
K 12.412874996760607 12.165199968145407 9.203509717745883
K 9.739582881809742 1.3750106903096675 8.24237128216598
K 5.355305365592302 3.4577736733279383 9.39831451874163
K 1.3182944885078887 11.859932266487167 10.686353528019696
K 13.332412702871693 4.398532719608489 9.594798459974365
K 2.493989172126458 7.176467735103348 10.25638007320757
K 15.417677449647186 8.608002064017235 10.252681438534324
K 11.247125139812924 8.045849446455101 11.121253596270728
K 6.866039639998276 7.415766912355664 11.040384253171263
K 5.332644540672794 14.41228703340382 11.735824241135079
K 10.223601366202072 15.162953032031659 12.15120459341345
K 8.566846111870218 11.396196816880229 11.733638117873866
K 9.561245851869392 4.064488581763273 12.478983968804437
K 4.582472413760656 10.106314446922084 13.656970754470514
K 12.416531964578256 11.107643159047003 13.873302828855616
K 13.341571236623215 6.255546791789397 14.126014750569748
K 4.997006597592374 5.382034554886668 14.037147194998404
K 8.91495067016852 8.139697609344621 14.944258550673293
K 7.98751936443994 12.888734547757208 15.507741560690263
