39
Energy = -32.23355198 eV
K 8.668782590974352 11.826945474123072 0.8304202295694317
K 8.82371038709525 7.437754553094449 2.208788733744978
K 5.111515794637714 4.155060702996523 2.565774544060412
K 4.2802034844108885 8.741853321709666 1.8489331968575842
K 11.840512874606503 10.734367242652848 3.8574263362437646
K 8.930000458414469 3.677129104315797 5.360569608719549
K 6.791750539505008 11.111464417275423 4.537913915126407
K 13.07405660969946 6.08944315755752 4.715437265750039
K 5.527560361672554 6.857842095327302 5.511191541118714
K 5.6531151368455825 13.761871072960126 7.961554515494793
K 9.432063061773245 14.711807432071021 4.779982033100211
K 13.668767142112914 9.247952935133155 8.085711729291672
K 1.469892485109433 5.827889392171385 4.9072516690159
K 4.533619467938504 2.74799651622846 7.094676493277597
K 13.319414804105163 13.902213153775064 7.3365467950279255
K 2.577341008818914 10.167868718322465 6.290920107081793
K 9.767196969716384 11.777842872362244 7.88269883241933
K 12.993214313940507 1.8701541712783034 7.0253769172725535
K 9.587939938252141 7.9046629936758555 6.367389289188397
K 6.077606792546262 9.46747783841726 8.67472242392838
K 15.783415504527479 5.175276510936176 8.662050119512772
K 2.7542574100208967 6.498203215466565 9.358236020956255
K 11.566231973132016 5.115450645338184 8.954445043029699
K 7.229595950932247 5.3486836650925875 9.26925229964837
K 9.042574377538228 1.4450708631476368 9.632973787834802
K 9.57065037229399 15.495084516893908 9.9462854479454
K 9.892163803655897 8.40833091752439 10.773696935600265
K 3.1273506294238222 11.114516473695152 11.285981496702563
K 5.089451304499369 2.913110122327205 11.871478232993487
K 13.34454430868802 2.3852747297956363 11.647133227045359
K 7.645221589369399 11.722210818103312 11.722853909365902
K 12.349921625385644 11.90420979301027 11.622147290065934
K 5.441831423972148 15.081934880480862 12.491184978036674
K 13.607162900483404 7.046853412902277 12.435281158492682
K 5.803069100853549 7.53285320542386 12.936623772086879
K 9.531745987968687 4.594276342554051 13.135296707811024
K 9.800757728431261 9.286591517254887 14.9480541760965
K 9.362050671082166 14.042184038213493 14.621755464567988
K 5.530746210571564 11.47129426139681 15.442990850923414
