39
Energy = -32.08211058 eV
K 8.094452933510198 8.402014484357169 0.9916315031280982
K 3.7740412942066195 8.807444588085472 2.803658291819841
K 6.014742463977107 4.553908280242742 2.4739504078257477
K 6.959694689578382 12.048385144706064 3.727212261351756
K 10.798610552734987 5.121395790188536 3.451392701467008
K 11.384792251735846 9.829253249126195 4.096394950791456
K 2.6772555240511706 13.150340828462989 5.046700184269007
K 7.302200551906747 7.481120120266482 4.982600583257562
K 10.834736557539966 13.972776343815099 6.117488042303253
K 14.90949845832953 7.313367178127424 6.264925911845455
K 6.094557583810485 14.14492169310943 7.833133929380688
K 3.7225956653241186 5.211098513158926 6.540727778764519
K 10.832701785997802 6.6898439278238016 7.441865859375927
K 7.994217657570797 3.132800486701187 6.717931141768015
K 8.505133716311835 10.541805567010535 7.429275611993466
K 4.01779427698031 9.734220052794587 7.124100389193413
K 12.697409590505016 10.439304940083373 8.495688015422397
K 12.63313567559904 2.8502500226606116 7.611461563018484
K 15.27113366596535 12.227482283881164 5.829992520684133
K 6.763916010453337 6.723009499517328 9.149246083203566
K 14.10649792236558 14.22894310402567 9.917281542898785
K 16.7508879498617 10.237380708603084 9.686970398163027
K 9.739687035995615 13.23691474494499 10.401200265804125
K 2.8886236124604734 7.470876703962826 10.912127222397114
K 6.118202012957737 10.618076352042781 10.943135472436047
K 2.375691851666463 12.592674986702544 10.138880765597264
K 5.490891233692237 3.022349889998418 10.697165133063313
K 9.147094951332338 0.27373351309701405 10.044546128983717
K 9.984792404032456 8.681263703288892 11.254588992797437
K 13.992163998016338 6.609498172553534 10.77523760890629
K 10.084146438681541 4.2903689663003615 10.942063955250786
K 6.145837146798151 14.506651381068243 12.811972072291663
K 13.276024188172109 10.763603982239173 12.987090723154775
K 3.7630675783801637 10.727165527063567 14.313811315916833
K 6.628525853727193 6.704404240737494 13.612197693833405
K 11.052232913012551 14.821654782697264 13.877129466618442
K 8.669602860989109 10.928478736016285 14.666756540932582
K 8.419426679441703 2.428100348032885 14.225534295749185
K 11.146880220744782 6.546014920923615 14.725830432758132
