39
Energy = -32.06057738 eV
K 7.953452183339927 7.130312014351713 0.9333923486332262
K 11.80576285536661 9.249859781045672 2.968264373085065
K 15.630670789126428 6.607450751492924 4.585437125054226
K 11.481388991452976 4.564452116638153 3.4692475008063113
K 7.544545750991513 11.113903677040044 3.1975594984333835
K 11.693877357386395 13.832250859164866 4.587371414553808
K 6.4964951067960035 3.392749203965308 4.0324481991303065
K 4.224453817047692 7.816166729308643 3.819168776117291
K 14.650418540146983 10.988019952501515 6.874109166441077
K 8.376198445998567 7.049793799153293 5.069419045041529
K 3.1901868623650738 12.175977409718053 5.462714951074596
K 12.350107591406356 6.973135266293864 7.025563335786899
K 10.222296510968519 10.704705462804716 6.81820670047013
K 14.286117833280828 3.3100875912849683 7.413342496296854
K 1.9696173882942551 8.787435946744276 8.535256322173751
K 7.510149020857932 14.185648806364574 7.2785930392424065
K 15.968909240490651 7.359465779888083 9.608339680429188
K 6.000562449217848 9.856056973449897 7.321532628396827
K 9.486974414964546 3.18917699574818 7.600693751321396
K 5.441591610378624 1.3440344074859722 8.345628683646975
K 4.122896993159781 12.698411783622168 10.075627755007213
K 8.892033481729623 7.192069537502792 9.368242950552247
K 5.002217405675314 5.496641477540772 7.698775760619178
K 11.930176310013627 14.013207798092724 9.335162810360996
K 5.4515442216479535 8.32611475775701 11.345302558340768
K 8.420287462631242 11.42261189013732 10.720096936996983
K 12.33784362157875 9.598226521018733 10.510337501730115
K 15.671630334398982 11.945781406967113 11.397109443043263
K 7.636985347454351 15.325983951541831 11.988903156941472
K 7.192940025751717 4.0240783814344985 11.75494913371736
K 2.2516030355293486 10.009130711449828 13.377628581023808
K 12.218018373405133 5.037754459019669 11.216487963415675
K 3.559870354763333 14.395979959942611 13.999652981610573
K 2.7082963769828505 5.067947028682719 11.591088909419112
K 6.616602687979109 11.271690916878287 14.598655693539959
K 9.535692459292978 7.859416947499429 13.756682704801223
K 5.231407429737806 6.698851197579968 15.198715212578582
K 11.373713308677807 12.286772286436003 13.783342254917
K 14.235583037402106 8.371764490142557 14.010067682938233
