40
Energy = -32.81352787 eV
K 8.105667943773806 5.647781175509177 0.8169486736600521
K 10.1526130444667 9.770906229433436 1.3467304790702281
K 6.0881108197803036 9.12624701150238 3.1221551320762044
K 12.063597433740831 13.484150452360549 3.44179726853217
K 10.228315054717974 6.50172140739395 4.464609590159939
K 7.4655041940004585 13.45954208913616 3.065168699871027
K 5.859788914149362 4.870545184393398 4.620445965797756
K 13.691070480210831 9.077533054939238 4.575162039965718
K 9.540263227011351 14.948128751819887 7.289135293711405
K 3.058384527779366 12.449231115245682 4.005597527628632
K 5.995902284253751 12.328704157039038 7.196794114561674
K 9.841714480215318 10.794349863010272 5.687487299983573
K 7.377448369641922 8.05742277749378 7.297429744857154
K 9.996118078210989 2.216620994968918 4.19084098202715
K 3.0996716764530285 8.68280595452882 6.5100019997059775
K 13.342082645612676 12.461223182933308 7.760440575598921
K 8.891192853490265 4.037350352449238 7.93777741371279
K 13.423183691225915 4.345774998420916 7.170375086920347
K 4.65254339216204 5.308401758223918 9.022222885106087
K 16.17191775472649 9.009188235470853 8.292146144741498
K 2.166502345355447 12.375914823106283 9.380604241410218
K 11.181573966075957 0.4970540270560559 8.47732025306617
K 1.3610293508901152 7.866768552058528 10.885726725772965
K 11.915014194841431 15.24437945633697 11.018472168996507
K 2.129747262650994 3.216598381273037 11.658656698925688
K 11.841954877112473 7.970904780244074 8.733859105278933
K 5.284177920154563 9.694634207229065 10.565801459953134
K 9.620158259026727 11.240662529003899 10.271785141149545
K 14.375097129572005 11.27506288128072 11.867645061405467
K 6.991130734691654 2.584961540045075 11.714098263898276
K 8.383674237243659 6.8654461659989865 11.258775814015653
K 15.045708890147168 6.496298267831631 11.478895658915414
K 6.5239497469060765 13.811208669805515 11.778410044363255
K 11.517761219924406 3.8205370364397524 11.535664049586652
K 4.59543187293016 6.416569427078571 13.594506417151543
K 2.978331066449022 11.171006136110671 13.80493481268565
K 10.70372493376729 12.757569701962975 14.269125629461907
K 11.650064947244854 8.358247940993525 13.637780701877903
K 7.360648411109966 9.888981075531984 14.42560418392572
K 8.725211921199236 5.26554980725603 15.225050803388047
