40
Energy = -32.89842614 eV
K 9.885091037165113 9.27570486335471 1.0887215345092287
K 7.48251969848436 5.329834467752475 1.7021202376079856
K 4.955259955666031 9.343526897692525 2.4635188696148815
K 15.816225734869592 8.901173909378404 2.860973176422661
K 12.05440668394715 5.794627990330575 3.4549067965219167
K 8.142611893768894 12.264354524212562 4.142634499112997
K 3.109262741639206 13.057897649656814 5.05776255931283
K 8.33855012731069 7.872571180942735 4.785888108589654
K 12.251788245665447 10.26950611052441 4.880047219534472
K 4.349029476695114 5.6587457553939124 5.4003196857244244
K 0.25721436239827866 4.8752973699371704 8.047757798874677
K 16.38569309745977 11.356277857787608 6.7772660586021205
K 8.3716343828169 3.5172571717652015 6.148862130604721
K 5.131807653416687 9.978021164506385 6.845903204669699
K 15.42214836931156 7.030887803637996 6.837620733110705
K 4.6588887374665156 3.2387639239966797 9.314652993291958
K 13.069540994717395 3.014706615641348 7.561822643633822
K 11.203108361032902 6.660225897424998 7.748569638274412
K 11.983700532335423 13.824764459015688 7.783349989922642
K 9.178967787009574 10.595287763173928 8.194600113367814
K 6.368085607242324 13.901928113684274 8.391271555477609
K 3.0937539954096955 7.500184903595071 9.784696995205419
K 2.1093759746138874 11.88058671889986 9.568494888079353
K 1.3226755637843044 4.972044778478651 12.64003695695852
K 17.226825009677558 8.211946884661979 10.647414564842467
K 9.622401834140447 3.684063748975948 10.788134003708628
K 10.361998406257543 12.536980821715266 12.075984562506036
K 17.226825009677558 9.356685151490266 10.671576292810645
K 7.077097385922585 6.690329155105293 8.874426785267083
K 13.224093536463 9.947494463753674 9.54126826935318
K 0.9712476144152774 8.949348901924203 6.130965595175814
K 15.035340235212711 13.228305253168475 11.29468132781962
K 13.763920011592315 5.821252799040675 11.371200278346338
K 9.870359993517672 8.124564201230935 11.810507801922183
K 6.112018090190904 10.57124747768313 11.537133350301623
K 5.998440569401527 6.17421566705474 13.303200901327626
K 2.368678226780235 9.264571274253104 13.644145030373766
K 8.151571728949715 9.643856411497152 15.401009193392929
K 13.282051114248846 9.659201111339778 14.074786003052814
K 10.732424326769523 5.723179047337333 15.053187913790525
