40
Energy = -30.39564507 eV
K 10.026143221880151 4.862756841035641 0.49077535355718294
K 8.671465659708018 8.842648020886358 1.841481780174833
K 11.89758869267403 12.191528861460931 3.752288175701307
K 4.120449825008599 9.732362328283287 1.8494874907608774
K 5.579116422982514 5.2900354477693705 2.035137790684055
K 12.80824584497148 7.386729494585845 3.2187349044458347
K 7.2144799796180115 12.25924189071631 4.347240011004836
K 9.14908469422794 4.793880550210564 4.666536781360236
K 6.034993449485499 14.93599862264606 7.644802480997783
K 10.179329236319644 13.022412958865488 7.863140276555968
K 9.940337233363865 9.088197151591332 5.976118366529919
K 5.930272491264081 8.090793561946771 5.406573641621046
K 3.0146752325187904 11.27596034920804 6.031628520346521
K 2.0980324273699793 6.796235775799284 4.8181634451481665
K 12.461633482088265 5.616755683688552 7.655778325434963
K 5.095047104930899 3.7121964242348864 6.640555402349029
K 9.325665878182253 2.0972559926590275 8.58327780129103
K 14.066492106491369 9.966997317048863 7.056939268549293
K 6.500911633763033 10.869283329334394 9.026507925856738
K 7.936391363844032 6.239362623018033 8.573096260245919
K 2.2349264746326107 13.001181985383347 9.969327088621876
K 14.274691775079248 14.414312310267809 7.736387331543269
K 3.5224803925273225 7.508761238293678 9.438410091975959
K 17.29265225936158 11.213245106761457 9.386562037440584
K 7.245362982604286 7.870769610378175 12.302997641473603
K 5.997527621995376 3.498566681948945 11.394498563290956
K 10.393644934653562 15.868790906104984 10.873571296668144
K 9.55276339060981 1.0875659866783545 12.971650084341636
K 14.715699335706303 7.573138168116763 11.097987635061903
K 10.670167112257893 5.13088646276861 11.905720791421919
K 5.859172328321445 14.892165421606595 11.908792360447054
K 10.778879559042448 9.191424354401594 10.105754686387426
K 13.372428286912044 12.22521812137217 11.475528745377343
K 4.11537329297672 10.785702636417776 13.073085691323515
K 13.570685015118677 2.4959248346364578 10.778535407941261
K 3.7257868063018518 6.373381678051554 14.202577404446862
K 7.135748714902362 9.201427209760539 16.17639944724344
K 7.995033201610272 4.739525796637224 15.351667316410841
K 8.963193247717701 12.078283827696547 12.834060669656521
K 11.393672415995468 8.639339566747811 14.398466835329032
