40
Energy = -32.86219535 eV
K 10.511827486636276 7.341990662584549 2.1491440380833327
K 9.056114836159606 11.877733782887146 2.9509706171250842
K 7.830501148603731 3.9802474546927358 1.6932628658601125
K 5.714994692444613 8.25693816699286 1.8129513588305826
K 11.86094961231592 2.5547370651533217 2.8660291971918124
K 12.025662634491216 9.400525949235389 5.553881125984212
K 9.219000483242345 12.225917504511942 7.275182069755424
K 9.78614598607639 4.968337006392829 6.094564321314692
K 14.237631389654194 5.678828839425942 4.873146080999056
K 5.167825558013102 4.306859178523057 5.103935916078146
K 2.97189703238728 7.966123392346431 6.552294861451753
K 12.822688432599698 13.791320638133222 5.638140953026224
K 8.455815202620572 0.8158789170209528 4.618762893127972
K 5.1680410889864135 12.460589679693284 5.332635101423991
K 7.5083788697876255 8.471716678660684 5.415790356703923
K 2.6013297449661845 3.8061320453570584 8.824998998858689
K 16.09411761711087 9.699610452130242 6.539440651574394
K 12.195107443992825 2.00246457137875 7.668647697799376
K 8.433540037711388 15.839927257543627 5.385353534244723
K 13.74463963241213 6.530881887040218 9.15049163924734
K 6.128153906375103 14.650421264076687 9.501165330016438
K 10.871743087749078 15.430528048316242 9.740494557280096
K 7.21566241731846 1.819419818476895 8.812659691641299
K 5.8352223143505375 10.200620332736918 9.133379691313007
K 9.894310750779253 8.29682019661989 9.12466312194788
K 13.16578638093185 11.410152094727453 9.678991423623883
K 6.28910640229423 5.896943871033743 8.903648964667207
K 2.1082310958457935 11.960322353373815 9.236411738736722
K 9.04998502587478 11.908086626343957 11.589937362592169
K 10.065817627423193 4.444024173511108 11.265423987967583
K 2.832393519281343 7.7304840752720905 11.412764796301456
K 7.280366383902602 7.975437701887453 12.552269746285802
K 4.836327716917204 11.744078614942472 13.138291483387416
K 11.782518974363612 8.527169182787475 13.119896805106558
K 5.441708328772211 4.032425008272597 12.813344192056523
K 12.220967583594756 13.317278032774341 13.884183083523965
K 8.062961393681672 15.313094219294214 14.005211533951634
K 8.619657497145512 10.651100254780502 15.727921142799737
K 4.601004992466882 7.553622817341361 15.720869594435554
K 8.834699354758142 5.7040438677647805 15.681681157722087
