40
Energy = -32.99379323 eV
K 7.510494516093948 9.974583598025092 3.0333347643306086
K 11.437629296509986 12.685595888951053 2.9046648251529628
K 6.776161917296805 5.460490389283018 1.6908141847983056
K 11.18871135276993 3.4711030101025253 2.3574088984416437
K 11.102872979106113 7.8990553812633015 1.7605708148832833
K 3.5631662390418457 8.21673021827585 4.297703251862143
K 7.795742565213346 1.6517618039316098 4.419227992103966
K 13.136734289919461 13.27790859070549 7.3795252146587895
K 8.593416347915108 13.038217451948102 6.119164752380756
K 6.69908118472589 8.859455323500146 7.244366408682921
K 13.56242349590076 6.143887087521213 5.316570128326485
K 8.908027193556382 5.8020117873805415 5.26895767751351
K 4.344953518543496 12.618872123816367 5.456205355714534
K 4.612457737950724 4.363153378361846 5.718669643380546
K 10.86851647936414 16.658027792602667 5.541326460711684
K 11.579491734153738 2.577260470162201 6.9818597107479325
K 11.152251708205675 9.541407648342222 5.852696629002483
K 0.6436260622510299 6.162514930086799 7.273860604917284
K 6.456268070614217 16.59509744721261 7.0274076948626485
K 2.6430965346526203 9.917563533532292 8.641876653096741
K 14.91451275156259 4.658814943865576 9.290850605506915
K 9.911547410964623 15.361042796987688 9.829081465130205
K 14.11155675192595 9.088382690115825 9.421976528606187
K 7.63133604548627 3.208134504036801 8.872837480401142
K 4.123015446395866 5.726864423480456 9.873044256599846
K 10.462477216707398 6.534440127802294 9.32209626034378
K 9.976126889143845 10.987946415109189 9.663863004379708
K 0.3502946040859148 7.6693212960886115 11.56352476492403
K 5.799664633486863 12.952363789658925 9.714508317903109
K 13.033107505756641 12.692209570789005 12.121779968031063
K 11.615925909943876 3.2425612635615155 11.835931839871582
K 6.806593925637723 8.676875377958952 11.477183198915537
K 14.698537500014076 6.430210649667326 13.266333413402835
K 11.092998659455665 8.704309900633515 13.220123329995792
K 7.736640892016642 4.774701400324125 13.036201646806257
K 8.384495692984283 12.438238280580153 13.41765484961681
K 3.4913358467915905 10.809955861577839 13.017826239927263
K 3.7269220024920156 6.491290713592553 14.188362614301253
K 7.511798459035061 8.414674755018957 15.75738575229759
K 11.119854404874337 5.296829156692019 15.897088570015937
