40
Energy = -33.30545047 eV
K 5.357691933888798 14.577914587038652 5.4378496909368215
K 3.0940966813943076 12.068121599189897 8.873620071012162
K 7.882201892922251 12.25668347307357 8.826294769681182
K 9.343487306636142 12.183150870289634 4.2370640365531616
K 5.6637823123864255 6.6073728593812895 5.682154948601331
K 5.52080440296915 10.44605397508157 5.581246064862599
K 5.639144542676653 8.430074610940496 9.906777190806425
K 1.5622520661423633 8.212418699514938 7.02253117439618
K 3.0755152620360526 8.152264564456848 2.2043263584653627
K 8.07901890139137 8.337085575150029 2.1666556250288687
K 9.668967512985613 8.510953892457595 6.929038402407907
K 3.5538140989795077 4.432847211726497 8.799230746690789
K 1.570323187825024 2.246274590657167 11.744836607478005
K 2.157980336403316 4.305109140273471 4.595419581338957
K 15.301103816848636 1.9649784709701994 3.569924204401859
K 5.719098799824314 4.364433056628148 1.9560324476937163
K 5.761288885435914 2.112892136506174 14.904506954554803
K 9.30509089521597 4.555568729461916 4.524565041078657
K 12.756447457047479 2.454282082508822 3.4375606316806984
K 7.975876302810724 4.598159381379695 8.750613357371913
K 10.173917434545329 2.5502799671353444 11.66936344064671
K 5.820123690378599 2.147872836307282 5.776682259228121
K 5.9651896723075435 14.577914587038656 5.905038775155601
K 1.5451743770550481 11.87849092388945 4.3162106060409045
K 5.4323711920237585 11.9460804818579 1.428122992704204
K 1.5106051852491242 7.040237914749819 11.499005022888827
K 9.902025085852063 7.3437784954335665 11.410273373498578
K 5.8008827920672745 4.573997976775429 12.688200722638403
K 15.304967628067432 6.793206454423442 3.5358400402820958
K 15.607900044758486 4.2411577682832915 7.946905300497073
K 5.596961565502037 6.913382585931565 14.981370097283945
K 1.6086459183434743 4.152167116861603 0.13232969301300262
K 12.421145122720581 7.260214668734242 3.3995712898190926
K 9.791124832588409 4.441833283913894 0.06462019510506799
K 12.379643215632518 4.7147522552593175 7.816615589057401
K 1.8279067150597947 0.47141641889733615 7.1670118488206915
K 5.916202733461562 0.6904760069944026 10.093857756025066
K 3.3483821694474587 0.4137310064167543 2.3760558533238743
K 8.354019994889825 0.593702499476758 2.3361077914646082
K 9.951726114945657 0.759717805734005 7.090545768223649
