40
Energy = -32.92639856 eV
K 4.668774511593055 13.54385776670533 8.988582847141723
K 7.581366193357814 2.790990103113538 11.166017096772668
K 7.224113100194124 5.211997517082183 7.252332060627381
K 12.333721044319953 13.139529085154845 12.120868736188555
K 11.884041903194545 11.998063778763848 7.7723471392944665
K 7.03580185394309 8.166807328287563 3.5451482419763023
K 3.7540365176273682 11.402867889292176 4.799251693718742
K 2.809600484571775 2.5720422066795128 12.386262005129069
K 10.783950490301217 5.35264504011172 4.3633312619642135
K 9.772276100275647 8.45890844708238 7.1884192902671495
K 4.180514738872897 5.937450434750442 10.255996203461793
K 5.586588093355044 9.2858845392885 8.081505965839295
K 1.4252610006573376 9.40094635060889 9.092605349283883
K 9.792216054666547 9.57944778674318 14.478245458674646
K 9.322483864162425 1.4980190750493705 6.626431267460576
K 6.094565506635441 15.695830274149115 5.022098322925955
K 7.456181742128762 12.381082473681444 1.8459300537397514
K 4.177089965524468 2.2257511674546984 7.83708696223721
K 8.415850726102441 11.624726135593844 10.610563878577702
K 0.3178801480325246 4.508813755028818 9.34254387880325
K 14.044863351924036 7.861407708812032 6.563733712874735
K 14.250903591015527 3.2730653781223675 6.551330023575859
K 1.327538253543004 6.827676592373081 13.184568366129533
K 11.29747707604267 4.588331774029447 9.179319694497273
K 12.118233381487606 8.811854690763088 10.77661415422524
K 8.162426847145111 7.197784118850212 11.154483586414962
K 4.72848160602169 10.00050701045297 12.414917584383405
K 14.148554390498354 15.468667160010348 8.371089288035739
K 3.081125041673482 6.543704752395319 5.75463873551501
K 6.081483462629786 3.5005227732731736 3.6799215669501684
K 15.181891819411131 12.587779609291045 5.267472944804202
K 10.890937570731824 14.699251246072272 4.486771173449526
K 7.900314961290307 12.123302373405608 6.032385513858366
K 15.295470540712252 5.9023341091417425 10.640477420110582
K 14.410598375094594 9.119470589892378 14.213220967558767
K 9.198849142212078 15.543051651065905 8.732617624737758
K 5.829481908167053 5.6320955912282855 14.437826495403508
K 11.463343117560244 5.383420840604158 13.538423407760702
K 15.670828099154317 11.022001974843038 9.769272661481446
K 11.207506063089559 10.044731539672883 3.3819700030701925
