40
Energy = -32.92647092 eV
K 9.391793319848176 5.242717236659102 0.03578254525084456
K 5.383650042529397 6.934466057005723 17.69002623007352
K 8.917237413233941 9.71037914320885 1.2064881748501861
K 5.889775678041789 2.7380726311133903 1.744615623339352
K 11.811519620504779 6.952327316050677 3.7427796769238277
K 7.009613469544017 6.28742617893413 3.4680727573103276
K 9.925175545595861 2.729480170374705 4.253451246554934
K 4.583478917708738 10.105516767188313 3.146861169416978
K 2.74084325100438 5.675040255566589 3.2054238163696205
K 12.052259450468712 11.878499877049256 4.342612212734684
K 7.742169381658905 13.848008302979242 4.326700992836811
K 8.34207614721184 9.710380157113939 5.3892048897253835
K 5.513051755776867 3.0898215174177777 6.379504755007833
K 13.123188672762732 4.249508341622693 7.536175229203475
K 8.902290079760174 5.674433591941272 7.1081045816253035
K 11.303688007776518 16.082054440516604 6.585407010018126
K 4.369293199725344 7.473179717475979 7.0692918459727485
K 12.310187156494427 8.812740478223182 7.692039782745182
K 4.903755586711573 12.00950599561109 7.623487843705191
K 9.688312777368733 12.568768329212173 8.162303276175038
K 6.945207671583189 15.855279504734161 8.855211071417475
K 7.708717028727235 8.99247808297745 9.447362420150762
K 10.636473012631198 6.0773093608745095 10.910760988100442
K 13.103167275408694 3.0173172899948546 12.258906775662942
K 10.933904755850703 15.134475799540086 11.168632706466797
K 5.849698522089196 4.991027669715767 10.551016547295642
K 11.572400157671892 10.529160961856501 11.835062653465792
K 7.37583766893694 12.565424408723977 12.139692895809715
K 3.845965363708593 9.301446579428674 11.353689927163751
K 3.399011950945655 13.888475448636235 11.454763042961812
K 13.989538463376585 12.870983972284275 8.59948982763474
K 14.732401886297907 7.211647257392015 11.121412609100709
K 9.336967539772024 2.048814705857667 9.434130004565628
K 7.820274500460139 8.147144058961166 13.50709973323899
K 9.638595355247903 11.094898621109415 16.03781315991646
K 4.472749848364919 6.015384130458054 14.877039810568823
K 4.897543908716481 10.636210699035844 15.527148725917419
K 11.831399307683188 6.993410148336511 14.932569440825384
K 8.675389802732672 3.813868268836416 14.14556726706986
K 7.796123284320354 7.507643304234673 17.69002623007352
