40
Energy = -32.31422993 eV
K 6.737846487759905 9.622919514055633 1.0778878835217387
K 10.360980583629692 12.077862070265752 0.21216136459829232
K 6.746048281550074 14.21602755251569 1.35459972882902
K 3.1204145513810215 7.098245116392595 3.0957632305284672
K 7.323545490895169 4.6122276596177265 2.6892133817563146
K 3.9396144264406594 11.781449215417572 4.252534795441571
K 10.792096949073475 7.876084480082277 3.086013124365889
K 9.018807665742992 12.15390562596901 4.318112607608366
K 11.91082616731677 3.225224216371452 3.8503345758629814
K 10.338488402847009 13.623818349461773 8.355932006976563
K 6.612547314106227 8.304538917370978 5.017632498304369
K 6.290785349817547 15.340539313636494 6.12340685810968
K 4.741309265464202 4.4756261104864485 6.588103438571546
K 13.638961304136172 10.95799913280567 5.3589651134843015
K 8.505981939396385 1.1748904318062492 6.132614375745244
K 2.7027411712969776 8.633920933432993 7.546730017088226
K 9.352501152207804 5.182758431126079 6.5378362438822855
K 12.103621159747204 2.658544374170546 8.832207336844895
K 13.697884047510932 6.415283596318924 6.594403468651829
K 10.240605992256528 9.354472651477112 7.2415970030289065
K 6.344436646670014 11.47933003932195 7.891918248871678
K 13.435771182682164 10.329623517445643 10.215852249414112
K 2.6674132626859244 13.355798130691973 8.602092855471986
K 6.607186750765868 7.3787804632363505 9.179994802571645
K 10.869993489816837 6.564579998062095 10.370656333403257
K 14.94834385636343 6.117833004471033 11.178456419349
K 7.645323479624699 3.161293379128166 10.372393928203183
K 16.96098575799034 8.784129152641894 7.996756151439043
K 8.959557055825595 10.484149814209736 11.212755063994491
K 11.025043304989095 13.303571616487751 13.343733504180765
K 6.700730305778858 14.271193500178866 11.235626903853307
K 3.5242195550092545 5.625981079551157 11.619708671515845
K 4.347566504224306 10.207942887720948 11.862808444308442
K 10.738105820819884 4.127113339024499 13.813951988425417
K 11.711278116978093 8.721406053731132 14.231612929172123
K 7.46740252937138 7.015810837592495 13.264231229124206
K 6.103701557180007 3.495917253050055 15.06704686287709
K 7.51294876588878 10.935927958619725 15.333406385114236
K 4.108731796165226 7.6031365122228545 15.807968068542081
K 8.354181937043363 6.45867314828059 17.34150928541691
