40
Energy = -33.23695074 eV
K 11.507218489706185 12.067192855175929 1.6819678818518549
K 6.9970800475609956 11.533852808750147 3.235010865087314
K 9.442811977219758 7.85834898107884 1.771769214610087
K 14.240127408657246 13.017368645051217 5.186503414349952
K 14.194237338997505 8.416166819631746 3.3962755228657246
K 11.07850165077358 5.355442841821086 5.135404721220452
K 7.415551554227385 7.719483652041921 5.808741549282071
K 4.740529501506586 14.619172979310935 6.58721939845217
K 4.752763334056014 7.117196725116075 2.5181877194247577
K 9.734936804640693 14.610205504630136 5.428203035888241
K 7.067084181159815 3.4224214227991565 4.449388250597387
K 3.533282267239771 10.01340640314215 6.15626693631946
K 10.951797431182428 10.111787971414786 5.593863092251029
K 10.527773155317098 1.4282616859286694 7.649821158400427
K 8.108126242877526 4.74221232643324 8.827200537076642
K 14.401634666643739 5.036158710826359 7.630107009009314
K 7.554911705507725 11.61016738745205 7.795792168349537
K 3.6406867379107837 5.320636456303284 7.01898071936048
K 14.94404666368991 9.513856010964036 7.918260589243147
K 0.6975175348843384 12.77773318329271 8.198504869420747
K 5.67074840933726 1.1307720477627008 8.257490217328979
K 4.174530288654476 12.496604352363448 10.852986270470058
K 5.776838014724161 8.24299658388554 9.827408331943266
K 12.024881065263223 3.9795235986453243 11.31232178768121
K 1.50671684972207 8.573683030382018 10.26909674607168
K 11.798224844044492 12.73933439012866 9.306361074140831
K 8.423499734651438 10.874920399165237 11.907280309478192
K 15.344387115480952 7.100323337942485 11.773039561401744
K 10.92980556723485 7.98327559830708 9.37904870253
K 4.29828517908303 4.509481742994477 11.56831602916494
K 8.420739395147663 6.382209610665997 13.14528574030176
K 15.56819138584487 12.029065959261454 11.677446387379902
K 7.945027512101424 15.220526530354565 10.36214795824129
K 4.6781328917218 9.15071450529737 14.041061885570917
K 8.178141828725188 1.7189808709500254 12.009861337251467
K 12.266134820516086 5.790943828303879 15.459939410289694
K 11.045364554614725 13.88891123738107 13.811585800908134
K 8.88637086106054 9.913922982924907 16.22125088692225
K 12.307294863550156 9.61298919110748 13.319696696149064
K 6.497113709301479 13.640794415549694 14.78195379825261
