40
Energy = -33.2158449 eV
K 9.859311543377524 8.65547671044051 0.4489781648346101
K 5.798641657796289 9.765835474958426 2.6336235136339083
K 9.43647976525192 13.053118214981607 2.256056906124874
K 7.689412637658504 5.660904775890664 3.4628765907933095
K 3.106463294737899 6.261421905802103 5.1000733590865375
K 5.0144011375177655 1.9908782274363408 4.860861020690897
K 13.884547547597164 8.982523019924905 7.0512061147987115
K 2.7429465270118056 10.968713512766607 6.8337551857216
K 9.91633175596323 9.50446314141146 4.558932311228096
K 12.441330462791933 6.006985318098003 3.6860586516601597
K 13.517093033124615 10.558053545250338 2.640510684914367
K 6.898988414684608 12.556625873289233 6.034772825723363
K 8.316757740591818 16.31281395584081 5.878208838222097
K 6.309328852896051 8.456046280597523 6.757285271971374
K 9.686144350307305 2.2274065262517757 6.094014292828483
K 2.270302747093676 2.9651290093385625 8.525762278256131
K 11.827980959994909 13.177351749201478 6.302834012118762
K 6.207448369606188 4.509063912834326 7.890902949235986
K 10.134934890350422 6.256817742789022 7.3202130353558275
K 13.879550518439094 4.473370771162168 8.479935562284119
K 4.5447441054805955 15.007309241975184 9.092889782371941
K 9.775440313057363 10.350825122776717 8.803690411158888
K 9.049850322505481 14.315741380668516 10.056480927369282
K 6.243861630116474 0.5748388116256519 9.051003978780573
K 13.272007027525863 11.722638260209191 10.762864478198248
K 16.050494836690923 7.848784500471435 11.069786383592373
K 13.763655149771083 4.523527904925869 13.38590457284531
K 5.738857138161449 11.02628997979151 10.191020877760682
K 5.202522258924443 3.8818176026329927 12.24730655485475
K 11.854705645610133 7.419378212253309 11.079018257809429
K 2.921602737026494 7.398701280425155 9.804433832245772
K 7.502874361212996 7.126000923853772 10.84135975120282
K 9.8696329941663 3.2647332719793445 10.772794483548031
K 1.897119976392049 11.843777549349015 11.550745534307655
K 8.972268997978688 10.181429099494949 13.356020792522852
K 10.884009313713392 13.642935952873797 14.172185124223244
K 5.931026714488859 13.610072209912168 13.566228325318626
K 13.186229397439117 9.121124545694318 14.706841150856944
K 4.745439105830991 8.682537851194294 13.857614891596176
K 9.38460797141381 5.843882833925811 14.544294524253317
