40
Energy = -32.34256123 eV
K 7.623778134490561 9.011608209767996 17.28575194413575
K 10.619363381027101 6.760494111730299 2.387716850381498
K 11.143312262987228 11.494653646647798 2.4243761685683443
K 6.307687308363176 5.4324082337896105 2.3557083458989645
K 3.7985388707454617 9.547051028110701 2.6739714610336205
K 7.0456768511763626 13.038149588532264 2.382428440639765
K 13.571791419157146 4.490764327847159 6.099050929877481
K 7.617871969301686 9.121265839535157 4.375508920281983
K 14.022067270861637 8.699590467854312 4.313729655347163
K 2.382511561442983 5.481123414647041 4.277971436986499
K 6.061765667003747 5.603809671509806 6.9897830124062885
K 9.861670829152315 15.04774505252224 5.583976637357366
K 9.308878308808309 3.081238935078379 4.670174652978631
K 2.9375622631252236 8.945790804166428 7.127546816783715
K 10.400831302042983 6.8690368486601185 6.983366421795037
K 5.3982909107263195 1.522223040348251 6.360767173914519
K 5.767660163073642 12.88757555446878 6.523053471004377
K 14.340236723255002 13.008564250346586 5.554155852281868
K 10.70089287182193 11.172123127083939 6.7285599974420585
K 14.7818053304472 8.991622551274189 8.414580814965763
K 2.094617093631312 4.354872212936034 8.433920249006365
K 7.046874661234733 9.498228440340608 8.701945477821768
K 13.019746424926513 13.259364535245899 9.927086723457277
K 9.76093244283993 2.32340867212022 8.788902796738832
K 8.503932377604421 13.479622897668854 10.241497262258314
K 4.080784759698605 11.879666487064743 10.887336795449416
K 10.980835025503383 9.575636068565313 10.693842193406224
K 12.854972681349555 5.458045198172847 10.79628557047417
K 4.016733497296523 7.252690346500381 11.232796790003972
K 8.345162031674391 6.074456018086959 10.928681016496189
K 5.603166213672567 2.8692891984063573 10.874857481555548
K 14.524415203848594 9.70451712178946 12.893701199276519
K 7.374660707814943 9.813096595724819 13.044321606684942
K 6.495038533983553 13.629585930823989 14.605842020640434
K 10.898248666389653 12.24871570464477 14.176334849970418
K 9.601019471856315 2.8931338115288305 13.32575003265476
K 10.783299264463794 7.435640130355673 14.726525986065713
K 3.699116960905581 9.875326585656323 15.101171806659327
K 6.339193673657143 5.955254951918257 14.890794103862042
K 7.971241523840349 9.898795003731436 17.28575194413575
