40
Energy = -27.89559968 eV
K 15.188978930403481 4.5286805704956095 6.9884777450454285
K 3.9355341914796265 11.752543142731641 14.009350016946692
K 3.3075623377204213 9.91187368483389 2.5263943514179568
K 7.8993405584538685 5.541965772101255 6.237282853720975
K 7.983185255091506 12.741722598324673 7.744072153627413
K 8.243802215214757 11.856579890452071 12.381051632946528
K 11.230363376271782 14.651056920078343 10.338893022498333
K 12.76486010954647 11.55251420035115 13.50464758482884
K 12.355490075404719 9.656585021758525 2.0890918083559407
K 11.691370075217316 10.552225954232348 9.446310200691745
K 11.6119373860628 6.377514566054188 8.370694842690584
K 15.003862979570004 7.976303185206642 10.733493681222157
K 8.304098155730436 4.984746524546497 15.23814103926263
K 12.27527334757139 12.96685929991195 5.820128881874203
K 0.7500223549330687 12.457642987848526 10.942023767733652
K 10.578231391542266 2.2887597497843077 7.103073117510525
K 8.206356761541004 4.194427986089806 10.728476808514975
K 11.761054575796216 5.480750817049437 3.843930010111752
K 7.787028540009733 2.7008587907926445 3.209368687146413
K 5.149468003498948 14.689147382675971 10.703558969608727
K 5.639295192083205 2.1700894521666036 7.372309011339342
K 5.880395810785688 7.844791781325061 13.168677960270573
K 4.396880234413831 10.578016267733021 9.852429721619123
K 7.993849165841227 8.466959743313362 9.485573637506338
K 4.159762524197764 6.120924197504292 8.830620990620638
K 10.040224185479675 9.282165780004137 5.550281434083737
K 15.341399205593847 12.55833527902238 9.535870003751306
K 1.4640661409006739 8.156391415411939 11.878373823624935
K 14.563519399068264 9.02348319635973 6.158524005908807
K 3.6242709902662447 12.945665660539483 6.1745248830146044
K 7.781468235531437 7.377330700461316 2.176489320816725
K 1.3627147053226845 9.019985286677407 6.850702956731594
K 8.725916303246107 9.624242340314959 16.130653635964944
K 4.051041717567221 3.913592752670956 12.520205356820155
K 7.608718541749851 11.944941295201904 3.1614599448989744
K 10.821605933292954 7.57761546781991 12.801787761430832
K 5.645738670074802 9.174110605832348 5.870348837409918
K 3.9600082308341364 5.4833162833767375 4.217978885926909
K 16.160803179788815 6.2383813649825015 3.0690754587191686
K 12.82926295221406 3.7156640232749534 11.314413133098018
