40
Energy = -32.85064673 eV
K 4.914052763008191 14.009022808427979 14.056116346505942
K 4.650568865762784 4.6605410994148615 13.481647577459292
K 13.198284248734165 9.447245109852116 14.16166528867764
K 15.0313410118352 11.761795145434066 6.4237125209427415
K 4.425081265746238 9.257424194282175 14.631628373837767
K 8.24864601886222 9.64588034138237 4.594677872785334
K 10.573862342334527 13.531970939089263 5.832601893506395
K 13.445622442187856 4.927840964314345 12.666048993673208
K 12.630021253129456 1.0835674982054322 9.773963143649851
K 6.537992823971622 7.534763928451236 11.2400734772214
K 12.104282450871915 10.338283960417012 2.595127610417613
K 7.793405867875552 14.882266963643126 10.249213760680636
K 1.0154557868839138 11.992233439518422 12.542690104163709
K 5.994184586201663 5.537363638961289 3.929047947815494
K 2.8865938853295687 15.228117170188225 10.05236265952518
K 10.875025926341534 7.997872335921995 11.079422326221783
K 1.5995620450185182 6.793368505584728 5.83356582287485
K 8.920081143739282 3.6326393037976117 11.12985701776278
K 8.654063556715506 11.273819449143174 13.385446884037435
K 7.95060955127838 12.782532077004783 1.931302824285375
K 11.974306983131331 9.1548648764988 6.816883257106094
K 13.980204560805008 2.161513042868422 5.546392783997366
K 8.43105871040209 6.3229687495490134 7.485163065015112
K 12.391459587184501 5.017670279977089 8.2448424339919
K 9.284200275918915 2.234358588343154 6.492531530458537
K 4.866347565869186 8.758024479429542 7.188857430834944
K 4.170792300857559 9.970134976091243 3.024231895287533
K 15.325242706117692 6.827443028096413 5.42475140988471
K 4.803214481461523 11.474770526918572 10.674947815196372
K 8.062602580414817 8.3002832199692 0.7283424116761132
K 12.508420091530063 12.287279495186803 10.301525150245592
K 8.92851632143854 6.779504471214576 14.834126136268123
K 2.1246322863113454 7.561995542073167 10.707808846621875
K 5.637766072000043 13.216083249404617 6.182075884668749
K 15.213335951715969 8.471514147927575 9.974630206438004
K 16.38916228251587 3.8678559565391426 8.975045852685504
K 4.636187159908094 4.308295342549466 8.562103582015045
K 10.891955482803375 5.817455740407276 3.686584755792531
K 8.575029238404428 10.950805064061473 8.800446071932813
K 1.4341011785037603 11.275904002983873 7.83581068696244
