41
Energy = -34.13999302
K 6.007702067237895 6.686130773550055 5.6207396938267635
K 5.994203181185479 10.503508589348304 5.775900620491175
K 9.95140737007975 8.427469836905335 6.995087349575309
K 6.019939905928829 8.203079212027022 9.388752040715447
K 6.014986624943962 10.00786843339561 12.923245624172035
K 2.07636014642348 8.416165582575145 7.026079846429355
K 5.966506529274472 14.528362173207444 6.050273526203447
K 3.6019729002352014 8.49132324973545 2.4093912181830106
K 8.40870504491719 8.496736682489265 2.408620719470755
K 8.168062529106429 4.636355763807751 8.69552409153524
K 10.150965384513817 2.6985214569718 11.622589664964911
K 3.852356286326053 4.636483800335824 8.710997237642204
K 1.8785995036191148 2.701542810773431 11.646511533825645
K 2.515130863689486 4.666064183681594 4.688677341727265
K 15.208083707285306 2.610000793848765 3.6685122393819793
K 5.993799715709812 4.615911586555601 2.162658874932417
K 5.978316141742888 2.4736018518445952 14.84526121503707
K 9.480651679966437 4.652898344041177 4.6715887774463205
K 12.814841685925174 2.576187939290266 3.6319251783200093
K 5.992994795595647 2.4134848666677526 5.839730694713537
K 5.98301266149092 14.52836217320744 5.77828348140623
K 8.267062457748485 11.929992815190051 9.267526038690253
K 9.71430382975222 12.176515346672877 4.652976194193355
K 3.729091030524327 11.912990197819724 9.276693272054596
K 2.2438251496122166 12.131700256666223 4.649470349427146
K 5.987129546077202 12.29085519712072 1.972601862450455
K 9.80503547392252 7.455040008805139 11.427749475678805
K 12.569670194631913 7.202518246587017 3.6549541086288806
K 12.405644984439514 4.692768390051982 7.907573676511157
K 2.23218866007692 7.459967491966621 11.451730724631723
K 6.020596634229368 4.8833496977188355 12.558776337729928
K 15.485887050840148 7.24916372338005 3.6832746051844443
K 15.652126951036463 4.714065843800634 7.945846947634324
K 5.98879651466777 7.070516238495727 14.895350991806538
K 1.977790580806727 4.678958720880413 0.3950723667450626
K 9.997589196765594 4.66687263401866 0.3804434306677023
K 6.008452041940111 0.9970615581281407 10.027588991271129
K 9.945126304798967 0.8937412406686082 7.115034969346374
K 2.0384543419912555 0.9112818518847581 7.13046511211126
K 3.5066791504098833 0.8740379858354924 2.5589233644925127
K 8.46763381094631 0.8625292096551342 2.5504309057556815
