41
Energy = -33.92606417 eV
K 12.87126281980154 11.409950184440536 1.2668192284717545
K 11.391034493051064 6.905156655932401 1.6622605192078292
K 6.306417366029611 6.225361098025786 2.0106934791697944
K 3.1492840113230676 10.032556309793957 2.6898439541578743
K 8.118249722010695 10.345768986162923 2.7500830296862744
K 15.76856869874307 8.36422478968097 3.0561833229256465
K 9.648145352263038 2.892450213109847 3.2712551169807065
K 1.7670302027130254 6.112779236707395 4.495305344025816
K 10.390178176076288 13.9533961802687 4.879268910374107
K 15.293520673263014 12.555792404410353 4.996091005117864
K 12.13919613332968 9.598633876000868 5.143923141895717
K 9.10337854503132 6.44080470000461 5.622400388112129
K 5.2303099562133655 13.038710157380486 5.637548177467544
K 5.290951693080051 8.186954289896626 5.969075982326281
K 13.452934386668781 5.042955841358808 5.64227703738389
K 5.582885186851445 3.5616839520563213 5.682795135522118
K 1.493821242263106 10.193872816135983 7.1306483441552775
K 8.63578780806728 10.670005652233906 7.195442017946398
K 15.640949014598135 8.736632441389897 7.818541458096015
K 9.976798818809808 2.7394798369967863 8.033382431455411
K 7.848715356392674 14.53986488826329 9.275658531946414
K 12.539087432589312 12.526242111610195 8.738605276975825
K 2.9313022333280196 5.822068982869213 8.954285918085668
K 5.244566580511296 10.210699296268896 9.790139513296195
K 5.680727833411449 1.8223797032614284 9.664839056294614
K 7.42157861241617 6.210500822597429 9.961437532770706
K 11.560758949807044 7.593403507992968 9.092791058242684
K 13.55865765987791 4.216313061252402 10.691938716631286
K 3.118354434149896 13.913511826684802 9.819837007119736
K 2.3348941594021952 8.883563271598295 12.516409690334504
K 9.338192086530542 10.523965632604524 11.400262696049023
K 9.21242732887447 2.7454904347379805 12.56322611413092
K 10.998952219304467 14.218521762624222 12.893567303871604
K 6.196216215375861 13.090230352324314 13.40769054294807
K 6.477106541200437 8.5574017142856 13.986531673509454
K 10.791690316755522 6.706772029129221 13.59453010581752
K 4.665847443008234 4.581985446411679 13.163877802564881
K 13.63299527383416 9.998803420768745 12.391790297154316
K 9.980326203249467 10.715621588072807 15.777979423594806
K 3.447943399751603 6.885625457463912 16.85761242243795
K 7.781442814803406 5.2423524619533595 16.515638686507312
