41
Energy = -28.71397005 eV
K 7.313866903296014 7.704463233564623 0.8817618921550728
K 10.594753757055793 10.525724034021653 2.8638728790578214
K 5.916434561014315 11.949108521116754 2.2592822867008238
K 11.264610471551133 6.2146807387203555 4.024438981440155
K 7.5227726544035365 4.1626507110557 3.7059029367013028
K 3.1418314091673722 8.242834008559218 3.170548092913583
K 15.075375943030556 3.9486889847936437 6.003611558936762
K 14.70559579092612 8.611199487085887 5.818310772500152
K 3.8224645057355726 4.623543704551155 5.847345315067436
K 6.853161514855322 8.627084031980017 4.963411984128362
K 5.662651610699457 16.1244906021568 5.265371625015745
K 10.604885410003643 9.422272453916426 7.006902571457172
K 8.420956135358708 13.046166949135573 5.838868555393475
K 10.947732775797123 2.4469824100745146 6.635347720785822
K 12.996482108777782 13.069447648020155 6.567120389164939
K 3.835159050650064 12.05502233710303 6.349446634332765
K 12.347195439080748 5.976559409903459 8.652696254422866
K 16.535919437444477 6.232472850091644 9.609687213919148
K 3.0622457197698467 7.9605088087839695 8.258734792635773
K 6.883423916332336 1.5791179096416097 7.7225738933554045
K 10.054906055030889 16.51770580239779 8.228831987894992
K 7.80776775249156 5.8378909709589495 8.024307374405087
K 13.825189627266834 2.4685704474661483 10.322874357309427
K 6.746398184039585 10.271024253379778 8.94114519061267
K 6.140449307673303 14.531672989504182 9.673432473360272
K 4.240972859132283 3.7866088541756318 10.422698531136431
K 14.121562140956753 10.109817533594503 10.071835667660455
K 10.222555469357486 12.570811490969378 9.979237255394859
K 13.721658063194143 14.69039093580313 10.90515026913478
K 3.307715264951222 11.033117748133275 11.49920076036373
K 10.01430433490101 8.415228171992581 11.220892284418113
K 1.804497434274628 6.711245166182783 12.716573725723705
K 5.967243301332286 7.359524224127321 11.911676850777075
K 9.24238911902462 3.8662619850263718 11.693751854612275
K 9.622663696343496 15.594177159237042 12.837597788811621
K 7.383643342142749 11.55020664241591 13.373333013051965
K 13.287990605310856 6.392928790606193 13.056100379713781
K 11.932196089513146 11.286877057564338 13.917776861705697
K 5.406247155634511 4.320861435424619 14.812712534046813
K 4.5338891808082264 8.793847933404859 15.664178177845276
K 9.04258122838599 7.302550900074889 15.215795638651365
