41
Energy = -28.56603466 eV
K 6.734564002348525 7.616213401869018 0.0028628823740896917
K 7.261943266737279 11.601996021744233 1.8709998454571384
K 11.51932230813371 9.37855575701778 2.1869510799237064
K 3.4983863545887592 9.66201643196791 3.3954771318854036
K 9.191988797579581 4.346863187824583 2.3062850044279317
K 4.326325532682546 5.134522074804332 3.312958521726398
K 7.779935109389832 8.01035204268256 4.11172178204173
K 11.637193439829543 6.108237467039573 5.68402764031143
K 10.92174938153219 10.82367302463634 6.148715407730949
K 6.535297175129003 11.8587400809517 6.42391668480566
K 15.044528656067824 8.881862282009918 6.14964385185547
K 8.516283432089013 7.965190051043298 8.181229552627261
K 10.403244603523632 14.08990052987406 3.353878214448793
K 0.5387643796909397 7.097793602678546 5.82399241154538
K 7.420567230847823 3.9632763279639147 6.4257766289679425
K 11.367920829218649 1.6951914465664326 6.921796484788251
K 2.2284810322585797 11.224542735284599 7.925025807807444
K 3.0555307117415094 3.496903693727797 7.611512199128815
K 9.327287488768619 11.643891071744942 10.162355419856548
K 14.34733250607105 12.991751617946223 4.629265466350762
K 4.522815893618817 7.522997336239044 7.009259102035291
K 9.667913187915097 15.090120474138113 7.680597438603299
K 10.311869235862941 4.644423999193551 9.853989638402114
K 13.408012714250383 12.938043193888204 9.276853399143498
K 14.564344130778347 4.575777494848007 8.924314760508752
K 12.659804296537482 8.529739926104167 9.779838223373586
K 1.776155979431634 7.394386095765529 10.49243041287277
K 7.771856232342553 1.1620747380526997 9.94229729516564
K 5.729619498372929 14.174881425516874 10.430114179392683
K 11.98970893066107 10.913522044218285 13.611300803572723
K 5.811902808145934 5.182570009704121 10.659043806230219
K 5.428051808438542 9.815099353688867 10.55197666161847
K 2.5652957530444627 11.541705976467016 13.00860489504219
K 8.94646486942045 7.9161853904659765 12.41322750484459
K 10.206559010284424 15.134961096711482 12.28099486160804
K 12.753173473562525 5.82774151203798 13.422171801736619
K 12.27427464253335 1.4025720616558413 11.536721783093713
K 5.015735174846897 7.6761590692197865 14.424789697107983
K 8.63106477561352 3.796724559790496 13.899459788222744
K 7.242242137886202 11.773093492390942 14.185800688440802
K 9.569833770360368 7.899092462662529 16.49116580306156
