41
Energy = -33.81525231 eV
K 6.674496117847918 11.67674750781749 17.62120131228624
K 5.340759033289535 12.319290279029886 3.363977919144609
K 4.3077452423552165 8.049767896858622 1.1229403801333129
K 12.563410731928403 5.44477483729812 2.1367322962461035
K 9.692618926969589 13.534235605455608 2.221883920032302
K 9.156397035909503 8.862509905475868 1.506880538801555
K 7.735565933853994 4.609088168007652 2.542959921875151
K 10.3351119291656 6.953090505018402 5.419490751780427
K 13.195669611827597 10.027893913902453 3.88386489110222
K 11.254054579911662 2.5640821068735002 5.804725771648301
K 1.860828114820231 9.46670572862285 5.131994911852062
K 4.867349524205671 11.766309366266352 7.818013183380629
K 7.689284682541625 15.332521760602466 6.9073278041497375
K 12.238204820603903 14.140362770482325 7.294843743869394
K 7.026710512024604 4.131098971835385 7.037396592695334
K 6.068648211267579 8.145776460881473 4.971931248643869
K 13.755358461625164 2.370205428476118 9.853081463341638
K 9.176012954278814 11.22774363342534 5.6820202263876824
K 14.599623498674834 5.833219911422701 6.568051179907406
K 3.1407310576766236 4.880116964564707 4.765428194192327
K 3.4881054456621112 7.161392577462203 8.77444553905939
K 7.818194328123314 8.51617621509963 8.821161556961405
K 12.70913699452241 9.694640377209975 8.460008203275297
K 3.949822756971733 2.781745739043434 10.06753607418795
K 10.920859781522806 5.5127207424617515 9.369473887376984
K 1.738143579902098 10.808376500741906 10.758732399202161
K 8.938878697028368 1.5261159516237162 10.25660373804198
K 9.067567218715642 12.252427466360615 9.97968548057976
K 5.513213449821959 14.547748650527927 11.33908959740029
K 9.981126743316327 16.281229694544972 11.052107285404302
K 7.078093996966497 5.5633046585801 11.51908551103386
K 5.749625475808331 10.075234988881883 12.498191921832905
K 14.55621249378798 6.784672284759701 11.429811209315544
K 3.0735804964754116 6.367185253067442 13.27457129217595
K 13.002532465077202 12.702995001150066 11.874374745734062
K 10.527322697272416 8.805932223443984 12.696020807146903
K 6.038924678293436 2.518128179994044 14.242171231945138
K 10.910058543278796 4.140936069456953 13.633400748689777
K 8.942517102695836 12.93741100170751 14.307624981708502
K 7.278070657900856 7.0890407959586526 15.607495116262266
K 8.79827160229673 3.355884091823812 17.62120131228624
