41
Energy = -30.31748117 eV
K 10.0779901764255 9.696269705427218 3.1376146853263416
K 6.50822327174659 7.4960540502945285 0.8265542691915736
K 14.83171841795729 9.262257535015443 4.076700862197944
K 6.254276987438415 3.041798983615252 2.2992912372231764
K 10.415569625763336 5.1458154726311545 1.772187666409256
K 5.399254029907086 10.425973912271518 4.363424749479507
K 3.1672396364890556 6.265792724837501 4.0901092204389355
K 12.338970175383855 10.653039369678122 7.25107679124035
K 8.569945441607436 9.137156813401491 7.252840967421375
K 12.856953552216156 13.412846027682917 4.262473915444347
K 4.8610527554176395 7.2811866044931 7.9823943410491065
K 7.541063249467215 6.13760317020165 4.687007156939164
K 9.619264520454154 2.25190021297957 5.708054761024154
K 8.509720734333326 13.420951110365698 6.10225675818396
K 3.8965744064465397 14.452621792810588 6.511325205973213
K 16.119146921963292 12.37728266588235 7.4510658573433854
K 5.160542730187362 2.932257144666761 6.997914652461916
K 11.959779808619421 6.244322153808346 5.967698130095447
K 5.458115629748699 11.458939648109363 8.973169005020898
K 1.6834696488147307 10.239547327561446 7.303536596179285
K 9.522815328231095 11.800374077951137 10.442840714116658
K 8.58402309468955 5.016283592482375 8.835502342005492
K 15.496506810520287 7.778017224734832 8.662288576199959
K 11.492706709465313 7.8175308921225595 10.32477592615409
K 1.260152703206927 5.455601281888223 8.37142831090709
K 12.66569111085743 3.6361994970178158 9.724854967332998
K 6.927140384861226 15.361383264053375 10.14488361025395
K 12.181888002692828 14.856361812952672 8.81415845219191
K 2.463282710566077 13.603750132947642 10.875401215758334
K 7.297224316465554 8.220899836908215 11.47530954410985
K 8.440399310401014 1.2979789700136604 10.725884165877533
K 4.986355713076505 4.4558965226968885 11.52741028082102
K 10.692713050748322 14.487154181002357 13.268062302662798
K 14.344242951204754 6.737158447236311 13.176942932354239
K 13.932407610585956 11.306123229914004 11.52350168140877
K 9.996227220591798 4.997732513921848 13.351553301323477
K 2.9735163810391754 8.909507031702669 11.793749562208886
K 6.073796341062431 11.913615300749893 13.485592830437026
K 10.403987303094238 9.60029489953305 14.316909384932694
K 7.09655860929552 2.5133733750212324 15.04496709727468
K 6.155885074089044 7.117539946548447 15.31367843015755
