41
Energy = -33.92067205 eV
K 7.81964338402182 11.1831648721312 0.724124296560172
K 12.428301211570153 10.378868395002769 1.134836108723328
K 9.291901482534326 6.711202734819277 1.268106780246518
K 10.343019612605538 14.1677301704879 3.5282456522593657
K 5.224328277072216 8.35215058830536 3.5056382706761755
K 9.721205069998373 10.025586443662364 4.4059983810081045
K 5.600922274746123 3.703842990938867 3.747536059760136
K 10.411251588972421 2.600429636844223 3.7393524294641343
K 13.223528664575785 6.734608228064244 4.269902964347274
K 5.9812317861172515 12.98286516347369 4.770678265521033
K 1.5123183474625232 5.598466037257832 5.267920966376885
K 14.011075059330258 11.162572378945233 5.599019987019763
K 8.875625684392446 6.005361196444436 5.6305074949589535
K 7.610852065928944 16.42100976882022 7.480996704674876
K 2.591810176203436 10.032147103831758 7.446738169635576
K 7.037498417458703 9.639050333919721 7.5043627120463015
K 10.349302759872344 13.020511897164992 7.821594607867321
K 4.875618206539765 5.964150835889753 7.745290502976258
K 11.529620410382018 8.546540940597808 8.19101376109089
K 2.972478663668793 2.1513773278214403 8.200599103130573
K 7.796882842340678 2.1759450158953793 7.768045767358181
K 12.25149277773405 4.061267677281133 8.193342105991281
K 5.586998951079035 13.024059409058896 9.459845671313241
K 15.57876177037987 7.445236202939625 8.930974249151445
K 4.6685935807478 8.641092638376781 11.536870256733325
K 5.97278181238414 0.016929377098743127 11.150615975984069
K 14.896791709840986 3.8909800956212086 11.92746381824853
K 13.418283086763001 11.514177808044902 10.825323095490301
K 2.019345529596246 12.126626378928423 11.920026031680264
K 8.931360328281436 10.34257465804875 11.276478887839339
K 9.302189663584176 14.710663720522167 11.936814422674468
K 1.1102836203773037 6.319246411822292 10.019744183720347
K 8.363449574228328 5.994444002988866 10.104798702657458
K 9.863674218652111 2.622909690246145 12.285443456036553
K 4.851504990828969 4.123493167147388 12.121694938137743
K 15.552394658994178 8.431984433806806 13.581708905299957
K 11.84712603843801 6.903942943469686 12.471815450507979
K 4.848653956563533 16.000152582574394 12.314613668730551
K 6.316186676683049 11.952190354519079 14.361094754315308
K 11.169129921246615 10.795853334092001 14.902517503840096
K 7.828046435527423 7.110058340818585 14.513770223670987
