42
Energy = -34.90265822 eV
K 7.808052695788301 10.922075593336098 1.3331953429080223
K 11.405887369190596 8.96743177551293 3.370767838309913
K 3.800122403581584 9.60129349445363 3.727429143059641
K 7.184438241307799 2.1326101310320618 2.505695961574208
K 5.4595113993216575 13.938914208008653 3.485476294739348
K 7.425774535711025 6.742429199704439 3.162073100807985
K 3.544897125970491 4.602125007131795 4.398078665457702
K 10.58048956795672 13.43061686504757 4.179844112012092
K 12.166214016558033 10.46415113924199 7.599420288369778
K 14.276596050837439 6.909593715057094 6.476499885785909
K 7.715891728280045 10.782786426821739 5.81984469652652
K 5.338127202634029 16.279889393086787 6.053058276739375
K 9.828341733702475 0.03932573733951242 5.898356366194085
K 11.164222858323644 4.117006894760682 4.083874524123258
K 14.945986510735352 11.64094048020282 4.708852841271715
K 3.817912817134278 12.381412874732533 7.3742033119237815
K 5.501564156654321 7.357844982730431 7.140651945152622
K 7.465553319703195 3.546461618314727 6.433981363445589
K 7.6916410707875915 15.391387660053422 7.217644486116059
K 9.780050729093906 7.100284789944212 7.071850960827415
K 12.711841651597572 14.680631787226098 8.155550850339706
K 1.618597316502149 8.1120515012655 7.831350656653505
K 9.17178807600884 12.406732496536847 9.609062977788373
K 16.262463710116027 10.409201480491873 8.924682359653877
K 11.607286214882484 3.5585256157291227 8.713497930108105
K 7.873779291831184 0.9958604641634513 9.954373824458346
K 3.7630304289697367 3.485234371625357 8.938161561903415
K 14.194125467231933 7.040336703171017 11.1076920886665
K 7.376297063791863 5.410625660653556 10.413892366613025
K 10.174483746298348 8.455989213290906 11.12062683864664
K 1.744807907364299 11.285939259208854 11.174151512184904
K 5.971800807946227 9.79068110739627 10.583112099358972
K 5.565079410720166 14.050837637835947 11.379009429891518
K 9.956205259851032 16.279889393086787 11.216697584146688
K 12.976473780186584 11.785602879624495 11.9138871779655
K 10.56615735971916 4.3698912299796255 13.054711750538175
K 3.3490580091571838 6.824052390356382 12.08923489734689
K 5.824495030658333 3.0102444351252613 13.4745534328125
K 8.738086497163582 11.660568101172824 13.92173051669059
K 11.934703479349995 8.4359578212996 15.049587268661066
K 7.344737270625086 7.359028756613507 14.587020658584423
K 4.330306580216216 10.615140587444154 14.70349270510479
