42
Energy = -34.51289493 eV
K 6.101704433779281 9.034745567034339 0.5838058601997032
K 3.4501091327905957 11.206395803179932 3.8518272270695975
K 10.69745915044138 9.806443680250982 1.6722535169142698
K 8.543352505713258 5.392235355849361 2.455756796968364
K 7.546066124167751 13.424262162052147 2.4198651534468265
K 6.454016326592962 2.0587929339246505 5.36411608450284
K 4.248304821648476 6.118996740930089 3.8739563263921712
K 10.899638426629808 3.0848369157865556 6.515183087699473
K 11.286985577313418 7.589854873129382 5.3648518198042625
K 14.601096837654122 10.489473127288893 4.9946699874772404
K 7.31271780703276 9.497399817179787 4.491326091719667
K 4.007370453919342 8.762331666278593 7.6173484384711125
K 10.801079736111362 12.641639369522439 5.43218015417397
K 14.943951962534877 6.106472080426412 6.878696663260725
K 7.487053023562573 5.774591794238071 6.870863148323412
K 8.666685909018417 16.592930280369288 5.524318674399138
K 2.188327757977058 12.369878575030755 9.440531899881844
K 8.828325154479836 9.920695534820975 8.35441760739538
K 14.221093705399865 13.734009305742525 8.495894302445949
K 6.030340378374492 13.312096606542475 6.8480587671513335
K 12.929714488743555 9.79557590669622 9.121748785558303
K 3.5715312934173515 4.293156679855027 8.658878524792097
K 5.373196562154009 15.60987373576151 10.894517662151419
K 15.537848535668067 5.7826792076017375 11.068721765476988
K 15.264309925219939 10.045077197544074 12.732042972539425
K 9.516275750171909 14.195278390447355 9.630853933536736
K 10.961813013796512 6.049199833764821 9.887172277692768
K 17.146538988676145 9.72973432044141 8.651672333052213
K 6.020789171988701 11.261296343659337 11.09508666455342
K 7.604998283012009 2.44626004846826 9.952176803877975
K 6.6056485606470075 6.813888810456302 10.929687366213418
K 2.56826013864902 8.320394760707085 11.996325929146549
K 3.3046156539498086 12.664385200552118 14.01027739103429
K 12.371908672088166 13.41806379692458 12.713729017411934
K 10.106844151943205 9.633015621748017 12.75000522111793
K 11.951235021932712 2.417987495818172 11.654205121089024
K 12.7524132661228 6.460672209562519 14.21343643732961
K 7.946662934156326 13.459285252080306 14.181837174751141
K 4.425639441373979 3.904741011083952 13.268433432596048
K 8.719623892544124 4.844522154053589 14.110653086319054
K 6.040168339618637 8.727696504990346 14.918802554350947
K 8.301574707529857 0.546423346751303 13.847103956255436
