42
Energy = -34.70864838 eV
K 5.626451993767011 7.672786868285172 1.7507099995876971
K 8.323462402737066 11.755636984104878 2.036560026891667
K 3.789481101726633 12.375860613887319 2.3862287754847205
K 8.787225235320015 3.4291919059101414 3.0359588417637267
K 9.679899353636234 7.755856538104769 3.892175904330665
K 13.188474443709922 10.580363692370982 3.6822640612496405
K 10.983457651172142 15.090981720864587 3.8737323274407625
K 1.9617795398477433 8.297749837982233 5.178411974200452
K 5.6541951078106685 5.607842306396139 5.61398318031634
K 5.954625268557879 10.179421649402531 5.302556583864881
K 6.460647568826726 14.511402729240725 5.31142794843125
K 13.169361976832594 4.876338258108227 4.324726929440132
K 6.79720242274972 1.4652192732993121 6.842934984559838
K 10.010076571453476 11.687315876349544 6.369627992852653
K 9.85334969212062 4.503330347926531 7.075976802477092
K 13.737604519736287 13.79058874815878 7.147668627385006
K 11.431558916431852 0.8130287502186206 6.010699649191114
K 2.6849815554194456 12.341344178168795 7.473106230875078
K 8.410345819767352 8.222057695024823 8.10125316786914
K 12.94503488822159 8.10000975476211 7.537887463388931
K 9.634706430892422 15.568815756590311 8.243926306277409
K 13.673751916484383 3.6560276663182805 9.110673994190604
K 6.32869490245731 4.578845293555543 10.019393059460102
K 9.71965939911485 1.6870026293861273 10.565685057583417
K 4.2854754704024325 8.508175939781564 8.943756634680236
K 2.223177040695869 4.748666373943913 8.491139355230956
K 6.827352255634337 12.359371373541347 9.494312221458962
K 10.478994561689149 5.999403925389195 11.102720083390448
K 15.335270090154232 11.087115248867727 10.225384750286667
K 11.015325754591748 10.600469434169176 10.664589535639244
K 3.600036553455993 11.211910390038566 12.450324808076822
K 7.170684782519816 8.624909217438631 12.159081674330992
K 0.25570243699785095 8.962221677129431 9.829370579071997
K 12.509471070878899 14.608587328807912 11.431550476315754
K 14.334348127600611 7.368741838830641 12.190797174070068
K 7.528156243967791 4.61919001640846 14.221558801330449
K 3.2280269159419355 6.618266189117359 12.79971897173093
K 12.473123319324287 3.8484612047930855 14.206932494822249
K 8.544383888744145 12.414859360520541 13.843784732202808
K 10.492857427052272 8.01195168024039 15.083891042106837
K 13.439849337467512 11.403716121899821 14.270619178434286
K 5.8656874248640705 8.870914985441935 16.11684897848415
