42
Energy = -34.68632109 eV
K 12.893884454084088 12.100116130422125 1.2376503060649318
K 9.96567782841008 7.819223058354975 1.372848290056449
K 8.21087203246108 12.390545682381081 1.7971022333015407
K 11.6639555140677 3.4602668386511652 2.9631667595878333
K 14.00926569529404 7.790452954988096 3.601244315266507
K 7.0276005674466235 4.293442193013849 3.6614270031641944
K 6.62662922274112 8.946124316382209 4.311108069565868
K 10.818216251831805 14.997042983498698 4.697202935384692
K 10.854452242607108 10.731925557265406 4.687993637520423
K 2.844922438851685 11.516138180873728 5.156421168001912
K 10.424777669045035 6.474965290373861 5.527528324739257
K 14.790436608101391 12.275053194976751 5.208535384739998
K 2.915718997886637 6.78560774972918 5.732080680863786
K 13.85037956059828 4.301513988973869 7.262758780393531
K 9.571397416248187 2.3567917982566944 7.192423702676208
K 7.146897088771996 13.156254177837374 6.339018926832456
K 4.319161508785531 2.4513409012369403 7.7892310129866456
K 6.767780415518772 5.90435344618312 7.68255194412328
K 13.57272974469491 8.848440702612871 8.068158416461218
K 9.083173534392968 9.631948294303077 8.163358259840834
K 11.70826850537655 13.08309915340808 8.766049446935142
K 0.697447837867786 9.862953293840906 9.078606630460586
K 4.889086260033847 9.837085155304823 8.41709226053855
K 10.65362905001428 5.873062636145349 9.799032770206697
K 8.546174151634226 16.20079095367024 9.260456558758873
K 11.128731930611552 9.700676213002714 11.826561080469984
K 3.2026404957533776 6.221773073542224 10.165098536878935
K 3.663425668364816 13.854411105951424 9.234040866942339
K 15.007388524451398 11.343599580414054 11.63961119731824
K 2.588110601474884 2.6497338019111374 12.326950287501171
K 12.079493379151518 2.339390257792509 11.429053930240404
K 7.284573189062966 3.3112449401914197 11.333199339557675
K 14.310850540964482 6.602094469997183 12.05796329220081
K 7.181281622649512 7.883523535104586 11.590769052569764
K 0.5552800306260647 6.368814385836251 13.5038183913102
K 11.244421338948301 13.703066613395562 13.298743772874904
K 3.6092162052814025 10.219574878154022 12.687270708441353
K 7.461776823543362 12.439920989138793 11.215076045339407
K 12.985990297036814 9.761582779640541 15.540005742264498
K 4.900884310146243 6.03335807270814 14.543156792356644
K 10.266771490960855 5.91865855497743 14.232310244493938
K 8.220751470318879 10.104160631669714 15.14744541688048
