42
Energy = -34.81405054 eV
K 11.762751776697295 7.757033829432291 2.1852692522286294
K 8.211694368468798 11.302906377785028 1.8528144613289157
K 12.733385595328068 12.661050925717818 2.7325754060229843
K 9.851327883325267 3.351010834324186 3.6445120930175716
K 13.07732885042497 3.730626528644454 0.5655377604604888
K 3.149636836796555 8.824544129468315 3.3704747467026825
K 7.408825660658784 7.2559755962670325 3.857344183999301
K 14.47205557970574 4.3354584450098415 4.6390079109118165
K 3.9380752355353703 4.26116288295162 4.303210892096647
K 14.706391396871917 9.139990055071664 5.454186813397336
K 10.478221897840374 10.432036800352975 5.3836892514124415
K 5.477821631121444 14.610204643216164 8.937546957797949
K 11.318386980824132 6.253547811276612 6.412756014356926
K 5.994947308292754 11.3790952808129 5.722820689331813
K 0.32601065855196587 6.5294951715881515 6.4488490911854415
K 7.370142358623872 3.8714353326759405 7.37482201117996
K 4.302338902449624 7.313230697903649 7.239751454280476
K 11.611256426456448 2.048559264509656 8.125477470067128
K 9.221455632125435 14.698745784168166 5.321938814680204
K 1.8539973529292482 10.951534921747855 7.570119107138382
K 12.600847612896466 9.377928942893563 9.378265453118736
K 14.623734504921748 5.318719922846027 9.331081390246421
K 3.1068110333322125 3.481514037793178 8.881129399075148
K 13.105939772888936 13.469698141427953 7.435181896121063
K 8.199452893582151 8.18999181370556 8.148154768393326
K 5.318614525940022 10.393448808004122 10.21891889069704
K 9.15431122117423 12.285175860470064 9.030029673345354
K 10.011947058226896 16.254485013093735 9.863626957808659
K 8.032085248807224 1.9593321890015916 11.446382183647714
K 1.8429539539566602 7.749787075619114 10.902930652328743
K 12.979055817292608 7.5759069814518485 13.482559274891313
K 7.616620621285594 13.471251497621543 13.002412794387627
K 10.369408953050486 5.456932375877579 10.572308157451586
K 9.110682144644256 9.255331644974827 12.180144895753529
K 12.583534117218365 2.763282187500159 12.81922464353768
K 5.956111603158567 5.905809848938426 11.299860267451683
K 12.060133180206261 12.615015235189492 12.37629777346977
K 3.086691975232272 12.573850302881498 12.943614578088388
K 5.400773738743831 8.964493157733594 14.506920394680542
K 9.650883587892931 10.43953438505307 16.127369291115695
K 8.95879142821223 5.659214139990385 14.76999132216228
K 5.627258755107064 12.794347205809238 16.80358704143136
