42
Energy = -34.83017097 eV
K 8.893790889929639 2.41946274093268 2.941104533664794
K 9.221400480973571 6.907538072575529 1.841180243335967
K 3.5588135116034967 12.870228760554857 3.8452366788005894
K 5.888686590602154 9.82607212620035 1.4051664608107315
K 12.967776104322779 5.147241774229909 3.914637636811129
K 8.52488477653489 13.241137661900124 3.954175948991957
K 5.198308979425708 5.32118989432494 3.647906568861808
K 9.013034039600123 5.46529095974397 6.006064362815011
K 2.09213125426211 8.517901730757362 3.6829128775569875
K 2.214613386647079 10.388552597803331 7.695956935813201
K 9.306787253137088 12.311800314472482 8.233181453946356
K 11.425769700702054 1.7092550616738729 6.719242736731153
K 11.15131412399426 9.45621711988306 5.036453803485239
K 5.29267337867911 14.369558328954357 7.520654588225725
K 6.492856219060668 9.592025611603152 5.673022467757331
K 15.577544769478802 8.737131507736951 6.21839628017585
K 16.464218621947506 4.242221723795739 6.768334059331678
K 9.609824727595562 16.47606016596113 7.570291415213094
K 12.829916284371018 5.6053019671120765 8.550317782604049
K 13.223247275200656 13.472114153352571 6.412144027820186
K 6.09023646037584 2.1537333621293344 6.913172310154093
K 1.415913028724242 5.67585167136624 7.1270861863762764
K 5.315613850249904 6.376668536562954 8.376712924450636
K 9.306360532516555 8.078858740193908 9.204140251452795
K 16.661736218235244 12.110632160434687 9.639484597381879
K 12.882496373339277 10.087839243857056 9.466684575788694
K 5.876588601010786 10.640656132401283 10.165739461519237
K 8.946092341181114 3.5343821381618565 10.326311508470726
K 12.402214661585482 14.452938858808977 10.899134405708756
K 16.366251371229378 7.56267254140599 10.664841826678291
K 2.589036091826505 12.948790981722626 11.45901840861965
K 7.287503463153464 14.692734890276043 11.628165085667165
K 2.5025874032388593 8.007350653423103 11.79629258679291
K 4.428672005600909 3.5528649711037223 11.74738231990219
K 11.721280871358132 6.7576068648110414 12.900739962860344
K 7.029983484356555 7.139492167396535 12.541152436445797
K 9.745544227333548 11.06609212208773 12.87608937639058
K 14.308613038380036 10.773509364259668 13.474608366223132
K 5.329463302227368 10.777538611845138 14.64837255437643
K 8.160333484299757 3.6911178615310454 14.894194354965709
K 4.373915901447838 6.225955084508597 15.794420956254006
K 8.844232470926455 8.148672318809005 16.352136231431583
