42
Energy = -31.48110079 eV
K 11.126456555160287 5.883210532774129 1.0086288104601446
K 15.308842508846316 8.619107221091951 1.775861102184146
K 2.8457754202780885 12.438247547376418 4.019427909228168
K 7.820106616931741 6.272240918166272 4.2517341940102495
K 7.055296148573694 11.391828090588952 3.1523616629571958
K 11.052723249044494 2.8055368923193997 4.679648562925227
K 11.055242438687255 10.0930377640856 2.4608851129880875
K 3.8369691932513974 8.11274962120136 2.3960309344575554
K 12.700917885784387 6.927853604375965 4.859695904454557
K 14.060069905486035 11.18327552151295 5.617122897300684
K 2.500881738247305 12.210399139046718 8.75741704826518
K 6.495360778444048 13.674297526830335 7.162768017964796
K 0.7399983410255837 8.811432413326633 5.656323548547813
K 14.660350782360563 4.14822799130973 7.736640783753175
K 3.4153468251754364 5.08733486353193 6.079115084996761
K 9.411732668499102 9.514159095584734 6.767868865632707
K 10.538650332081176 13.718893633224582 5.660239637819603
K 10.50444228338859 5.335374098742972 8.12066430097632
K 7.2004832457755 2.4021230973127876 7.343157766791146
K 4.915119629340562 9.371876091542745 6.286756395630815
K 13.48520005083892 8.718962960477567 9.183797706529555
K 13.91798991735147 13.441794056116617 9.752240746722652
K 6.501275779577589 6.335753478262841 8.781298406209652
K 12.78802189021348 5.162464669007002 12.017948246023446
K 10.022131641884362 16.31445025383256 9.321289430081498
K 10.022164620459726 12.133226276616092 10.053830460403725
K 9.60975896665583 8.016046759839604 11.302661987179382
K 6.164094162149402 10.38831398096956 10.213422145651318
K 8.400608867078871 3.564506039926867 11.887355176575433
K 2.3868832858911904 7.688492568312407 9.939087445248052
K 3.9485649874567974 3.4896774620752127 10.901970810685498
K 11.446202907452756 1.2998188246782394 9.145790626618776
K 12.577206568960788 10.2004920382697 13.452184826383885
K 16.79442135851841 7.798978856087798 5.902402376930567
K 6.379138006896215 14.349781113410732 11.745913600827773
K 11.032099943884702 14.607378101975133 13.407967642914087
K 5.722059480367524 7.108992326601163 13.156846236313012
K 9.561388339508454 6.492287159608462 15.344909520094896
K 8.166400124448906 10.986655352961062 14.262764559395897
K 3.2225870500794254 10.70479175806864 13.330466238017442
K 5.476648949936569 3.496924202460155 15.300164129785852
K 1.7090147370619837 6.27763427955193 14.38196732311838
