42
Energy = -34.65232857 eV
K 3.7778868797980776 5.638733360708079 15.159871004150098
K 8.472352310141538 6.4857435400484675 0.6713982127195249
K 5.376329691299244 8.44882523859271 3.0945623053576394
K 6.401262612488124 12.754771067254735 5.004504315882316
K 14.434516634439063 6.096943189345637 4.680457843553505
K 8.083382631067296 11.383893578354932 1.0172823756971665
K 5.745404509096338 3.346971718788025 3.132952404576898
K 1.8201579103365866 5.856124209181112 4.201783396485565
K 12.491206397128172 3.049315903262349 8.081194013219683
K 10.997196685399873 9.226464538801569 3.5197498949667154
K 3.413522543564903 14.44135739117608 8.2435895512599
K 9.679528442932277 4.912112365439881 4.805946877078794
K 3.192012765683783 9.834898323227527 6.997633526435902
K 7.802615681586945 8.73475736019228 6.568189746794174
K 11.930360391013258 7.537454385820576 7.8152037836660755
K 8.168485421284135 15.583778270270338 8.400545200180282
K 5.277399988770993 5.545682141276399 6.864734147748246
K 2.873934636258367 2.1015638100339946 7.144196096610559
K 15.928751391310445 6.627089031500764 9.18420220168912
K 14.51954845105197 10.784064451987284 6.028236490805989
K 10.880414967411363 13.950260973884644 4.110537963425653
K 6.4897460508459845 11.699072999920162 9.59347476012561
K 13.813338535514578 10.578476920592804 10.62531661192062
K 7.548145167425472 1.4662904280946114 7.35764124435012
K 13.024412386389086 14.78804685306822 8.57163519599148
K 8.768431377997604 5.128684578800247 9.449489321457394
K 10.408408693572133 11.692586385757519 7.70135851074467
K 9.672347361522192 8.97343357266277 11.254000876163884
K 5.493193284463194 7.719147748649522 10.605346057688905
K 14.090543304483427 12.192166505832535 14.775554318231679
K 5.397204936999303 14.784130192865662 12.377636440778547
K 1.5499739442856357 6.164678141141949 9.491687222718
K 12.456985936970613 5.316333061317143 12.205911070982374
K 15.69816055842195 8.023516801960076 13.768607240265483
K 2.4986936034882095 10.909575067248651 11.58938855611458
K 4.9984686958556015 3.258858643591579 11.236092028444538
K 9.488102850983328 1.5708627696404915 11.756208739427855
K 11.299713374180463 8.805510613917374 15.159871004150098
K 6.4593435913622965 10.423363793472134 14.190945272201384
K 10.06320905385066 13.312425814026469 12.20198042430307
K 7.9356413834509425 5.684584449057637 14.075581462316062
K 3.2550213365187095 6.842806179880064 14.16165010165493
