42
Energy = -34.78400444 eV
K 11.907041789533162 8.720540792077735 3.665499867642793
K 8.297662980274243 5.919518599695306 2.0745334916664797
K 8.113293623488701 11.258604368959796 2.0468377074560267
K 12.33486715130693 13.449125039995188 2.951258396316297
K 12.597259519098339 3.9756010690301866 3.1755739444692384
K 3.4187688464584682 8.421923633452137 3.529500729596692
K 4.974871341468087 12.576866741685096 5.720344646968904
K 7.386636661548072 8.591539740544123 5.376465072876827
K 14.376773809996251 6.097790486350723 7.1983314871564374
K 10.935192144909058 8.69925903402611 8.130058340965132
K 8.307167527120988 15.664559787250354 4.037809252212968
K 9.897520913104936 5.0798490801994 6.1970687768478605
K 0.5747221345145186 10.660808214434297 6.570911679985072
K 11.988516002284733 15.740805926254614 7.046273313617937
K 5.196532847193008 4.374428869201776 5.7160584217228205
K 8.684080871014846 1.4832240207495866 4.261712861807347
K 9.697741899701509 12.21635286675898 6.127129068359662
K 3.9081800918799368 8.346049617608774 7.96951545162637
K 14.17905676238208 11.480387777518365 7.017456382782523
K 0.4913981468516247 6.1318803788192175 6.503429274501082
K 12.366657078689306 1.68314574271884 7.231660567718597
K 7.920099926428791 1.8873944212069327 8.999440680974951
K 7.387769156934282 15.25634402068015 8.688469573307524
K 0.634075513177164 8.337765912630251 10.87488750201862
K 7.409653747049459 6.204867407192627 9.376676732324404
K 7.156711654123034 10.854966715519256 9.39704221149788
K 11.506474090794287 4.64245088457795 10.69774275226932
K 11.095476418241404 12.886253605871612 10.531688369254622
K 3.47716547462945 4.283940125279691 10.117471715088312
K 13.98831164687166 8.848292046225612 11.043750220737458
K 15.56613113096494 5.1443679726398335 12.580389153435375
K 9.599119988198138 8.702536313174551 12.271646027602461
K 3.1677118588398927 12.342860192193907 10.311777287979206
K 7.746576801289863 4.608004950282264 13.458103846886198
K 4.961299915147883 8.052674624034971 12.417665689558886
K 7.231676475167841 12.708489447241094 13.295493606813695
K 11.996613298776897 6.654347681501377 15.267530146013103
K 15.287749820752286 12.758349926344 12.149109852367237
K 16.188736677038385 9.057334249536494 14.908080541084916
K 7.698136790730039 8.924980333191739 16.10466057433558
K 3.296988022182819 10.896381197299966 14.904732922553237
K 11.93229676219752 11.257853498399715 14.938929169953626
