42
Energy = -34.75865442 eV
K 11.613381135219715 6.49347653847383 1.1290969270502516
K 3.9982046063472234 11.986676999029994 1.8237039886998092
K 7.913116502758396 9.107370170557367 2.4207937553146563
K 7.585826041901744 4.622258775487109 2.9480274252741445
K 12.156532128646866 2.8783428311645674 3.974321934907443
K 14.965417663663695 6.492908498574281 4.334323899232014
K 3.5803269769404586 7.642995602950179 3.4831219738123576
K 12.242856682718433 10.429735212220002 3.403773923874295
K 8.195810844694794 13.457085203637423 3.681637508682056
K 1.0110306273677936 11.38036898940983 5.067805873738351
K 10.82723287757557 6.637502294288329 5.334340910457074
K 3.871410155917022 14.982288687032765 5.396697822049019
K 5.170405569165561 10.971079416201597 5.837493477089072
K 6.768121817619267 7.029657927120723 6.473461490154307
K 3.957049815736326 3.863266252220458 6.309310308934006
K 8.69368568367323 3.0025844690998293 7.071452431290794
K 12.01891080739733 13.6198919746367 7.064007251565914
K 9.33298124826137 10.3861456187869 6.699784387484162
K 13.14669602943629 4.332839465381715 8.300667656375566
K 13.566848236467472 9.378117811734047 7.6730458219208435
K 2.5882220249093293 7.971048499526433 8.195044520527789
K 3.050884342274919 12.477778843955686 9.328913737228204
K 5.273213417095179 1.0938286848930636 9.777764643973223
K 12.684342603407355 4.804045523432849 13.126754431594696
K 1.7779432631177556 4.112900483213383 10.520819864298945
K 10.689368004344203 15.648327275056062 10.959949356492798
K 5.95486733831967 5.290944911236278 10.169621952559954
K 15.15631742358192 7.8057648584270725 11.267434518015902
K 10.306464671464994 11.32194355899459 10.805190825969971
K 10.151852228165373 7.00567716509874 9.953057989076523
K 7.405398953493956 14.151051733762793 8.078598088567025
K 6.393824829332425 9.745322363571459 10.086372600124541
K 6.690325911960431 13.833683510011147 12.319126685210708
K 9.233340516571278 2.538480146631691 11.36551401078169
K 14.299681304033223 12.278657902265095 11.502071375319277
K 3.6899153735071173 7.793754330646623 12.881887915276396
K 4.801517786886738 3.1943865100671758 13.77094485409422
K 15.790258719012174 7.002519725249537 15.510128138602463
K 10.93247101256538 13.306575318952676 14.673907136953085
K 8.227383504064802 6.035228822804617 13.947691559076302
K 12.002646574516545 9.000457578196619 14.22635743786508
K 7.571677407737727 10.180792177870181 14.393742252356498
