43
Energy = -35.72858319 eV
K 8.506984124178459 7.111479754948493 17.592578756465866
K 12.90698517169662 6.407458282590607 0.34508621924059135
K 11.33562438795578 10.647912657954542 18.42479896779864
K 9.391514326135285 3.785505183830423 2.1779135743078477
K 6.9768699430992225 10.815546936651446 1.3349611622132571
K 9.927989600896067 8.036068917827379 2.877369186516941
K 14.05495318344001 9.594852870189241 3.570518044442001
K 5.659894342134228 6.359150879304612 2.8086289654696834
K 13.004525015335437 5.261547879418459 4.97094965457302
K 10.284002872959043 12.409744136408245 4.115279104030641
K 5.675507247761546 2.700133315367507 5.767404677677739
K 10.263838251845927 1.5793763283804323 6.1018620599147155
K 3.2948710335730715 10.157056162568493 3.9184203691215207
K 8.654742684118004 5.487858801761551 6.292850378294316
K 6.992369318581627 9.454151145986776 5.934811520609116
K 6.0251323435214 13.58592437161715 5.704641629121738
K 3.5725749772592024 6.7459174289716515 7.0273262378716375
K 11.196721482923316 8.920945519737671 6.88163409605021
K 14.791830726223472 8.200639973645655 8.532746984060893
K 9.677469802154102 16.04395893020436 6.85764220976143
K 13.536824217501453 12.774988126512135 7.412659505014541
K 9.48679536999562 12.286252428992578 8.719757080309266
K 3.3744503693263135 3.1676487768605988 9.871901837986295
K 2.8061735630387545 11.259021551911308 8.480978495194083
K 11.096126606868657 15.363865747016497 11.066431547112996
K 6.725610953251319 5.831453462571006 10.105367288378945
K 6.204125165620518 14.581486625469442 10.260995033995936
K 6.2379220892842415 10.112355683872252 10.203677135230935
K 13.06923498051297 11.333902457851211 11.810535157223756
K 11.730389142579561 4.501116586100222 9.384919763382142
K 10.125807833437875 8.351073587745182 11.07891649223659
K 7.864050194402032 1.8807941021167263 10.200626363818484
K 2.777645188350393 7.516196559671144 11.569389245651559
K 13.635438054653081 6.8355075671111525 12.930511200610816
K 8.685226197796345 12.203678252376884 13.38811488207555
K 6.73935576046675 8.101734003857246 13.953575568975463
K 3.9399728340521056 11.561612884998153 13.670119252392999
K 9.629203814534327 4.583685158919508 13.620310120796113
K 5.10326210737762 4.0897344788446945 13.966760096905693
K 10.625700503612535 8.774024072960023 15.787503345838406
K 3.238691096758246 7.791626195984555 16.32265093198274
K 6.685129544080747 10.595472171354034 17.388014281622695
K 7.3406154522956895 6.049691915126165 17.592578756465866
