43
Energy = -35.51201125 eV
K 8.169369850817397 5.028600734587604 12.07378582124129
K 14.56043163157358 6.0571735826781214 5.432606570417761
K 9.756469974786867 11.972620527618956 9.553691296286358
K 8.551857397549666 7.910109378659383 8.616415263423061
K 2.9373375589676325 14.21288132928079 8.096721981409639
K 9.2182422693499 13.66085857666602 2.442969477659693
K 14.304161341595837 13.929621790601253 14.338694510241957
K 10.35164897512704 2.0292846023232958 5.4280923031265225
K 14.114861847009822 9.356432979049707 14.604378642635897
K 5.724353109138557 0.6135489633734565 6.2064152651860125
K 9.33358850952273 7.859084464163785 15.58068401501794
K 10.149590785208215 6.471107372947778 4.630950330620886
K 1.885526407121737 9.508870441615484 6.916200042384503
K 7.1368352095389795 9.605635930262947 12.214157400652537
K 8.901175404737343 10.82943527884988 5.422243668171843
K 2.841770994176941 2.130349731131138 2.879459660996024
K 12.54956178589399 10.137358852324313 3.1153991795431275
K 6.416832461503709 14.059332575348591 11.66159567870855
K 2.9691166868687318 4.490228533173656 6.539033083981334
K 7.659745215724223 9.001437170606941 1.6862413472271558
K 2.991385066688238 6.7609613526234424 2.5306047736159765
K 10.272457562220989 12.154777202707487 14.017601099363084
K 11.340423321249217 8.398294739317194 11.644942118892617
K 2.925954378536107 10.98077643596072 11.805639971448217
K 14.15284176928416 11.807719642917114 10.486497459184733
K 12.408481221608335 9.13248503156555 7.425400623133058
K 5.7501336657140145 11.322949699564882 15.719199689822492
K 9.082858863623256 1.0947456956062809 9.910712047860612
K 12.619110405473482 4.827065155958999 13.452994665880748
K 16.192559889079433 10.374708243128714 6.286198940728986
K 5.738663842956111 7.828757938449966 5.496953341107361
K 5.634197142651228 11.109895878898714 8.380959133196606
K 11.401781096964216 15.487076753357655 11.002996113672644
K 4.638798374130702 6.9577242711643335 14.415838901013325
K 11.723850125610053 4.721216096654105 8.869200138762531
K 4.8802414237940335 12.182439740983844 4.134054504588218
K 6.71423334412299 4.123130651161985 3.173740229538529
K 4.3222300367566655 6.98732859355335 9.915804279397545
K 12.355285854151889 13.536158340642444 6.287352374455353
K 4.6269643724275715 2.5448839922865503 10.569976631904927
K 7.614011300977066 14.863235001909281 6.915807184609741
K 15.376746410656375 7.328758438990757 10.113653456992246
K 7.311019032530079 4.217644204752842 7.610842699317466
