43
Energy = -35.69542012 eV
K 8.305435935808568 12.180053514347051 4.248799264448017
K 7.766579047220437 8.89246224842683 0.9223244710842141
K 11.632470160818688 6.0030286835094 1.129362239484104
K 12.15979654045757 10.653999930958125 2.2046352150734956
K 2.946839255355038 7.461194117126587 2.023130107698294
K 3.5242479956590236 12.097751385690005 3.3333981435069417
K 7.15836663985537 4.534473540286282 2.7927678740163953
K 11.184890584144215 15.070731392498656 6.035635231615238
K 8.459056366419503 9.78340672251448 8.087805639020676
K 9.989824598373502 7.7746715054490485 4.600183257050771
K 14.328584607445531 6.98628606782229 5.063164941115534
K 5.68627610855188 8.419462888973367 4.932118268388075
K 6.018073882571791 15.647987020242994 6.2323373749601645
K 11.167146612852573 3.306037323941744 5.2435619643875615
K 1.323104494077615 9.058638045376204 6.266617333702545
K 3.2758068231049147 4.5400850930612275 6.028529831885727
K 1.3615939514844049 14.128735551841427 6.790227112625221
K 12.545499205356757 10.957564313677283 6.843703507676635
K 6.900579492244923 1.120782989939095 6.340803104838967
K 4.867660675725912 11.794794186413949 7.68105500815581
K 7.577216816579909 5.186625846687958 7.231425107771544
K 11.53773120807648 6.557572531895989 8.536831699046227
K 4.531656779891994 7.668098526242884 9.183967728843399
K 9.939433453542343 2.4411818360510327 9.991720208294364
K 14.674534268053884 3.86103479503196 9.523670463812644
K 4.990355720928946 3.1403502041245206 10.375671086891058
K 0.9279192473270662 5.701754774734794 10.17872963291938
K 15.096727443368719 8.745453003280529 10.051840564947925
K 8.717105385977192 13.961577314989531 9.606287834545245
K 8.026096576708388 6.567031448530978 11.341331200156397
K 1.6822264734872456 10.684709660371894 10.725572887885555
K 4.19475655435447 14.856896051618005 10.640168946622321
K 10.870806394511431 10.020893718527393 11.333491738367892
K 13.248228434182598 13.561566940692089 10.581721881633337
K 13.242026653110438 2.0169650965832933 13.443366563481142
K 6.239467250300551 10.89331779112969 12.163283281005707
K 12.04137972606328 6.061618241073543 13.034946079728112
K 4.226483109445384 6.723747199541802 13.573987812808275
K 16.297001465823 5.641287696269075 13.520246216378592
K 8.369235634231643 3.473734671694396 14.303027089887257
K 13.944673500241983 10.030816862165086 14.335666813998936
K 10.021524763551293 13.100630996566334 14.163640253125646
K 8.882250561410974 8.571658668798072 15.239915415810987
