43
Energy = -33.85429157 eV
K 4.78225385262457 4.9142955794394485 2.340104375406934
K 9.37527806813027 10.92378847153801 1.0947063003652553
K 10.548767081629224 14.444788395881757 3.4588652146013312
K 9.255768848485237 6.548649022672782 1.9975120866239153
K 13.055468922392189 3.9691344017101677 3.1253380468262546
K 8.456696338681356 2.6189725873401852 4.4097205853105
K 5.490038742615691 9.345444088899661 2.7323706381351838
K 6.25762609579782 13.51385663294621 3.891138353304262
K 13.14123564431081 8.76825352315431 3.6637769466195502
K 4.230722698554828 3.0609553631853204 6.81284911204948
K 12.72186217019369 13.629173775185604 7.337068859858066
K 2.2691193642932275 11.678457303829394 5.194293742797168
K 9.528489767039398 10.51338788682929 5.465895775227811
K 15.118334567162439 5.574026564344415 6.979791574379058
K 8.363698406359582 15.448319533584787 7.222880544356365
K 12.042360174989131 1.8747278730479673 7.334614883324472
K 10.967452109237835 5.946696712601106 6.172522663719118
K 5.823180595351078 10.750905821827303 7.601509416137458
K 3.929361521774573 14.580598088865859 7.99484372899129
K 6.781168100945804 6.581260962477237 5.694221253850836
K 2.4046099689403992 7.188629112982539 5.900686827436398
K 8.151594099165518 3.481640487648985 8.786466010098573
K 13.029059172027392 9.292487531476656 8.455246268787153
K 0.9233852223003941 5.256226525989677 9.915451892528248
K 8.855595561739648 7.94307398411384 9.196813422413223
K 4.896909750027592 6.65213225672022 9.574028761974699
K 9.599662500905911 12.084255438520346 9.803014580274926
K 10.953301113476183 16.053248049095007 10.990222477426261
K 6.634841927479753 14.642705118754025 11.460656299589147
K 2.094491651588913 10.012368160725254 9.842661671601288
K 12.038130822923799 5.11070839312878 10.548824775814888
K 4.6901213109655 2.797503984978677 11.504073598517135
K 13.599202197055794 12.386722977013397 12.055332435664207
K 15.03910365147528 7.842155739520265 12.403213438006967
K 9.846934023076999 1.763597445256688 12.397263297920231
K 6.313489426023376 10.134688251041187 12.2717751699006
K 10.873076273836004 8.997684802493684 12.675401877589687
K 7.856433173764467 5.683494246777415 12.948859390002974
K 3.286193057194028 6.98535768755576 13.504685218834446
K 9.845754309117048 12.98704600351366 14.397596696664117
K 11.877467666405163 5.5071953822857935 15.073566067634967
K 13.02042189247513 10.30378694732858 16.068868134800287
K 8.57443394478989 8.750694671042226 16.244363371959484
