43
Energy = -35.63064203 eV
K 9.200414074050627 6.236334215932104 17.657103135468518
K 8.038957232300714 2.2432926363897274 1.7821636707939787
K 12.391166502184257 3.866577640249361 1.8833644788256556
K 12.256445437431289 8.39192416306522 2.460109534972696
K 5.211027990683002 6.014234460291595 2.32856964799178
K 7.494602246980004 9.771980635941983 2.649893888867662
K 6.217607490540139 14.208797180807606 3.0403424119649256
K 9.132791252281026 5.677761311177964 4.150945405658727
K 10.794116332478959 12.708713013457833 3.8808460657140786
K 10.62243097747641 1.9453459637469253 5.7255073115207455
K 6.108821757869672 3.023713904180465 5.786759348831359
K 14.504695379470638 9.978960490223294 6.318540608425992
K 3.3515603944020405 10.640606749245357 4.984686786236469
K 13.169048793296756 5.533878154589621 6.454812409524022
K 2.241558576121047 5.713491411725637 5.6823092781487095
K 10.227320499267414 9.041622799487593 6.231580706953191
K 5.839412547206403 7.659008250234666 6.885823922261545
K 7.206899185695611 12.088605285256753 6.539514553756044
K 8.873975411956454 16.075979163002923 6.549562109141593
K 4.2843007452544075 15.102569542245703 7.026233477304502
K 8.909201909761016 5.457406884659089 8.858694890944042
K 16.270841218554494 6.891026554921765 9.648566220196532
K 15.246730509707065 11.510203915013543 10.69352284484872
K 11.95958341379021 15.876157057380537 11.075755049148006
K 12.407782698004471 4.142949379071262 11.057398471958113
K 4.1968919913979565 3.736964885893431 9.624180080986267
K 4.083878397172146 11.378694627068972 9.671449164142839
K 11.528374060598818 12.739551804845254 8.304739487105087
K 8.412277420997818 9.952614518082179 10.022305996502087
K 8.365795457785213 1.3233908730908144 9.587342730758442
K 5.564038938495704 7.343012411410424 11.493729062623348
K 7.745251420875004 14.278367701342175 10.529938524282203
K 12.362642123557752 8.384854126425099 9.9252035298311
K 1.6838936809335148 7.606524076548084 9.653449460429007
K 14.360393652574608 7.916003379568124 13.613677401338553
K 7.166486192217217 3.694732249372039 13.149246682665762
K 11.282341518717521 11.759908015977253 12.840391969402601
K 6.74152578376567 11.095394724266125 13.812756485506553
K 2.416783117846452 9.56468013072424 13.656933220793928
K 2.502565850041725 5.054951483397897 13.648648432701231
K 5.82486399475773 7.078705789368863 15.883505289412335
K 9.819429681741997 7.293768723877917 13.447641276855796
K 2.0286048460050528 8.044070422688787 17.657103135468518
