43
Energy = -30.59379617 eV
K 10.073696685942428 10.235794009826831 2.589111862177064
K 5.9870358022170524 6.664906207593993 1.7384018212757284
K 5.890625406833731 11.337260140463851 2.3878132144791113
K 8.40614790485903 14.863278465223267 4.078816073819912
K 14.577786190165597 9.186840027418892 2.9827746197289455
K 10.581823238120917 5.474591958763262 3.106631073275548
K 7.302998949151359 7.697005606618006 5.507965283651487
K 7.100098207589902 3.111682775354363 5.106424257598632
K 12.895421824366121 12.85895379879756 5.255371322133383
K 2.8443827266588575 9.104720499442251 4.284725000740846
K 3.75529447003512 13.120651374342856 5.754769896436064
K 8.344902911559029 11.738943758094042 6.782565188831365
K 11.792539736334946 8.635163970816787 6.105415529790342
K 11.448627150709244 1.4204824715825268 5.217786144459003
K 3.174444488990506 5.512379994345329 6.6484004148681075
K 10.848129048396677 15.373680839507744 8.39669151717355
K 14.509131305258848 5.2176645700603075 5.843669827533282
K 10.486049605723238 4.783633633498122 7.508333203060687
K 15.823400735828832 9.912039530761419 7.399370621756665
K 6.522865536495122 5.0346924580457975 9.185709564117452
K 15.167423958336997 14.318371715135338 9.115287484008652
K 12.06414163152129 11.37551849978433 9.489413833399055
K 0.87274463015335 9.861048444440684 8.461400025496747
K 2.646213471074357 5.883119147832228 11.25718196194611
K 6.502234555782452 15.572431801396577 8.161919766746712
K 8.649939280569647 1.2222664622538881 9.265809772717645
K 3.7702798869587446 1.81668593945166 9.322804782845894
K 4.982622783183762 9.4325989451541 8.761612069789848
K 9.225734172534825 8.348109383858635 9.511540956506357
K 13.569165434200567 6.990464449129645 10.089565818719066
K 13.279347706758 2.272134358167643 9.36990367487552
K 15.27712832520212 10.799970905796657 12.189488997361392
K 7.739568853079269 12.23279099814259 11.345140221424503
K 12.018217093131348 13.970711137469946 12.776987184285584
K 10.160136585737021 4.678558685662892 12.073114420922986
K 5.981878570637357 3.2205019961531494 13.180367871676445
K 6.591952154867413 7.706468166307331 12.634555335387047
K 2.9508146108634326 10.043923175082476 12.955125961061697
K 3.316299778079043 13.337551127218441 10.130861441157965
K 10.900744443041784 9.349130961114097 13.487082237492261
K 6.781372162381404 10.498997413379644 15.753681020284828
K 8.452055318343024 6.231026304542875 16.13432694172821
K 3.81444304076747 6.633114264409361 15.731942155699512
