43
Energy = -35.41244456 eV
K 6.991932618136125 6.018519380681765 0.843986683016683
K 10.625507930795376 5.279446824297115 3.353915263675758
K 6.8300261124612005 13.887872466845414 3.2210775801482074
K 4.622394530722255 9.723960839139535 2.2087346004255424
K 9.480662898359316 10.00874563238192 2.851218881945601
K 14.027172595630933 8.31964501813992 3.3235682788839314
K 2.6186194650701724 13.17413163266662 4.524646118640587
K 3.2914080352912385 5.22112653205245 3.2841531027565973
K 13.54578885337122 12.372025598754723 4.617369070751899
K 6.918295193943402 2.700272532834202 4.487202997458134
K 6.856252348874029 7.05927165374435 4.956774553242341
K 10.972428288522519 1.0665499873756548 5.986486259513748
K 13.857451040981115 4.841179146944545 6.490832616273541
K 5.698279449236084 15.293786236334215 7.408154942265384
K 9.710608155295915 12.956547122776467 6.735910326615837
K 15.642721792159447 9.493018368325274 7.426690788328979
K 6.009306593218493 10.995443847960551 6.245538334518655
K 11.17631404411442 8.757546344520232 6.72213695375021
K 9.547465969216539 4.7285748588784235 7.577338353799502
K 7.461102849520632 1.3401482498709598 9.233558349471805
K 2.425774352890903 8.662515641564095 6.145639605765828
K 7.210947807124278 7.943637816656241 9.117414717962635
K 3.181230967651872 8.333395339587359 10.627260356789668
K 13.667562050822047 13.243500552529774 8.994186343028321
K 6.371527597385001 11.960235257516864 10.355881949605319
K 2.2603546660410654 12.671596152696468 9.060129512550127
K 9.425514303047215 15.171140149556267 10.573758973842114
K 11.98596441474096 2.1477500321911935 10.23557060073833
K 4.970253524890172 15.733773478384652 11.798040665207402
K 4.415544544151019 4.69456848121233 7.806522056545398
K 10.485011110330277 10.482367341919279 10.696344124498319
K 9.341955153722152 5.438966148279861 11.852746835603869
K 8.828377327541993 1.4325720341324046 13.557859155008531
K 3.4062691753992143 11.84537997624881 13.568840282777467
K 13.05044008798791 6.6794152255605965 10.359932820908096
K 5.299957816459617 4.311853153670287 12.303537031669602
K 6.720398234373629 8.608482979410635 13.522952332439324
K 15.051103280078111 10.083679703662272 11.925353914398304
K 12.378752661679297 13.204122561944217 13.501184905269367
K 7.986211128626511 12.79233277367165 14.257526247645806
K 12.565256685968025 4.075163636851384 14.278760994665241
K 11.30372591302008 8.604844836774568 14.486720688939863
K 8.307939344030814 5.164705364338324 15.998352741541446
