43
Energy = -35.48665523 eV
K 11.372095325260743 10.570250306786669 1.4488918711556036
K 7.028086893724699 8.0644187405153 1.664452157886858
K 10.601546281596491 14.976118204828317 1.7991205244090656
K 12.242011169682932 5.985382780708782 2.553337937752472
K 2.7256849127444145 10.235388944752847 3.6181660625161243
K 7.3263140773271775 12.109089621664443 3.456595840544682
K 3.5850745081540487 5.405752133685594 3.6985019377579027
K 9.934988869986263 8.797152055999547 5.139374291269057
K 8.149655564724782 4.613297599133938 4.502359083657013
K 14.470241024050786 9.173842303192657 5.317340939360157
K 5.673128872170396 8.505678433905576 6.030831275750212
K 15.977208532634812 4.746874492951862 5.198486841357206
K 11.763520026424057 12.8868400181433 5.58054618528096
K 11.669428324076756 1.8468173433583406 4.656952364541989
K 8.224974196781206 15.950171152790872 5.615845811640407
K 6.758504514015448 0.5633385263454507 5.805466759037523
K 4.000231624176701 14.38730298600899 5.4174875222343974
K 12.403402777068958 5.405075705878319 7.2389135457445155
K 1.5807958642136977 7.24795250153323 7.702484947401703
K 7.798346733714789 11.656410053286367 8.301005540595533
K 4.922508713401176 4.015249622629207 7.9548126268364845
K 8.630019430808547 6.4082483767074665 8.571091314838181
K 3.083690556176133 11.595013509379745 8.657875858536816
K 10.96358602473964 15.28349643922458 9.130552411317172
K 6.110128107287641 15.269559343061335 9.747003904003602
K 5.57507972776585 0.6284799858086921 10.940722815281955
K 11.64915630877009 9.725677383766936 9.142165511864661
K 15.642972055292336 7.765673596076696 9.554624687414893
K 5.121371574679992 7.9698465846218935 10.36498559327057
K 14.68720518293554 12.54197492799681 9.90300665935703
K 12.018548780003098 5.427099927577711 11.70305115135912
K 2.7681599632924607 4.481397232323291 12.02899129936849
K 7.572845139220525 4.372303717296497 12.267567650975192
K 9.561614695986146 2.074920998439257 8.835768063842789
K 1.4619448702358189 8.880638450720587 12.289503665832825
K 8.83109290088235 8.77973734043358 12.302086634199592
K 9.903882096024741 13.049634253857912 12.593348890677877
K 5.427308166271868 11.752528827292437 12.780963623792465
K 13.028382401845072 9.55251464821963 13.504654122536502
K 5.208989581723634 2.5136032038877323 15.326605564854265
K 5.277941392236676 7.37109152083301 14.93892259475159
K 9.84437201978005 6.200375716577026 15.818743783849163
K 8.814602249096767 10.604422518782702 16.287432162330223
