43
Energy = -35.41735843 eV
K 2.069846999188171 8.066364054216955 5.502394505716567
K 10.061381786063203 3.9832297520445548 5.679807429314721
K 13.62928597356637 9.958682017955367 7.050433531377518
K 2.159297915274791 9.928805863907517 9.521601261776057
K 9.769186853331657 10.088788012174087 9.527315283817062
K 4.02136195199977 2.124877652412409 2.1881846411820387
K 9.914232921467017 15.632691127318152 5.789012136666011
K 14.053207522775113 5.999531569407812 4.76995456717022
K 13.62871718464887 2.0467448541481317 7.061236115843119
K 1.6636200939638404 5.9889472309694325 1.5859490938152423
K 15.498537128775581 9.96854372926318 2.6041693100476255
K 14.386086661914147 9.943970739942731 6.808852397382901
K 5.915291837524748 3.0011767196770984 11.411956480644859
K 2.245399203547307 12.261277284228592 5.788277788175127
K 8.294355377048701 2.130529028808788 2.1861241825637068
K 4.012667690818005 9.853352841476969 2.1604332562226425
K 14.053207522775113 5.9923454675668815 4.547288299541927
K 6.111708161538848 9.590284720178577 6.538709015278509
K 5.960953141273786 12.88739466752503 8.872303967194537
K 9.903742899308279 12.281377966117496 5.771609170158872
K 5.969469059468535 15.033269119829495 8.89605324192982
K 6.222928324558694 5.990239902901964 0.3052251993547805
K 4.256188778177514 6.008255904560716 8.501481654497567
K 15.626100667116615 6.00721639559873 8.684976972857733
K 14.389147421815649 2.057051636257122 6.8242191696565975
K 10.651897648697679 5.997554938647984 1.6957833486074234
K 10.064884508138187 8.021854208073668 5.6705667741103065
K 6.20638223288428 5.997415985261709 4.361673969436071
K 6.0652275999564 13.337111799000855 4.243351161525381
K 6.110456467308765 2.4117187698228277 6.555118084124709
K 5.914561468533443 9.024095419571996 11.400098811087437
K 6.074192432374288 14.57245218643036 4.27346825590338
K 8.299885343636635 6.007674823474989 9.280249123659216
K 12.67855734797104 2.0343703288421087 2.8324030554013704
K 15.50634297151233 2.010383527924366 2.6146419235086684
K 2.2532961517939865 15.6497824603543 5.822758957824687
K 2.4251587934491603 6.017805896575679 12.233910540877314
K 12.493320960217904 6.012725881981614 8.884655116408553
K 9.770081158710012 1.9246512132673523 9.534815735959706
K 2.069461174619927 3.9277915032571413 5.513016653101659
K 8.289367057737843 9.861694708375563 2.1708344592614304
K 2.156947189782013 2.0953594273481433 9.545159640412953
K 12.674827843171588 9.9614667276643 2.820957052820636
