43
Energy = -35.83640936 eV
K 5.486965733018227 9.220851981742596 17.191476424460394
K 9.159895324117402 11.440787301761116 1.907193823972106
K 5.123908684713349 13.621218411646792 2.1339215445219457
K 8.494860948818925 6.59864626129623 2.146705734970587
K 12.890037083098305 8.69155467558924 2.8986594868855247
K 4.309356694760821 5.133668388929432 2.9109242545113316
K 5.16747970953699 9.586197588752226 3.991466739941691
K 7.51359469332003 1.9258653902906107 5.11319905589211
K 12.192680376936744 12.694264119628675 5.8327064963827695
K 9.40305195032267 9.221701003609036 5.673770516445413
K 16.61907484537522 10.503794632394836 5.159077521462522
K 11.257383871025985 4.924965231144495 5.47044019432383
K 7.743694256084009 13.678117686743859 6.008249475799754
K 15.884954755000422 5.881462089328079 5.0980127303665475
K 6.771495533502213 5.879392590094583 6.392453733566997
K 3.2089180590726163 12.913534989820315 6.420415814884062
K 13.26580527684864 8.469883723868316 7.486290171346837
K 11.043129222071807 1.4157280598864097 8.152982248715013
K 3.2460401854599326 3.223646572324579 7.339531911658529
K 2.160662681917489 7.711999611388521 6.623551025928802
K 6.04833944764432 10.054038927270033 8.13008047290786
K 7.153715528232103 2.495761976906406 9.930930002169852
K 4.715146605905925 6.3260753145259 10.14409242706122
K 10.283627899733187 10.935000858884887 9.93478549922562
K 0.25763135013617494 5.867271374466717 10.530214073161883
K 5.864452929423446 13.982620600006047 10.334271467754812
K 17.57398608159915 8.106277412086023 8.82664198012397
K 10.681321210913254 15.149535714621285 9.93676564650989
K 9.582925423055396 6.556687001114508 9.653545026769708
K 15.009777944208302 12.141817832521134 9.35250873530044
K 3.170217344327186 2.8579980053124157 12.226537851954735
K 14.39726921380678 4.389812041356501 9.151557725923945
K 2.234638201409679 10.331001725069646 10.512964920780492
K 14.026656013065557 8.117932586884493 11.806858866469858
K 11.33473807757135 3.9489489965531335 12.5051542419469
K 6.591622628398733 9.574852157605758 12.202981375517432
K 12.890116056202736 12.512176171650918 13.272009717357408
K 8.481126665648596 13.151677131195386 14.028106372923855
K 2.852311924637043 7.4882501694079195 14.0586756865953
K 10.335103272014676 8.467376801980482 14.04687911317615
K 6.992242109782855 5.168937189275953 13.87445282857738
K 3.968039888811681 12.380817801135066 14.3870880048355
K 6.582523481350771 9.228371082810915 16.488742971263072
