44
Energy = -35.1814574 eV
K 8.335637539566262 11.695831912777374 3.297586136160431
K 6.2965668483105075 7.770577509244521 1.4673422133168477
K 1.8128166311303238 7.889817576783267 2.5582344716223933
K 13.189656929171822 12.315732986696316 2.982025047945343
K 3.968802987201314 11.657052443479992 1.4922554523898603
K 9.78737859424583 14.827005539818048 6.254046964235287
K 10.696868051161907 8.54720353550396 1.718778887290973
K 13.42310939144139 6.715213591843481 4.363997668926759
K 14.127718762549895 14.139151873354809 7.197170812197927
K 4.714624969980229 5.0171695465210515 4.571351287004849
K 7.679260743078061 11.368202665947502 7.7202441118403655
K 4.952087405981242 14.031359972437201 5.466916899428474
K 9.070655854122403 4.279345654332569 2.881462764818367
K 15.988956206571643 10.153757049488535 5.985794437387633
K 4.929299623873685 9.466061519850781 5.170775269437451
K 1.1274677452957316 11.774743945662953 4.944055485422858
K 9.038240400116004 7.164911098912353 5.8893984424803785
K 11.7471724559078 10.54327706774149 6.457213503200336
K 9.940886499944082 0.5365182072868563 10.133277340060479
K 1.6785359762122087 7.765086904363711 7.354803771265085
K 11.936695378491823 2.9718491458979983 6.6014331143054
K 7.432404905900966 2.645736513516954 7.049745559477755
K 13.877558221604444 6.714356625689648 8.566083733125689
K 3.3711251729334917 3.9120100763430328 8.74506210946234
K 3.363512641220908 11.490220007710942 9.074703975984608
K 10.056520445834416 4.848444208336806 9.925196038150114
K 6.269482643977021 14.944273632845595 10.016316900560662
K 6.136795932523164 7.250099411436814 9.06341768249717
K 14.204811236471864 10.843951745225134 10.392031814343705
K 10.629438871562733 13.553521967628404 10.544057783838088
K 10.302738066604244 8.9802678422735 10.183221507746572
K 6.493309129945754 3.270914965334738 11.738112008170011
K 13.856471363228575 2.745643912187636 11.199548972114062
K 6.911297340395381 10.938489502141485 11.865289351775296
K 3.5436154758582727 12.937792687323965 13.392360810458886
K 3.581208890807834 8.10846283632806 12.358429310599941
K 10.445345904212346 3.0700994734742864 14.04539670175098
K 12.916205383030775 6.8438623085621915 12.999335225165721
K 7.856540096563175 14.364094866526909 14.302280528154522
K 8.099811405698908 6.984965352947574 13.57022182462444
K 10.718276859022001 10.644930793691808 14.340417032044815
K 14.420245278414566 3.665659107377512 15.622984495494553
K 6.322619631671473 10.327101244226139 16.00155257886127
K 11.200308593878868 6.737313656640921 16.948152460574857
