44
Energy = -36.66660491 eV
K 8.25361201887116 7.323623094057464 1.689219360069312
K 8.584171253624282 3.1229535389745866 4.076862962312494
K 12.650034796805661 1.0561383299681961 4.609534196695184
K 12.572975686136463 5.577022597911707 3.259494012957777
K 4.583896203459749 10.045043188968018 1.0832941143295027
K 9.307244022031687 11.849768608542188 1.2775012188493586
K 4.398513602903204 6.669394817589071 4.222197313167893
K 11.129878286045688 9.659509332302697 4.68872809575868
K 15.082346550835975 8.285666067317171 6.451635647345932
K 8.524592303649827 6.790829938435693 6.145430291928388
K 13.728835949854703 12.640125890155595 3.435251172663331
K 6.614411981274898 10.797542190524856 4.691764985679326
K 16.142798387571517 3.806608550868455 6.003702801948441
K 12.028199335781931 4.433851811550657 7.459053743500572
K 5.21752746018561 14.741366610981462 6.752500643874559
K 5.454478743371415 3.5469310055770156 7.7940753205977575
K 11.614507776622812 8.337082845211931 9.236571583638847
K 2.3937878746529724 10.749110262169586 6.220031618688432
K 9.711084063048636 14.373219037354824 5.095307045160796
K 1.4523747725125777 6.381144510833982 7.9419007047330465
K 8.672550670363034 11.335515941473023 8.246142142679062
K 5.271425920811879 8.245212124107251 8.523837176080626
K 12.991235209103108 12.583856777164684 7.899938034867274
K 1.0750267308689758 14.085854688236264 9.159304897221928
K 4.552153353452215 16.609028595511717 10.987699003970187
K 8.616649609021367 5.291539154423433 10.331753327913535
K 8.841592440843165 15.3333382417591 9.690077678205848
K 1.3346182677867182 9.729444636418124 11.022222070257651
K 14.255946984126494 0.8902687066663713 8.939990688141828
K 4.880732350704962 12.207320017195435 10.274000856004992
K 15.229216005918643 9.690511966566923 11.118425094935617
K 9.556900430750327 0.9671623066964696 8.224352769314294
K 4.100767061631738 5.761897814246986 11.918308849465868
K 7.758528991975326 9.149362120913214 12.019036559475875
K 6.865796031335787 1.718010679588031 11.928975233799083
K 15.15645863705114 5.249906869019427 10.398170677427952
K 11.931732792689074 7.185387850046417 13.488309749430165
K 2.192186285037591 13.666621013843702 13.576585540098744
K 11.509597086428297 2.7531938248757895 12.216510011328
K 11.14939279446007 11.897769510973713 12.243205700696898
K 6.974056433537642 13.635185282046795 13.729518674565682
K 7.822235582892087 5.607051043523883 14.761608047500461
K 4.391108069639192 9.673200281750958 14.605668102298035
K 8.929785313510225 10.051392446837887 16.06726640360114
