44
Energy = -36.46661192 eV
K 5.734016262635432 3.995382505918907 2.3851791840474497
K 9.425512979668824 1.1767710030505791 1.603015347059683
K 6.914136891542815 8.451542349404091 1.1240101305352999
K 10.215135683145974 5.297921973343308 2.231432232543714
K 9.671636358446365 12.76709508322676 1.5338562407372607
K 10.652691364088128 9.459814547885012 3.8966225890976345
K 14.479866205252005 7.053925929577915 3.827970721545452
K 14.122171060404659 12.194332218642325 3.873472257663832
K 13.124651751217346 2.6797705520476485 4.374336461927091
K 3.1368897175426382 7.533858062326905 4.273015888740085
K 7.212116328390533 6.977383880466679 5.22851517806018
K 6.4351756748612505 11.188152035234976 4.487213293967331
K 8.433376023988062 2.5871517497428207 5.675129766799514
K 11.243279405718702 6.032880084033044 6.4788912272699095
K 4.036718156382142 4.135982965425548 7.0225994606923505
K 10.427917498044703 13.454920486171549 5.9903420324704175
K 5.830216448804936 13.827805357718931 7.7543214500345865
K 13.562075677128355 9.673891648496701 7.493137597423507
K 9.1643916792788 10.109088457126722 8.277468314690196
K 2.1622174745502343 11.405919959524827 6.34952530403417
K 5.019408303867171 9.059343252969928 8.594152737985544
K 15.05932018817282 5.492200180266902 8.470241421903165
K 9.546923622910105 15.137601346554327 10.096376779677472
K 6.674847841081229 1.4026561556574435 10.00418507727599
K 1.0792876567228833 7.7203344364335775 8.94817530356559
K 5.082578641479934 16.340471033570473 11.514529061461799
K 2.3113130645424937 12.626835391479545 10.601835289864473
K 11.575367675777297 7.145923100819817 10.589855071136718
K 13.920514082071644 4.508386332136322 12.96015377595272
K 13.788462863340053 13.49059425958266 9.21313609470716
K 7.828405650912791 5.392149270083742 9.022738120019683
K 6.6035747210892355 12.265676049739154 11.623617313435961
K 11.070715784375416 11.452856450942193 12.2371333716188
K 15.07042141534659 9.151336395061625 11.776121731022464
K 7.750461921603605 8.218893960768042 12.131414527038377
K 8.308091294308191 15.151899768047604 14.473576069185725
K 4.3450401155887075 5.11608056554601 11.564136409121524
K 11.431299903239191 2.668977578929808 9.378677190343039
K 3.550538334755263 9.290168535586652 13.162367676486596
K 3.8660721170678576 13.693638297097662 14.769718541412441
K 7.624681753868069 10.883902127868511 15.63656743488681
K 9.19768959061452 3.8901863427373193 13.033034427388507
K 11.218738177771787 7.669243270893606 14.927724005653614
K 6.368745987974018 6.503748397434254 15.667171239088955
