44
Energy = -36.38074172 eV
K 10.712503047102404 4.448753095955544 1.2438762276824415
K 15.170397819182217 4.995107053366017 1.7440560761356805
K 7.945666452466904 8.74064785585293 0.9745879047296309
K 12.682257092351708 8.482219114679621 2.5548621407116636
K 5.509572224743494 4.87196353476551 2.9106072273048706
K 5.720292611518827 13.212032201770194 3.1403434553364047
K 9.139150167685738 6.65202078833198 4.503768422332887
K 9.559946521607538 11.295582945530665 4.395546546348562
K 16.22933800499906 7.5505041004418505 5.337397432438882
K 12.91060859194059 4.200649763955489 5.376361359153976
K 5.1809847690538415 9.168194015660534 4.596781260883729
K 13.884019666176162 12.343309624793806 5.8074416434860145
K 8.498798907379985 2.304149150786778 5.585745247213124
K 9.992712050455266 15.428707641143474 6.317123532383871
K 12.406761682543065 8.455005923496868 6.97059428475048
K 3.622798434658231 2.4650588383725647 6.584093600800121
K 1.6906961338741713 6.84756227818318 6.524681028047133
K 5.893037629167055 5.648403892551189 7.287538391708885
K 2.063042953363782 11.841288461526918 6.569661681478958
K 8.189737773283584 9.027192757870155 7.880969499461998
K 10.059616693501036 5.118604225503589 8.587354261093274
K 6.350867680064722 12.984682729254386 7.532251237887152
K 4.178631207278254 9.220838104150777 9.209596997862901
K 0.37862649800592885 9.739739380152207 10.97104734654417
K 11.648341484669817 1.353333737226199 9.28215085580772
K 3.612450261058031 13.159104788689413 11.179637763211158
K 11.041690070207894 8.405952230009948 11.206916199430443
K 13.164152948517085 15.078289801614595 9.710340229246402
K 7.460683684484886 11.030710109498688 11.698939178990925
K 1.3495523345289686 12.025051752788265 14.736578938318361
K 14.77469317941429 10.464585380136889 10.189298009579502
K 10.68964893792461 12.054482133183074 8.860019943922495
K 14.256739736830452 5.618367716687618 9.9690560354499
K 7.0705711668623925 2.340102809005971 10.319843716184192
K 7.106411403057257 6.643256096094029 11.413951343573531
K 3.023270405623525 5.132811486043493 10.77212599119298
K 8.467654814372981 15.185580584014351 11.058251121952964
K 10.609850700807113 4.295220583384328 12.993383195719167
K 5.8155110057908725 12.871602363848414 15.167988945701671
K 13.760857306101718 7.997583966050287 14.2849991788649
K 4.050630651118225 8.750041991817628 13.752872685068432
K 11.463344192146838 12.184440746373149 13.366139570167899
K 8.876984979887439 8.401905511029664 15.082660858594915
K 6.066449394409041 4.2449120046255 14.628112703462456
