44
Energy = -36.44663992 eV
K 5.748956590924659 6.784448642293943 1.4494984139944285
K 8.169078444530305 14.062326877186269 2.55808127764038
K 13.451148937721975 7.8084721663653 1.0693275397670727
K 9.050117317474305 9.618464958489817 1.051046666389375
K 12.45855950167953 11.573706730261145 3.172500198394088
K 6.738679000364386 3.2640573580506187 3.9675536667487603
K 4.30907597566722 10.774265970320998 3.6592259719431324
K 6.546168617866179 14.951556711996908 6.978508642328418
K 10.104169738288189 4.826530366738514 1.1215355646493048
K 2.0974535260743314 5.811923514177303 3.784580673690184
K 9.985116751671594 6.994532271623922 4.741943259565213
K 14.643861625076825 6.900201105261311 5.319719901578528
K 12.148307235237198 10.127540798734024 7.432460841210225
K 11.254021717048717 14.621690328468176 6.410037016060925
K 3.248724960874584 3.4825976353824553 7.609735903783071
K 11.971281134990317 5.930092940514361 8.88602558184842
K 8.254922288380298 10.961765673411263 5.468446793182204
K 1.3566900700527473 7.796177756030872 7.916991141871062
K 11.743964773792136 2.9236987494984312 5.586492303676976
K 7.911826279663454 3.665414500849876 8.20164050489762
K 15.90625841533542 11.420648704555884 6.008294524294131
K 5.619799229166766 7.124087633283151 5.941632707466563
K 4.694332255500742 10.993558860209882 8.419564424479205
K 15.546265996921898 3.5749929618396115 8.875001638432213
K 8.514675209260098 8.137140267273924 8.950011583140364
K 15.639739653249627 8.415361635840496 9.790368202188528
K 9.037729518513098 12.338273430688183 9.662070038444996
K 13.425149039034435 13.250589279870132 10.314173604116458
K 9.590159423056472 16.415920882790626 10.566192916223503
K 4.869133411327655 6.594490470690417 10.351856446810128
K 11.490881295138886 1.8301020899368454 10.3989600758118
K 5.264731357745448 2.4833663386112823 11.764030411271348
K 5.531005032639403 14.041708724199726 12.031617572036104
K 11.705183208238022 9.336845183294322 12.159636435608768
K 2.406969658758578 9.909318944569366 12.291862519344626
K 9.031805172744159 5.314895678247758 12.58246108408075
K 6.959580893484602 9.803620277403578 12.551454385692578
K 1.1990386307110104 5.299647434641756 12.237380618935783
K 13.742998156807138 5.229076885394145 12.875916507075946
K 9.736327720517565 13.10598618197081 14.008093293869639
K 4.999701238692119 6.383895307438161 14.892474584239633
K 9.224575125377585 8.547460660365045 15.989537626744058
K 4.869494006697824 10.8871169458472 16.180644990811977
K 1.0650772181629284 7.945165519842635 16.034147300122473
