44
Energy = -36.57541552 eV
K 4.022194111851349 12.202754306120957 2.164292130671341
K 7.691224627951056 8.43430673062346 1.241431686342001
K 9.203291461780385 12.945899606555141 2.3626087096874033
K 6.6371845960819975 3.686765844324137 2.1927632299782767
K 1.766120399970913 15.397988026250566 4.74949681375809
K 11.409059867622174 4.790697964880698 3.090276632129653
K 3.6252866471447924 7.354666935037911 3.647084111997681
K 11.247125887408227 9.359314845518071 4.197523691473725
K 6.023746257532027 15.102138593124186 5.581475873782899
K 6.643979994514958 10.679762839587589 5.082780319262831
K 13.878104591035363 12.909116872142835 5.135966147714709
K 15.113242679133515 7.3260805392950195 5.517559968136056
K 2.183381711638314 11.24730846742949 6.421055943946231
K 7.800592109927353 6.436301830305175 5.198854900558582
K 9.13482053378712 2.157686262290855 6.273082771750986
K 4.402345997003178 3.627476147854485 6.632731686188563
K 0.7913065169179112 6.626500671177351 7.740404203281163
K 14.050376478658684 2.6771301457641123 6.997825380345585
K 9.96004071456632 13.618261169449674 6.983648519821634
K 13.51731707841189 10.2756061467497 8.786979317795383
K 4.751965651646729 8.016430405239518 8.022994786433408
K 3.2212548474130367 15.52488039148847 9.202924825451083
K 11.791609942896041 15.889514277823176 9.011580296897266
K 7.64920744068647 5.186003444117067 9.44426673634444
K 7.7463580849493745 15.889514277823176 10.324451690470276
K 15.133106932316732 1.7841466570078532 11.58026686452441
K 11.480333848161633 6.032379126223328 7.510430084683831
K 9.228704578740052 9.554799174916168 8.272534482924199
K 15.003977804719737 6.227863343047983 10.332591806096497
K 13.108148219763686 14.583471551001532 9.949754448237542
K 3.6234686534552765 5.133305321931894 11.44292230257885
K 11.049680999753424 3.0706235313170214 11.060275442610056
K 5.851317238296703 12.170981821311225 9.205134863145078
K 10.83675119567074 7.524528080813081 11.732501780724437
K 6.812713979095744 1.0813152777933184 10.313686498780264
K 6.6447859772972775 8.718964031246367 11.869348246581826
K 2.234716857862135 9.841489221737945 11.349084666696813
K 7.730145514758607 4.797203860227327 14.020495358183481
K 13.27137932415001 5.152072798119403 14.433628093870697
K 9.803542645120174 12.173757688765305 11.841721027773238
K 13.692146488711215 10.309479388807404 13.319897833706818
K 4.396154202346081 8.10815383631822 15.421746518023953
K 9.184322266031828 9.20145138800728 15.51427319518869
K 5.506465097096423 12.552961430346427 13.67864616532564
