44
Energy = -36.44289222 eV
K 10.601330139872463 7.332760551093665 1.1571935653239271
K 8.04152072900236 13.905786178156177 2.8874019584217114
K 11.449193304407338 3.796953199684265 3.6790248636751715
K 6.679661358115796 4.811739171003282 1.530264885356486
K 6.675073111543594 9.595828825408754 1.2139459444810454
K 14.111720739552053 7.905859535452804 4.29503227488338
K 10.342750591583568 10.292390809951463 4.309317196507686
K 3.5174616609949503 12.822071331465702 2.786584492693206
K 9.779953970566334 13.719659222063454 7.3552982105307665
K 15.402456405862221 4.109329805638487 6.263024859316497
K 7.676822662735009 6.740734699246667 5.109724374486121
K 3.21027516252785 8.149002774996786 3.769180830218255
K 5.187310822425654 15.322922996519003 6.607139572156392
K 14.223357153338517 12.477401683815758 5.213217565698149
K 4.474421797174164 2.630238192765686 9.571228675889532
K 4.062386476876262 3.9133481681358364 5.1961333936823095
K 8.088671102541635 2.412837748498524 6.331009257191845
K 6.164192575170365 10.956910290735333 5.562881761797047
K 16.80654254898662 9.54712261503975 7.965329916635572
K 2.076108263730427 11.706155420734264 7.318683412240388
K 12.280006287317557 1.9190442975078468 8.638909751874806
K 11.350181303418813 5.924343367846847 7.413399997048198
K 4.288253589496786 7.403879992471007 8.477198366717671
K 12.634092948067757 9.935225306011612 8.462458650726608
K 8.631770412592566 9.152590887893982 8.64680161809912
K 8.473807568440897 0.26403886523038955 10.289616854883338
K 5.85557409582309 12.151554645991242 9.71162425275671
K 14.257789917187617 13.84664302777744 9.53585070602309
K 2.6597518069791914 14.855696693818068 10.686971526545996
K 8.05651118356393 4.970314805571971 10.38143926487715
K 14.652562588506001 5.925946690803809 10.33569177368766
K 7.34029015801917 16.117535357595347 10.648054201496642
K 6.64660286209543 2.063870590781703 13.880274644048127
K 11.159960239351927 3.1561520137756762 12.984000908240807
K 2.4554839699526734 10.336054132370599 12.08448964429119
K 3.904917415382206 5.724954786516343 13.033812733163018
K 10.226055534523951 12.345079880260744 11.782943697202557
K 6.773741074726679 8.941622751981523 12.446654488488038
K 11.138516553221718 7.739852326443326 12.449966163348286
K 14.893228737148883 10.284823856216553 12.275946902327165
K 5.644900230222576 13.194940936388127 13.993180086981324
K 8.085672479789096 5.890755878442277 15.397755927647244
K 4.607530444973553 9.15468390134694 16.15595909258833
K 9.155875526338246 10.295629290697544 15.909669239899124
