44
Energy = -36.38396737 eV
K 9.840755921315433 12.613213161461179 6.29719106602999
K 1.7625811161929474 8.076339130598699 6.606750821284084
K 5.968022114239865 8.960084310869092 0.5420642068980579
K 2.3721510590653456 5.95663811423763 16.030049906385827
K 2.2482697804147405 15.86263597719055 6.351199182823679
K 10.167022833331524 16.07956127738092 6.379417121776594
K 5.931208736646038 9.724893544451879 5.621806892502307
K 13.804910695341349 10.342128926332583 5.160632934479498
K 6.02431767258305 6.042829728955146 8.001363864008882
K 12.95077753386734 2.060699574922184 9.565086815479416
K 6.133554395685091 2.3155217469364713 5.72700077733338
K 14.441871254494641 9.913313731230598 5.108131106544133
K 10.26064155682472 3.993746371879276 6.69033143565394
K 10.175338602028582 8.304152674242344 6.637413226332041
K 10.65045883937093 6.183635758366271 10.664377600470617
K 3.9132064404415416 1.9234324980778252 10.190297136957525
K 1.957635664105424 9.962371510772346 2.3966624646869072
K 1.9169995941477187 3.7664818565479896 6.661091495552798
K 12.719404241045904 10.391969838636589 9.540319320882027
K 8.34302686295072 2.0417495369039838 10.205243942378798
K 10.115961435130894 2.0925298403388024 2.493427929441424
K 9.903226862322315 10.181718723520214 2.4245859474532057
K 8.120984269406103 10.130982197232164 10.093628105397253
K 12.660585853571808 6.200138298513518 3.2921018485853653
K 6.014826165164904 5.970253185977041 12.179661620168286
K 5.847564261041919 13.037329249943596 3.120519344247433
K 15.496554496779849 10.020632127031229 9.491466760923865
K 8.106183647222968 6.082761590550561 3.5672008472074075
K 15.729801987025944 1.689455249001479 9.516099657077639
K 14.23023280637739 6.261959554468358 7.602964261874233
K 1.8608127093426916 12.396125042819708 6.268714882434718
K 14.003209722912338 2.1510158082937902 5.206947766026236
K 3.9737097451526395 5.969320922187746 3.5551446874199555
K 3.69142500173818 10.011496226471143 10.07639788145663
K 15.832298634385443 5.839996596011775 3.248125433663114
K 6.230010529311919 14.897930227092768 8.090472562679828
K 14.23023280637739 5.813285179894486 7.545588259429237
K 2.1974198115471033 1.873118520127356 2.4683566213979065
K 14.702679627031124 1.723478474949071 5.149421040865366
K 5.816870147643436 13.561620812252734 7.930488217960364
K 9.734584471755861 6.161250616386816 16.054169241685113
K 1.3807064619723604 5.928490470294732 10.634150868330364
K 6.13247104472755 3.079021266036708 0.5942836850438451
K 6.2336141819946285 15.419973593894861 3.2100957033080415
