44
Energy = -36.63500817 eV
K 8.237732017835437 8.901721521876018 18.358816686369202
K 3.7294921070088667 7.87653371177006 0.370967079584669
K 4.8498817525454125 12.20361755815684 1.3032074578099222
K 11.568166193193179 5.217025058592146 0.2555748023494186
K 12.818209506648214 9.533422473464764 0.39145611304921996
K 7.223726455474003 4.855679377630718 1.7214858671715265
K 9.33419838346818 12.222561635370592 2.602915525282339
K 6.205931973853506 8.999845913591846 3.725984581879022
K 1.8275204289955214 9.895292738025498 4.462243332899749
K 13.417634538703568 10.895706767600327 4.790276679137093
K 3.283614665940761 5.29384185216339 4.424706585015524
K 10.355028593099094 7.884845871420197 3.5664871119524073
K 10.94893308583656 3.268669010456777 4.622330404873781
K 6.313167036770802 1.6386319532845948 5.238024154110632
K 10.83042283346911 14.539175824858587 6.191713878846435
K 5.323405808184993 12.86710640615248 6.187355983722142
K 14.362672886799167 6.243653701643341 4.0489578830000985
K 7.58316392079713 5.637378283885236 6.139015593244812
K 0.558995190899457 6.686120592165439 7.941599331646744
K 8.94294638777074 10.61344053691786 7.224912760009912
K 15.984600670567035 8.272112576234512 7.730765253104644
K 4.522400693790349 8.474738340486791 7.704944602785494
K 11.571116114855243 7.3143047959958425 7.93469304360997
K 13.941016536666258 4.080066074636472 8.838887353273497
K 13.397736789418545 11.893864143660533 9.081154993313332
K 4.194882653240074 3.783448468505509 8.832956931912099
K 1.4793274332585102 11.020070186682329 9.370576711849644
K 7.438507946248483 6.728158439288009 10.204585792830859
K 9.113692481915358 2.719611925317661 9.153273392337264
K 9.4067528142197 14.031198696271149 10.51752008832218
K 3.096237525689637 7.279175289981148 11.955376085730157
K 14.241422072211464 8.109452730269984 11.937788854567925
K 6.309396410201468 3.665747134082303 13.283620418928383
K 5.78300490994346 11.353754202453512 10.92968452891176
K 10.191984138711788 9.790763317320053 11.5024418109179
K 10.852572974588877 5.173817943078974 12.690768936993992
K 7.1793933162179275 8.099336916387587 14.173824155756948
K 12.811319710009244 12.537159679295236 13.588139681011233
K 3.7925168831055465 10.650141496108658 15.217601713736112
K 4.091532985394053 6.274558790497275 16.64415312438969
K 8.289955081592224 12.436037937733182 14.863408473219366
K 11.290600750760095 8.774907805105364 15.952428673091815
K 8.46987638122499 5.1828103456108465 17.1726983906385
K 7.191058049768767 9.436241066864518 18.358816686369202
