44
Energy = -36.40544475 eV
K 6.786666489410346 11.678635847875423 0.5432758355534812
K 8.989445673615277 7.583033777300752 0.9287129206755079
K 14.02955509474822 7.092855495679373 1.7432029981697688
K 11.493227259920333 11.098185044459353 2.1673128674076585
K 3.963160827985233 8.545094614741243 2.5350828235071363
K 8.233036412250435 14.445241485856998 4.643920920555703
K 3.887697765319069 12.588887793134251 4.826807947471227
K 7.684403718933668 10.086662667489664 4.2401793643626355
K 11.012220528332763 3.6783405584547677 3.062402000069253
K 15.142624584809692 9.37690473918345 5.493883179190025
K 11.24051091270258 7.5303687107000705 4.794201108975476
K 6.934431027942637 5.5252896876741024 4.604085358380029
K 0.5126845338089449 9.163559110239142 6.051467332870495
K 11.11621687037703 11.585319998383167 6.666817870703961
K 14.502832043232582 4.956237776790081 6.177069452871722
K 5.279005117542723 15.88361041533646 8.395596000434608
K 2.563917672663141 4.911822884609602 6.163034807017629
K 4.492494221514953 8.700189280704139 6.890498425316588
K 6.975994599279292 12.117744634459553 8.181767488548035
K 6.015664593753502 1.5428089839712782 7.020113514485534
K 8.66865532951409 8.157472343492156 8.019467051559975
K 9.974014102743348 3.9384991606906574 7.526789375538367
K 2.602153122736379 11.888489555785965 9.481293426093188
K 16.86457274622908 8.198198128369656 9.937011705648622
K 12.179433321077196 3.1862577813304225 11.15495735057295
K 5.839083923884761 5.207635610172607 9.141950923567173
K 12.776724069137506 7.695415836366579 9.16052753110506
K 1.8301873267072293 7.1988055695119115 10.181735748713345
K 14.442866135510682 11.996524528946816 9.196257496098614
K 10.006414764798182 14.764190286544734 9.86682778489937
K 5.751406336457557 9.10848238759281 11.09988910572468
K 10.195767010849655 10.62822425989 11.324240625929285
K 3.0538692542371426 2.378878670197313 10.458958692583156
K 6.228519236924827 13.234090719151403 12.446545804157964
K 9.306744621536625 6.453855752021561 11.962936381911993
K 14.324870365609213 10.752948152455593 13.237419630234537
K 2.758785457983049 9.814474162636678 13.925073546769049
K 7.616890366534199 2.163155950054508 11.58022167249351
K 13.931132417746774 6.454086875474855 13.250132859437564
K 4.931961350990935 5.554969175625077 13.576125624227256
K 10.396421141532551 13.144847947293197 14.661934212426273
K 7.144019718505862 9.388224397276877 15.097870981444784
K 11.30021194326221 8.773298413169845 15.791899334130358
K 9.833465191079299 4.642140032637576 15.604460121897208
