45
Energy = -37.44612876 eV
K 9.315711349454373 13.030021894788902 9.902077089294492
K 7.938757068165863 8.752495486171933 11.768835830410369
K 8.894122975962679 1.9819357790343317 6.651690270111214
K 11.088372606030193 11.148308645347761 13.633937227258595
K 4.52411870063926 12.809564505878427 2.6546040250637164
K 6.571929385257407 8.951639800295432 1.5157959187210646
K 15.773738417234812 13.274130620591881 6.096055921660352
K 8.645776105320211 5.106283015131041 9.590960454498703
K 3.591459573608408 8.875100929651197 13.166620056249535
K 2.753813799302404 13.351636608923721 6.812818813015555
K 10.097038102985051 9.01320702377849 7.972026360906415
K 13.629922829258012 11.358536982233677 9.644727013358668
K 17.764329234700188 10.330957131425428 8.765897986371934
K 5.337811874145882 11.408060162585738 9.493974638584005
K 7.265161083297629 14.917408477429971 6.186435530614177
K 1.5949877781898443 5.294656888787867 10.816658560716183
K 3.7803847543236895 5.669840351377949 2.1188085629131796
K 13.555203367376107 11.909938370435604 2.245038443833949
K 11.764884844541601 5.394329373501418 6.223804363478137
K 4.785033986946326 2.638917099870286 8.824662913098683
K 2.1067676694821844 13.018601610764057 11.907812816917259
K 2.0819851379161025 5.1722459824548155 6.296911733255352
K 6.419897918278094 12.45207839222994 13.717400718267026
K 10.041886396815844 4.521181008860793 14.020031105317047
K 14.740378829256462 4.688045981652828 13.598641541589425
K 12.504671477112716 7.662298904040108 16.0177088778983
K 5.079839149280011 2.102807404316544 4.371943156967923
K 12.058359990741073 7.392108893560064 11.511489394002796
K 11.34889469639707 12.756501117004154 5.851942211013061
K 15.725330250231845 9.212674687410127 13.076625788142639
K 14.400601579123546 9.184479409458604 5.800048491576282
K 9.088198541802353 12.79910806907138 2.0989817889160465
K 10.610082837835252 8.692792129830751 3.312510031077047
K 6.9383264940814025 6.177763009202581 5.4549881513357965
K 15.582753218565662 6.547691950503782 9.344534944073432
K 12.33146188091194 3.021532895723358 10.144950461701734
K 3.0382026922069323 9.216107231421597 4.798977240544106
K 7.079542006413861 10.735884308674265 5.554318033322039
K 1.168163943432714 9.466616925614476 9.008646326983452
K 5.6260695610881415 4.845204644908034 12.952119931770257
K 7.724943337815254 8.172470457409517 15.848774896526336
K 4.876082224063104 7.268759590237838 8.94981467640506
K 5.419063455850722 15.620900836168795 10.326162271823822
K 8.206581853102275 1.161963020934823 11.297337084883784
K 8.626049626946987 4.389904996799429 2.148590951023661
