45
Energy = -37.33265646 eV
K 3.4111768763517283 13.309274946410898 7.046240302461985
K 6.390724441266633 10.10322257430471 5.651009630987565
K 7.07633124484073 14.533235961464937 15.269918794547225
K 9.303094944096465 3.473093389243429 12.657859683947562
K 3.3575765859795417 7.8115578033105875 16.218762221068417
K 5.758638257361053 17.121487622829218 7.586364109269764
K 10.519117420942232 11.476740134422277 4.120813528753332
K 11.396874150904448 14.504307161262387 15.961449773479064
K 12.663157470912342 15.260732904252212 11.699484729967562
K 9.290547111608516 12.336539613842778 12.003503509628542
K 13.302479046454943 11.07974576472308 13.725208159436752
K 9.110761020839528 6.692122717530224 4.4167267831366015
K 13.392091665335991 7.99741554807283 10.554862744747577
K 6.31352423288305 14.131765026329877 3.694508048024882
K 11.143742196233685 1.063880636992838 5.581201273957858
K 11.890377401827157 6.8495257204698605 15.16480348963429
K 14.902011118413613 3.7029769271203574 7.802705449272863
K 10.784610257442303 4.808403366918175 8.354229155447692
K 4.421995151911801 6.414259001621192 4.0095703097862945
K 7.030184592959529 2.9207931579966777 4.797000522744049
K 4.883085973778949 2.7140357794970456 12.520755161939697
K 13.778449751834135 4.051147419545098 12.24140437900808
K 9.826234290198796 9.440726995711813 8.178203882949198
K 3.6917135141663757 6.891589889442616 11.816519617185058
K 11.897326546956318 0.6924556948220341 9.96706841253034
K 7.079479484147449 5.55024718539837 0.3690120250205334
K 5.625051791515347 10.512548598238425 9.940502304107843
K 3.3180421549047607 3.702418576154663 7.997825296219424
K 6.671501913093115 6.116220555714447 15.423878568877294
K 4.8395244552695145 14.52075722872799 11.332290668594284
K 10.063105703746633 2.6124115922697895 1.4423516461717647
K 2.375649664236763 8.507609739870263 7.44481540125215
K 7.458703630942278 1.4682278127590411 8.933968511672367
K 9.318122622672165 10.431890972615886 16.218762221068413
K 8.52027819359211 16.939899535444088 11.53449415531704
K 5.271346395512728 10.438971682773605 14.289451297684971
K 13.011784165037632 12.232503866340748 8.540875868572202
K 8.913150577424732 7.925000063136898 12.152866045075143
K 13.380375672746144 4.441456634895805 3.6720001501588966
K 7.103326154453453 10.002702918117809 1.3048820625058106
K 8.528698942067601 13.7733622903363 7.8180400603220725
K 6.645443720444529 6.164428693401444 8.508064146935931
K 11.498640380655123 7.775093831433941 1.0806996310338717
K 2.9273528799736637 10.797620755403027 3.1320335200073925
K 13.41510791612996 8.206103392894974 5.8637172467042955
