45
Energy = -37.18118413 eV
K 7.778028849491689 2.3739006492365147 4.334621500893087
K 7.199139944544851 5.880561798526511 6.576607333907646
K 12.635876431919877 9.692314841792287 14.289179313171454
K 6.76795762218158 13.578228554386818 2.9007173907235475
K 0.5230703041758606 6.374742875932269 4.237633590783249
K 12.620929395474363 14.806316334054735 9.042429455741951
K 6.739395443733426 9.801749361535654 9.280254401469781
K 7.127102562184443 2.030201240227702 8.877228008986718
K 9.6180182550242 6.422856505881988 2.7990433354934647
K 6.997828579404717 9.751652346019315 4.7062208264671455
K 11.208415494891273 2.1694981679571703 10.818757193642979
K 4.979446536857115 6.121895831685027 2.8267765769051545
K 11.340817864280286 4.271340965099711 6.927628543457285
K 4.275457605232141 12.626395356682707 7.1189351960574285
K 2.0084110047605748 9.803657541027818 10.313370238574445
K 15.316510334304251 11.454117726733314 10.960877702189784
K 2.8064335401170983 2.5235596726893124 11.19586034076501
K 7.878760384308766 13.979245153722836 10.895584986528888
K 7.288811483440052 9.711984880129014 0.48266899977126443
K 4.910565065638162 11.29918955137856 13.010858853348067
K 3.512062741298902 3.4704870752667385 6.450863911506206
K 16.08124970126836 15.945903346370939 11.860456846992728
K 9.148566513508902 12.96055680750103 6.747376224856315
K 10.53501982434386 8.62068211436375 6.834043899632598
K 3.093313198730535 10.506608276161039 3.0150636811054814
K 12.16514115565866 14.306929620130454 13.298810379799908
K 9.29195160205407 6.171961916971166 10.29631849957314
K 11.34281650132043 5.411680963211156 13.939650190977718
K 0.4577013773936375 5.837692838931454 8.951289426697931
K 17.080840673575747 14.160443918793515 8.034097147340045
K 10.825327054968831 6.953552251384698E-4 6.813462160681414
K 8.83718788109665 12.006170648270226 15.017204685152963
K 6.912484894574243 3.563512134774232 13.145266396429504
K 13.822863073790433 7.065866357635004 4.407614017841743
K 17.08084067357575 10.291960775136657 6.443940610421701
K 10.958901539132532 10.907497708942788 2.9913466817138343
K 3.011987204744756 6.814683989799037 13.782799881616317
K 7.663893727036938 8.06655735266646 13.706164337511597
K 4.860032560380133 6.061266215699701 10.195763088725496
K 10.702608668389564 10.729195394926506 10.697315989630642
K 12.35082438107828 2.7246943617128156 3.1743326504864275
K 13.527278430482875 7.135277632641701 9.85357147573585
K 13.93800706888563 11.141581111644784 6.692136655212231
K 16.007667988904164 12.826414390143912 14.941077545128595
K 3.5093943579407063 8.108969132835211 6.62547862080691
