45
Energy = -37.3528947 eV
K 1.65085855128293 10.291100571428437 7.711819960231823
K 13.877868994835875 6.877191023303677 4.800807590270349
K 15.41210688754901 8.178687073425213 11.887546307125955
K 6.30209292622366 1.6517293457526123 3.3871485432360466
K 12.561923216750147 4.339468529533346 11.859021537866957
K 4.19462551664409 8.644688250448214 11.226684091390702
K 6.5809269337540135 16.185280409091142 7.739400302900387
K 2.0311074119125605 15.261058675460601 8.208702237543338
K 5.387936637255521 12.441548640962568 14.004519405080417
K 12.192077107196901 11.087467299097588 4.555830743739638
K 8.539802724480339 6.402506790074243 10.314284690475006
K 1.4054855138737294 12.708458087573371 11.83522849933463
K 10.375033276494195 3.836320447372719 3.2462876946605346
K 8.59638510880473 10.501406081275364 11.331994395888728
K 13.454916157784119 0.7283552574981805 9.132026881279984
K 4.992426640936312 4.109183428114249 10.67496919814669
K 11.97093527237231 13.88496915564227 8.069136584950474
K 12.835779170975536 11.900029288870956 11.927785386474966
K 7.480346995080005 16.183091338376176 15.339943232720211
K 11.374103253670773 8.023930993131048 13.883123878224644
K 9.685536559841815 12.172376988274037 15.35598068564349
K 3.0488064569091797 5.2828236290671775 6.337934085990383
K 9.554116309746252 7.6806705844790875 5.605379135515894
K 8.842846151706157 14.737845303995703 11.447789969882889
K 6.364911456593108 6.189249984188749 2.8246440750028445
K 11.520100004673571 4.212999095720219 7.590237057762984
K 14.295310983746647 2.184514808589431 5.024881104588528
K 4.562946678846377 12.914169210268321 5.188942803631682
K 7.285598505368906 4.1734391660708985 6.69150424826347
K 2.962756277364278 8.97889546769911 3.4760923750065924
K 4.45978926848471 16.359558177391424 11.891530795689935
K 10.824747057125247 8.048873616075152 1.45910659913965
K 15.645446393396707 4.956938538317444 8.51962601004511
K 5.627964271529559 8.569517149162131 7.065374352320813
K 15.501289708580254 10.535216914664264 7.914549753010231
K 8.530267852518095 4.089577828531324 14.028721208009598
K 8.987006067812018 1.674901817085368 10.231418958149717
K 9.078337595211911 14.613839722858772 4.242852032698584
K 5.126428506667068 0.7076464314208764 7.632521815536306
K 12.089162572919134 8.493042919403177 9.108712442508024
K 5.035815426578177 12.573441278432307 9.599970702502702
K 7.352369198393247 10.544156854594531 2.870962149005058
K 10.007657168866789 0.31900557319450085 6.025142320652357
K 7.049936328398503 8.257770035436973 14.668977431958242
K 8.535861472863754 11.68480479066569 7.252633297961658
