45
Energy = -37.02244137 eV
K 12.20730713610829 17.225481133840542 11.451582673036974
K 9.662974001018304 6.503975254734861 7.061490796158347
K 9.30282716643446 10.124122106427874 10.588038107595523
K 13.614162622250655 3.9695904061486056 3.1106361031127996
K 10.733174027407621 1.9891167341561737 6.336521597457634
K 5.4417602040848925 7.086132052266578 2.173184502855881
K 8.718243197140543 12.58723960268682 14.378900927592982
K 10.452332168336339 5.869555175187252 11.390997254837794
K 2.041143741578352 7.507035052439103 9.253299554272104
K 7.107004438353342 3.7977418408427983 13.864784765845314
K 11.6345767110264 15.41743976377874 7.121176142289922
K 4.882893501134559 11.813416291593645 3.2901457804849934
K 8.88796076814034 14.091225884281014 3.586170767122061
K 10.409571421493359 11.250560387142658 6.774360784506936
K 13.836526003022772 4.403257525252375 8.051175651996783
K 15.492038337531879 7.450623832844009 16.22606857714188
K 12.924373975806114 12.188053833244723 3.098772112895885
K 7.783632643149392 8.16713858545595 14.726317076870396
K 12.863817273412364 12.891735194135336 11.110759341732006
K 14.794584553731042 5.394734891146641 12.401921415531278
K 13.311169299167236 8.603558728556347 9.340059892059232
K 5.248221562340989 4.861177103328221 6.332620791747899
K 2.0058068289155426 8.277444038620573 4.7907380739858105
K 4.3302653030755485 11.473946846762098 15.474102140580696
K 6.38102884143741 6.65609548052391 10.354639101199908
K 9.085195005837361 9.495690169881263 2.915718860667932
K 13.27586161390064 8.064384969194508 4.894487477284361
K 2.331394829409826 11.83577176243918 7.8493084067600085
K 2.2641664277199527 9.64271275064783 0.4995688825600292
K 15.048911789281428 12.118906858109494 7.242632178237222
K 9.255958689486132 4.893418374579284 2.9058297014574452
K 3.4457491576912878 3.446197790988123 10.726801636099244
K 12.186896728046268 9.284211990782339 14.01547706344317
K 12.404860180279263 7.446668753907367 0.5568430617062659
K 1.0673906018917898 11.074228689002766 12.366732884391162
K 16.392371832224203 9.829001939420866 12.214891691684498
K 8.682349798393249 14.7578844093657 10.593603652605662
K 11.49241997191177 4.911929952562767 15.536790039316925
K 6.141448258242687 9.263823287231695 6.703141248391402
K 4.157758398798875 14.603255714089707 11.655914403580075
K 5.27478007275989 10.683917766683017 11.125884608344835
K 7.8018090094894195 2.4950312877134126 9.505367164653165
K 11.827726524102697 1.7944254541131448 11.461802185628924
K 3.4418461331687538 7.116507908155219 13.68773940649439
K 6.3771387922624685 13.665061966730768 7.276431054775713
