45
Energy = -37.61430323 eV
K 9.786429880823622 15.699531512486486 5.092670479316535
K 1.6476437108227082 3.6358080775052155 4.898328987108952
K 5.804685017977414 2.737005831805433 11.260288218125615
K 2.176112518615341 5.638713081493188 12.194010932181055
K 1.735151153600409 12.215803230846397 5.34413910498045
K 9.722690071297377 12.253424708940818 5.3088421285551055
K 5.783135676085979 2.1188090422011197 5.860614535722966
K 13.635604909369306 1.74339503115178 6.23833970289329
K 5.753038444015008 5.8002407747229014 3.5756960331525254
K 12.492313615326243 10.015368646340045 2.0462396500417817
K 5.7456569082360405 9.40396567479094 5.979227231459594
K 14.312149856443419 1.6691838116539228 6.312175631903522
K 9.87012724008835 7.9161626101181115 4.93323030831656
K 9.895608642340104 3.679877782974551 4.861514650927721
K 10.346373868691067 5.870062854533285 0.8624430372937134
K 3.5159906814411803 9.837769474772244 1.5145479151116454
K 1.9770041049400497 1.6790116705612288 9.031198613957248
K 1.6251610959331741 7.877424278823188 4.967601501904459
K 12.53342249117495 1.7054595489317819 1.9013798660749857
K 7.936461261195539 9.862171537881151 1.4938511641871772
K 9.580183690055337 9.737217694547445 9.131716671768663
K 9.623955917857202 1.714337719262652 8.998890300872944
K 7.974334689891997 1.8350445618282107 1.3613206507975302
K 12.277591431820692 5.748651602360217 8.281844370449228
K 5.734319709596144 5.874003160247035 15.766598884645672
K 5.81092840539215 15.072715853964008 8.27530984059214
K 15.369901615002153 1.63227598166021 1.9660116558828094
K 7.805436025537186 5.73292245264612 8.165132572954771
K 15.331451201386072 9.951185176237459 2.09752340540812
K 13.940423092742774 5.831254817668402 3.956037205454683
K 1.8005720333620694 15.655708234358647 5.1268177190894955
K 13.588503578503843 9.833213943800851 6.377884738995082
K 3.743002903195518 5.716593329425533 8.180522228308977
K 3.553588266596571 1.8119533583531826 1.3784787652381514
K 15.637260356092431 5.691506692447799 8.339828745871309
K 5.717396081674798 13.322086509961403 3.7519010838933227
K 13.940423092742774 5.750153782176602 4.024920962014239
K 1.9310579764335263 9.704270252662091 9.165511542316247
K 14.261586285127729 9.760346605635355 6.436960094640294
K 5.79297352504964 14.646951990242659 3.4997625326238655
K 9.409530581620283 5.676578840473551 12.164712448091134
K 1.135866002649663 5.820533425270506 0.9068679575005764
K 5.772652396781815 8.608490416979791 11.357349376664194
K 5.736342514056289 12.731994356021572 8.508074529145984
K 5.804632268476195 5.615698763243371 14.837866598495635
