45
Energy = -36.99223744 eV
K 4.1384153619235216 13.320849108158365 14.218133783088515
K 14.093526092972256 10.202685184136191 13.242023945524295
K 6.650751865333783 9.208651160874732 9.330935382005963
K 3.2438201510472666 8.143705800712532 6.817055649297355
K 3.9168733036420957 15.518842122908497 9.91174500916022
K 10.429199552730946 9.707629797383424 11.421421020570369
K 11.599923028289968 14.119275877542977 10.82359911665738
K 7.240619958991596 13.155937952509438 11.196362342921889
K 5.788768477584791 1.066755556381619 7.123153947426677
K 12.274978236164683 14.618134683882705 5.89729355513149
K 6.425635026213991 5.153367063999569 8.112363206292438
K 8.127033334953008 6.00451909329416 11.893605956377279
K 11.828586316294441 6.173109725932537 3.2900823250488873
K 15.83344499003691 12.257949942457316 4.327835285174456
K 10.294213467995075 7.604414846871853 15.311968118486082
K 15.406693272553904 7.799065413969465 5.540071537521174
K 8.330456062456438 12.956970331216514 3.6133867563784396
K 3.6568679468195238 6.78352644102671 11.283905816287419
K 9.113327584439974 3.4265535721123017 5.2063140454624675
K 5.302760596819688 2.498768144164334 11.731524495181418
K 5.261560805298668 5.255732146855404 15.373508907444013
K 2.0972914427738836 8.706545298536376 14.851596932806157
K 15.681519497832172 7.284191565072143 9.991737757243477
K 10.829575139360358 7.067225866817381 7.997188864732793
K 2.933565220430479 11.114472987466852 10.600207048240316
K 12.42581308870013 5.314318997394841 12.04870786908402
K 9.525300692313781 11.753674407559606 7.701766106436966
K 11.976589123806535 10.32471375787084 4.5640489675301374
K 9.064363855690411 2.9043853379424758 14.556009530041306
K 7.814932709894709 8.22250599084491 5.086489240943267
K 8.020660133643391 15.839814553768175 7.664721507217269
K 9.64232898480283 2.500494843158132 9.67558378911336
K 7.664838079534732 5.762079499777748 1.4121735300545988
K 12.478114731978668 13.3480005141549 1.4469610118823193
K 4.527239129793395 4.643530831140054 4.38326111155515
K 9.89226779229185 12.277210330814057 14.77548359605142
K 13.565123427026839 3.9498514830156 7.472972941767137
K 5.001434653810369 9.563144987482099 2.3618005065654577
K 9.718813666831826 9.650902824846693 0.8427682814604237
K 14.004115526389523 11.070606250591297 8.57226199726132
K 14.453895503789443 9.343679681356992 1.1799439110303958
K 5.056728826293776 12.370882485142005 6.693610975515693
K 2.2395178475354087 3.7163156480517237 8.520615458263322
K 6.35050242916034 9.558189667360839 13.823797258822461
K 1.3488960736986333 4.007701233389434 13.380884614889174
