45
Energy = -37.26574226 eV
K 6.97649946085366 10.610426688929259 7.225951862179804
K 4.502128894472662 6.085152056772301 2.2837537401481907
K 5.119385830177758 13.991203223775662 9.11433150673026
K 5.040427645178124 2.3840245322453884 5.364689317973976
K 10.456167912231097 0.18833314926642875 6.1027729134204485
K 12.548658546254845 15.166083468313706 5.732764949142871
K 2.9161581871188 11.78849945605069 12.834780382884842
K 2.192261213007094 15.962043535280493 11.36306174517165
K 5.994594390552236 12.258258895206918 2.0055143308390644
K 11.477563343133003 5.713530589422241 10.520208721108245
K 11.512650846018795 1.3479136391766289 10.604459388282406
K 10.072611232432555 7.284783135258117 6.725600427106025
K 9.614752014263084 14.142337150649734 9.551434010363398
K 5.792447992910176 6.5461224504122475 6.207209795072869
K 3.2271771830554146 9.853891147932677 4.919447751485254
K 6.937301035527455 11.02589003678905 11.747452099863485
K 8.180781908037297 8.807142372292557 3.1015503915223355
K 10.610531140530355 12.467378520760422 13.754147778275582
K 14.738717085772093 0.23657080789672802 7.955405032073927
K 6.844229045673923 0.15028047437082162 9.487125769119409
K 15.338914056565848 3.893147590321494 10.518177373811076
K 12.712263087306287 7.978663256713554 3.4160431551516433
K 1.0088149465195237 12.499963754121504 8.508468896606878
K 4.219876875707488 4.132504670094381 9.73870712599166
K 8.089282420698934 14.365464684478896 5.215945398906893
K 1.6648334548122499 5.737138390845076 6.023645049768529
K 14.376156061111585 8.193767399241565 7.938913232269785
K 9.539957193585538 7.896184901426547 14.24860741315228
K 12.49468228793697 4.207652048472234 14.271238604871222
K 3.2372386040835424 8.728868701904737 9.378901135211473
K 10.996337222390887 12.391927698794694 2.1150003746711734
K 15.167113524018283 11.657896196141957 4.745644145011668
K 7.960857636442245 3.648526955098132 12.696167567712346
K 9.001893851139272 4.2990033229723865 3.6274042053022066
K 10.77683640436092 9.938809403076222 10.2609145646849
K 6.287293239653551 15.001120566033432 13.272561607207432
K 7.346706348626779 7.15166954181346 10.189221628897366
K 11.183363570086104 11.250202607876687 6.192353086417823
K 6.60281572161691 11.14994014869295 15.968447975890255
K 3.3669269516182987 14.33588594226322 5.177212852990044
K 14.046294479966065 8.428158618233214 12.790302781718585
K 14.027229069862978 12.599843737038738 9.438290274408315
K 12.889721116695284 3.9343322745830043 6.471085937043965
K 8.50240276323902 3.541037552269397 7.992692559794411
K 4.858296188405988 7.479576690339602 13.653543123395366
