46
Energy = -38.314795 eV
K 9.874308702439176 13.179621555455558 0.1583273292048577
K 6.7655611710667145 6.745378077247044 2.29761207667413
K 5.62458816280021 14.38143071898767 1.2147559254664817
K 11.081568383929252 8.666084702633674 1.6330236719424802
K 3.5534062303176213 10.318298748818757 2.6597165663409643
K 12.204405728891347 12.64021660249359 3.9135853159512473
K 7.801182645343524 11.12276112861368 3.1870602985011374
K 8.583427285875592 15.370711721418203 4.481200208012987
K 10.95836000718884 4.4898973921729555 3.7947275199368304
K 15.324536407076586 5.761940451732565 3.6323303964128226
K 3.240421214125251 6.488048540010159 5.32491208059077
K 14.00437050407404 3.478556395072075 7.203039644356073
K 6.487936205797963 3.1693788755851817 5.5728709418768325
K 4.37394891495908 13.85186036327419 5.4520244405626554
K 9.965736788208813 3.6164137466931265 8.340334503697047
K 12.740281111148049 8.349887122741091 5.594543386346244
K 1.063997766811033 10.47010489354723 6.452504919000703
K 5.301754627613932 9.928787729438099 6.748953445648853
K 11.33099047768056 15.226646509203071 8.134373017962007
K 9.608404229602838 11.342243792610178 7.063104938874243
K 8.529164522638622 7.257490845361085 6.024810275802475
K 1.9188300127298221 7.343937640122716 9.808285467651253
K 13.982396544120137 11.505597540678545 8.370899490810206
K 2.5982737972994028 2.971596755033467 8.348388018235738
K 15.582776751393626 7.269676707997318 8.75078452082656
K 4.635676865879644 8.302602944230737 13.48971700975909
K 5.788234221525054 5.711849679042959 9.033907339178064
K 11.148680235233336 7.81020565610409 9.624938160258525
K 10.527206981832089 11.972697303316773 11.244838172306276
K 7.2982837448402424 9.396035551839484 10.445320608227822
K 13.90746183971892 14.337712228651556 11.980286597689615
K 3.837726593228991 3.985512028633026 12.785677242667353
K 8.34417947083855 4.946161502300376 12.371591852225833
K 7.030245654177521 14.142349629937273 9.13490284020103
K 13.887007532432301 9.570766778915315 12.63315794330982
K 6.48713469700509 1.3938092905050494 10.17798218970931
K 9.549753564033635 15.969811943804045 12.559164282721952
K 3.4518494393908097 11.667988862667036 10.285208181959932
K 13.092141407509883 4.779176686569067 11.841512278568
K 10.664670940321338 1.0669326531028591 12.211846405637855
K 7.065178774002678 1.3840523268952216 14.749249801128828
K 9.696301116456059 8.537891333439006 14.333962573538596
K 6.666600457921379 5.473569675732197 16.46020987909721
K 11.196439774237353 12.72847839609786 15.387029297862988
K 6.884188508008051 12.41424289283772 13.739699300987903
K 10.76238419825339 3.883558288414939 15.769603852255655
