46
Energy = -38.33886824 eV
K 12.500419536624788 8.2152114818184 2.0602164467040165
K 3.923548952101792 14.690090825675192 10.59358706234951
K 1.8264012782015635 7.734607081406338 8.009472387102313
K 3.1509972495304064 3.41291377878661 9.535121322804144
K 6.396907884884459 2.183791913738188 12.218188519416515
K 11.656008684854944 8.062824481254236 16.13457828371471
K 0.41762773902899186 12.081381862865078 8.326444779789469
K 9.505968922773523 12.209654649432375 15.091209668474093
K 11.359760566762661 3.8104033990349726 2.0502786273837357
K 10.872281085937855 2.2906066473181337 6.30853368146752
K 14.57995981020447 7.565925805067966 12.31897359260346
K 9.273303640308997 4.89639466076001 9.662434338805234
K 6.737126680336294 9.400649660420195 4.424176167064853
K 13.6591536244752 11.598448206218215 13.763921328334378
K 15.273496126357179 9.876202401338292 5.179230009518698
K 7.18629239401129 3.139921218974883 3.8438291644557236
K 6.052963567441079 9.352712641285898 15.260243543412315
K 10.514617040249913 0.8635222444003595 10.660968124485327
K 5.105881317476162 13.688212249122722 14.859088092255071
K 13.805039904325147 3.9004506723097285 9.405040534291464
K 9.192344059182922 11.15336032899944 1.0790420750982208
K 5.482713533898506 7.017577081446167 11.307097254010472
K 11.202401242788605 12.381682438899908 10.111977450283096
K 8.331305839645795 15.571136007598193 12.27875331915362
K 15.577912631189848 11.266562793069516 9.629601049879955
K 9.966445182805492 6.472457609779914 5.254542834295628
K 3.2491239629732367 15.048585738736113 6.273451600692965
K 7.620286207670094 14.041793541504855 7.720554477093014
K 12.63664707968163 8.114475196286342 8.426194809165212
K 16.972140976740032 7.100288549445573 8.443876776043409
K 6.140295066972036 13.474370016088436 3.4685727781849534
K 6.935791324141278 11.56270078695575 11.614415381392956
K 6.704064052545164 1.246447681494573 7.962426182478889
K 4.844970158792792 10.095483035292864 0.5861291640818841
K 7.9884400923242636 6.763891234768968 1.1686591480642086
K 5.76793152047384 5.844604641201291 6.9979364515299185
K 14.289182506542145 5.374676268958632 5.173625680954133
K 8.405947208772622 9.218187593905895 8.39412888640458
K 10.89364128906532 11.312924125447992 5.414371978951633
K 4.529545090040603 11.020461854958324 7.946507753136731
K 2.683585105429818 10.57376114243579 12.121309433877633
K 7.938751812972274 5.366926943603185 14.896225249735965
K 11.768394223665528 4.316401296503674 13.330021397190295
K 10.079983548411251 8.492458415185968 12.350995678014632
K 3.755404350671107 6.444220307605118 3.1015368640274006
K 2.3044778993475603 10.810121461229095 4.301992624455792
