46
Energy = -33.7976766 eV
K 5.790621811728022 6.8836845466461165 1.5749863874385666
K 9.34361833177838 9.51226706548811 2.793191820536745
K 9.928854884304725 4.90409005714543 2.304129990974871
K 5.164528012441701 11.372838333479011 2.8447388938832474
K 13.37766880825575 8.001545012901822 3.3033812864527325
K 1.8851289716246906 4.508936369396329 2.778366002963817
K 1.5553244580798216 8.88782430380726 2.0299941631461964
K 5.847268964382499 3.0308549482007203 4.176513417789958
K 8.313869819120775 6.116974425813302 5.965068179728219
K 7.022616568908877 10.237982373691537 6.579889049480633
K 12.95625543102558 12.261671327033044 4.714370866153407
K 11.206898579525017 9.123276021192087 7.178717995149139
K 4.016564166492918 7.333069539924441 5.4478835008451805
K 12.80603481569922 4.962891040737758 6.5860361095058675
K 5.574158356677202 14.357417285017346 6.777042292728861
K 9.841547841384232 1.7175449751146206 5.801364742461357
K 2.040860716871258 11.043622910032154 6.138933985003895
K 2.6058923567317045 3.930839827670612 7.534127749955168
K 14.159657676814058 12.675461668881384 9.195291978729953
K 11.61181709320975 16.308039289199897 6.475363724438776
K 8.886992741622958 13.839027564930882 3.8226525097027397
K 17.47519544686025 7.067980513096983 5.658276469513928
K 15.50271690452933 8.725983242288455 7.176006579392567
K 9.764504204366002 13.052883340529092 8.241011115446224
K 6.825052017453066 2.7437828744775397 8.739541108214041
K 13.04238400360557 9.047900776017544 11.226346810362715
K 1.5555953323181742 7.807631286678504 9.614115485453212
K 11.778371385280174 1.935650132725242 10.017688010468882
K 15.110382928986104 5.379385027159445 10.485930270583406
K 17.47519544686025 9.458276643489361 11.045385493835816
K 4.478124621713058 11.204219465863464 9.933775657286667
K 10.084881896385898 5.863876968127292 10.076268995261115
K 3.8685002207567982 4.352014230144047 12.248343579457048
K 15.133843353444673 11.950365235282364 13.881498531179759
K 8.67712689956165 9.924266470080775 11.00081259934682
K 5.857690429571737 6.978528564826765 9.60873835615387
K 6.9096681120754075 14.459934812485072 11.34743558701554
K 3.0107699319192966 13.204982984230812 13.447060815868497
K 15.601413403341363 7.5477242494119885 14.625466879092501
K 12.021876821549393 5.058713629694306 13.85591408821756
K 8.277846972244824 2.798724739138896 12.910596376479072
K 3.6928090136392377 8.706926928572978 13.539887513049996
K 7.0220532653447325 11.49376566893322 14.70361770580904
K 11.325455983426478 9.421507401203707 15.135876886250042
K 11.08533905480601 13.186358953169867 12.608083102635604
K 7.649839009302244 6.885461601650326 14.116981962138086
