46
Energy = -38.09871187 eV
K 9.788842241576173 6.923076566817986 0.46337924395441177
K 13.113166757945717 9.565047553528292 2.1504647470199183
K 9.070839948514376 11.48302046530237 1.5142342948454437
K 5.83406862867251 8.279682038140288 2.5981329874623404
K 12.526267441467548 5.038757057828962 3.6060978637921597
K 7.858501880932448 4.335841739156376 3.891478554260215
K 8.386050678650914 15.428849823233474 4.055964526114352
K 9.808356512837909 8.42336405373175 4.576860233529932
K 11.686072836613661 12.488782159105284 5.6046760921209335
K 6.011025385034928 0.3594324896745377 5.2249656124958115
K 4.791454641420891 12.78812523477526 2.3381252166705773
K 3.4411497393769186 4.4105262651201915 6.445047000534687
K 10.738623591713655 1.3935753568450868 5.936264200619195
K 13.834131153697863 8.72062757276009 6.764125820171387
K 7.204334475900051 11.548533284978735 5.5853488863878145
K 6.256631752706862 7.512798173138666 7.524875413723198
K 7.464557777592411 18.377254307607277 7.712050500922665
K 2.999051579264299 10.002568826970053 5.598101688101398
K 10.643866763278341 5.5598846370495725 7.427248324638948
K 11.562755622951924 17.200209976118312 6.343127243704507
K 7.21343617122741 3.0958648225252983 8.232039039749445
K 14.833757006793645 4.394478178448999 7.782406054624865
K 4.58246123173431 15.154814877994555 6.358502938190406
K 3.993929734252871 0.5510340564895192 9.390832277782566
K 5.145506755103923 11.989821076322293 9.236913421105744
K 8.940800801619481 14.381140069077288 8.624737691573586
K 5.323514326134699 16.16056425355323 10.92846266613415
K 16.831882294894722 8.429438080455345 10.080047638636852
K 2.23859311754473 8.572814688405842 9.927257584583163
K 12.946947195453996 6.9264496945044955 10.879285773441095
K 9.553123718771808 9.89837303821418 9.091771433369324
K 8.221833216391015 18.377254307607277 8.907824063094399
K 8.686823248025414 5.85180166035006 11.220462113857396
K 11.447659688603848 2.3815647334682266 10.361139672464796
K 3.3416789532097115 12.349045265108911 13.159172447130775
K 13.141211668023463 11.63519365557598 10.501956191056024
K 6.051254489616622 8.98150221478748 12.059297714950096
K 4.154892270670234 4.790538898045753 11.241704687000206
K 7.961655361645299 12.962902106254399 12.735122140979314
K 14.667613824653616 9.07216074603005 14.135243281150734
K 2.6504979261821764 7.939039671919087 14.471676137295995
K 11.31963240951951 5.0107565694056975 14.480673853367515
K 7.3536832817728515 1.8909383519047236 12.51886524311619
K 10.24817017081024 9.301277627762595 13.847790535155427
K 6.753566443950216 5.864968730935078 15.095851464029915
K 6.171071586722827 10.34440734252163 16.16534178856672
