46
Energy = -37.99823994 eV
K 4.7238838656306426 10.112924562037186 1.408831330496166
K 8.631469648566739 12.117012600273503 2.5288894219794265
K 4.702332140081259 14.499423453496046 2.481182928490221
K 5.572817003280976 5.356509521608545 2.0617732310473516
K 12.105850070262834 9.17538953290692 2.704926160688239
K 14.94447388701483 5.519910707475275 3.963586874655877
K 7.49914460313051 8.088921547588805 4.626792092642913
K 10.571400446056703 5.122404906004878 3.558296089737758
K 16.17413735010492 9.698842289603249 5.041661601868895
K 1.3405972422728873 12.074216237074143 4.3068339611501925
K 2.9075403013119394 7.697651130297157 4.519312821201013
K 2.827046946333183 3.298177955085514 5.357007867206341
K 5.263197937363188 11.621798495496602 5.747873832671769
K 7.341679105428455 3.006046436992659 5.81803244549869
K 8.282495620217434 15.22924770233061 5.63949192691026
K 9.651084939699125 11.132051440193809 6.814428768995307
K 12.7125051016954 8.011039058132855 6.828645932604958
K 5.065779984405422 5.770834920571268 8.358572796201875
K 12.797923571520345 13.009974377608819 4.913927200265318
K 3.680316794819278 15.34104784674811 6.932387398936286
K 12.322412267159732 3.438336697764929 7.272431108126646
K 9.24067449490975 6.493235734678551 8.183440581372688
K 2.0079748734279077 9.340123852567983 8.280892308221715
K 12.113649514976972 5.352261984814342 11.431836660471799
K 14.646995888273956 11.151954127300641 9.029264864508754
K 11.486735636661956 14.409458299828318 9.214705608980282
K 15.911123401413258 6.3163456319179 9.171884886408758
K 8.525109696982327 2.706786239029374 10.184474599678916
K 4.396854544397879 1.3836878928688847 9.058361705130277
K 1.3757780906964832 4.735400718348417 9.867153284640466
K 10.725034124760649 10.152252247436094 10.989279142567273
K 3.3482693258452056 12.565480952548375 10.840069144272265
K 6.437542695139829 9.694347534450666 9.421690083762128
K 7.170985816116426 14.06729221178957 9.713593130351668
K 5.022641912704545 3.7604755825788647 12.841819334303514
K 8.156435321919153 6.7928077723029485 12.394893851176876
K 14.494904857140504 8.57271911677127 13.064070937017819
K 9.476488844113753 14.329968834812691 13.529775228537487
K 15.810096885621894 4.389988506723412 13.387227314794655
K 13.52393473756402 12.921257077792843 13.054563733689843
K 9.34357841251996 3.1068795992008473 14.651204070732888
K 3.666767433910567 7.903750813134412 12.32110464220997
K 6.710534632739936 10.895083918150698 13.738173263791788
K 10.746040460569082 9.988889634360659 15.474285028054503
K 7.439175553255286 6.832693594536811 16.43033855856547
K 12.228722865869852 5.939235550651671 15.965151093269306
