46
Energy = -38.36933601 eV
K 6.682757207824188 9.402037686300032 2.9589014708018584
K 4.416616761677821 5.402485170106888 2.904547529883179
K 2.9686886040101976 9.357820963912593 0.9557284495765463
K 11.269906735423106 9.867314157224945 2.410275249585878
K 13.55653093384015 5.74560008933439 1.1754554954113088
K 9.20249583369148 5.649548016836899 2.9860945287460026
K 6.997191472546251 2.234209840050222 5.088929532944833
K 2.8194852090102125 3.6379937405668064 7.407681424954251
K 3.9871688644293166 12.762062660646391 4.076382888202091
K 12.554713213045373 2.447972306486282 4.310131076677278
K 5.62897581565575 10.52310271440738 7.382326673926868
K 8.780530521016342 13.037332452809334 5.275879544253239
K 2.344577190870324 8.514441040644796 5.298248531519403
K 15.840649949352777 9.253986712782437 3.2764736073876564
K 5.926876615049185 6.213851654612395 6.910744179068584
K 12.97036552593563 11.408204491599639 6.476379245157844
K 12.953417104645942 6.830164611655412 5.204260748931426
K 16.63646040280921 4.856973735623228 4.50824764693973
K 1.7891205819854723 12.510679467092723 8.275654920441147
K 9.867545442185397 4.600847712653495 7.413705449189959
K 9.322698788867175 8.837745298407242 6.2852438244291005
K 10.742896232534584 15.265599239340691 9.184041138272093
K 11.004872551395536 0.6028492776056935 8.165353384574928
K 14.263913376978879 3.8852550641339234 8.299815923100985
K 11.945544435162125 7.818811948730395 9.346036728448638
K 5.94684654259489 14.871349799357585 8.354911389679595
K 16.196452007465496 8.255254100032586 7.764279321662455
K 11.255988400437992 13.41150466145922 13.434886984868369
K 9.2326113104751 11.519426498731335 10.042656665362106
K 6.803062581462114 2.039978457728065 9.456880101395129
K 4.864897257215725 11.726460615297217 11.404879346509297
K 14.18148356847507 11.256215673979264 10.751934933836619
K 10.717346714794926 4.119018129289517 11.754948762066029
K 7.203919705527097 15.125209884392142 12.648272961358586
K 2.7440152413243943 8.036722324299484 9.720234041163252
K 7.4064982034071845 7.6422964482075075 10.780756374133581
K 7.541131313213791 1.549731656422481 13.671916977009369
K 2.7343443202250604 15.574836499626832 11.669415656172397
K 0.7183647810178762 11.49584508301713 12.528553309696836
K 11.188872481625808 8.718386791472792 13.470761930838698
K 15.006729856681785 6.715345591284156 11.916124147653425
K 7.68302040564703 10.888209031662003 14.661431326677267
K 3.817640766599497 13.16268067202458 15.375687079866157
K 4.445823011433587 4.508654082439351 11.862130244309306
K 3.8830685393967 8.586490167882083 14.149589915317243
K 7.7667065806553355 5.942316737448232 14.816032297617427
