46
Energy = -35.02864243 eV
K 8.891703210948908 10.047870024441842 1.563473995201439
K 12.538330556555442 6.962690908875336 1.205910277491382
K 8.778410353226924 4.80328244602775 1.6404336836705447
K 5.532617856730849 7.802239392019221 3.765451765220972
K 13.021404996449427 11.066552752741895 3.4094405149947233
K 12.691211929363693 3.3034068373450594 3.6659368068612217
K 5.267802803079398 12.12826047197104 3.329101927212072
K 5.688990711185557 3.3826858188356193 4.404085880279324
K 9.485821557821978 13.66506792816118 4.383362927251695
K 9.931983011813058 7.508485253747971 4.933138641994579
K 14.076293208373 7.161612667612318 5.734162389083417
K 1.398700310123379 9.818146038307203 4.562814687486543
K 9.571180566857949 3.5152463766502224 6.6837052405577815
K 13.495789262836121 14.734944190150243 6.298165885427407
K 9.118289037856355 0.6085243443390692 3.3837544590924025
K 6.471423279130484 6.386155774469389 7.760354606132673
K 5.6814575469169695 14.487362676619965 6.938379946426818
K 2.408433053426132 5.787099950534922 6.4473571842327795
K 16.099542007936147 11.120505277761323 6.76403507990073
K 3.829174603209067 10.182722661193653 8.06758499151043
K 11.935150797745038 10.795277833865137 7.582966654455613
K 7.863270350032926 10.645392019803586 7.260864905814555
K 12.113521903254233 16.42167985055706 6.614623189278824
K 9.788664979635767 14.57430072247268 9.064127595300617
K 5.785151680619843 2.242963925773955 8.726415876369526
K 16.491825368549215 8.885199316602971 9.05256402760575
K 10.248625181510695 1.4631362600454372 10.498852090688677
K 14.51651945322572 8.205610337935912 10.116738162579134
K 13.583621314687873 3.792445043236898 8.621322365635498
K 6.015707435012753 13.121139935168197 10.991150028886409
K 3.2190106304184307 6.124548226176103 10.88251534043367
K 10.395205634912976 7.019149644025118 9.462117353367791
K 13.897318687200228 12.903839625884437 10.853619866334947
K 6.597036055097173 8.80140157249482 11.39115323782496
K 2.674182833908007 10.616541198039215 12.634880685083813
K 10.108504528073825 11.085980326899367 11.817561184034382
K 7.55697749049136 4.579923345696306 12.181837443857624
K 8.628009597082695 15.33636606869055 13.506197236034373
K 4.073420740064724 14.941403906380161 14.390585533816996
K 13.42367286995702 9.323592965445606 14.238054233801924
K 12.2107390255275 5.035650409875248 12.869724131542513
K 6.332385658169572 11.29375827153223 15.20330692576034
K 4.861850789300815 6.972064238217906 15.033885440852751
K 9.345197689115144 7.806860013614028 14.987731452024708
K 10.536742626280521 12.238672582886176 16.17846287717105
K 7.132125062258551 14.613238812848186 17.708499897439538
