47
Energy = -39.21688808 eV
K 5.0903918384264175 9.933292247898903 16.90914951090108
K 9.60427960130117 9.060449539996876 17.01423222671854
K 11.97495060719207 12.503688111383742 2.0631503540268614
K 3.0020114565812412 12.812226420171873 2.442392940326514
K 6.656301260497082 6.536212594800958 2.1080431999741953
K 7.463619756196834 12.968264965630592 2.0640773106298225
K 13.521420079776522 8.242958952751 2.400281709431502
K 10.722194551680634 5.05214771035395 3.595780467175382
K 9.744854420576285 9.41082197549439 4.226410197911967
K 2.0814775159768115 8.271489989136182 2.8018131222492713
K 9.95412681443681 13.436130698139927 6.127965945030053
K 7.708468592799275 1.9162113611807419 5.62678716346637
K 13.804770800722423 10.81147715721477 6.042354860211125
K 5.482855109371131 14.243616549941795 6.108300283762296
K 5.4917800773692615 9.933448995155194 4.806240604799176
K 12.073098399810032 7.113149817143404 7.425448203307023
K 3.881447919096706 4.413571343876759 4.644649303471619
K 7.514710506666982 6.202506629736935 6.650638399828502
K 15.534476389879105 5.914475417055447 5.781511127978179
K 1.7324610562714593 11.664413827362038 6.673374432185068
K 11.773914795677566 2.7219957736294136 7.341238165482252
K 2.8405035146465853 7.4082331498388285 7.608744099512716
K 12.766138043526771 12.46195316524061 10.068539623770425
K 9.343906884237677 9.928819499828423 8.591468707451398
K 8.554717686422995 0.8956231047779624 9.962999798975018
K 5.382690156958436 11.06104823625974 9.091999440295588
K 5.876254776225833 7.132912872617961 10.623690162242859
K 4.828485636743959 3.0256271168051563 8.894718963589995
K 14.308413848971925 4.749633320047388 10.48832459115714
K 11.07041527173848 12.917364262477717 14.151806282432004
K 15.821218531436648 8.869164569078702 9.551332692374158
K 2.0592689709335668 9.976634551491788 11.391929937243745
K 3.189663125510762 14.488014429337126 10.170185926678162
K 2.240808710452161 5.266208182116432 11.802711269394257
K 8.220509967777764 14.042674682659548 10.457216675762874
K 9.667553503508511 5.246278811275842 10.54497755207915
K 12.236515714454434 8.482538669240068 12.011423955350784
K 6.52491848748856 3.569822134095533 13.17756787557444
K 8.31378558201569 9.957178771830685 12.696757889039137
K 11.464147004812498 2.820407951955256 13.600323405362909
K 14.507795300450049 6.132221261297588 14.734175142903636
K 5.178296623106175 12.579181417052725 13.73313615941544
K 4.917601863117027 7.940841194519901 14.734759818508737
K 15.35576513578435 10.794741814678348 13.77193447515631
K 9.499483755762446 6.445824247364476 15.128752417392176
K 12.350634000393935 9.421987574251336 16.69159637101949
K 8.039929085509751 10.595547664098195 16.90914951090108
