47
Energy = -39.05490874 eV
K 5.400551853891975 4.827353963231254 0.6748964905730234
K 10.398122683640613 5.141986894864795 0.9950377845097682
K 11.633909053024446 9.56991512296356 1.3047806758191174
K 8.124482139700163 1.2334876560713706 1.5447173010675224
K 7.423126717441481 8.506772362098266 2.411213690230737
K 14.503431535084758 6.369655611568502 3.464214695079304
K 8.797831191213016 12.982918231139935 2.6943178088352737
K 13.08352171855784 11.726500384342973 4.709745359921304
K 4.143872871856856 1.6164497077119024 4.004392640586506
K 7.528194893143145 4.453729427411643 4.473663429569516
K 11.970696655305114 2.5336079459539036 4.472314896932363
K 3.398019907918662 6.436122995001786 4.683594959012111
K 10.870476145009674 7.379593063191129 5.2903773047096925
K 4.57822412040566 11.056850442538765 4.296573285080078
K 14.799572852071996 8.839638771805879 7.525138120730434
K 8.914708997179956 11.17812890418483 6.586430845106477
K 10.826554520188306 15.424143017831092 6.654437016786057
K 8.181771766302056 0.18956583723508505 6.076024635644973
K 6.554769846183456 7.734514830544768 7.432741994987319
K 13.943014866518908 4.580400634287687 8.172984702130906
K 6.133131629981076 14.942144963850495 6.111195573856639
K 4.718875637397313 3.4290754662544236 8.123966165793682
K 9.536912418668187 3.9933706175732735 8.1687705283807
K 4.144683306011137 11.528829834205157 8.652115794601055
K 4.254691721886173 15.657400537931867 10.620630469546729
K 4.406166607174404 18.449126348102396 7.941814830355428
K 3.165128987660818 7.41228601022012 10.330458203440182
K 3.6337712919568057 15.85880708991325 15.100631918436767
K 12.004182167623664 0.3624760878045756 8.651836677181372
K 7.962318375535003 18.116476672801316 8.812388204468995
K 10.58721145684276 8.149806741681337 9.780058862862111
K 11.588987044952308 3.73880495869915 12.211024909763617
K 12.68624933384242 12.331118982064917 9.44062634871551
K 7.058894896132103 5.250771645769882 11.40407956033215
K 3.5513733896734316 11.670426333508196 13.322665875204079
K 14.032544586413582 7.840562566437989 12.119171754689571
K 7.893159250888354 3.2629989666088375 15.120292994864881
K 8.161807572360996 13.605874428189521 10.048706349014278
K 7.7872224610159435 0.7453277188874724 10.777267761914036
K 7.082924056661448 9.726697711293392 11.75810033159943
K 6.907819579907774 18.4491263481024 13.037714434268096
K 9.87744054374672 7.272161836704056 14.536215040322155
K 11.102239962139686 16.293083198837117 11.654464554100818
K 10.977299820038981 11.538552249534561 13.413669406926614
K 4.8978644326794765 6.9852059739276005 14.761382641211881
K 7.714344254080683 14.421567582934928 14.345933596942348
K 7.067805792721743 10.65040893550154 16.29712448652492
