47
Energy = -39.29945709 eV
K 8.401574847522033 8.369648674029104 0.7482715226533498
K 3.855820164391197 9.17873630534169 1.1481931559622969
K 9.528783734154146 3.84280422420382 0.44530861693295287
K 5.4109130130205525 4.925313662392636 2.331341131942938
K 12.870300237370532 7.1855729960706265 1.7214940809301567
K 7.175583985894261 12.577109853118419 2.6959842612119114
K 1.9979315640587072 7.203828538358999 4.961892562650546
K 10.702140967832362 10.442495478868661 4.2714733833544924
K 16.68738704975628 6.138247249555347 4.222785624905686
K 9.46729278233459 5.739386633162425 4.2566845974924306
K 6.1473696464829475 8.744543558066079 4.682053947884235
K 1.5977356114094916 5.320504535654308 9.107892719214215
K 8.618043718095862 1.5883365190810765 4.533179217187838
K 13.009253533284953 6.411870929489456 6.670269794740117
K 13.224099068922595 3.0490943374923796 3.548430104167467
K 5.396478861571296 15.901249261251262 5.311686377109467
K 7.242627222186667 12.374909405217034 7.406852920127403
K 3.085221176326846 11.79752174513211 4.955210610848171
K 10.284455111748793 15.076604439772503 6.075390489928152
K 16.321722541953328 3.090951157512732 7.245683018268484
K 12.531272649846095 11.031761810118606 8.33038750688761
K 0.10138974755358499 9.969909357513815 8.008849367513061
K 5.529965628001628 4.6676041029537325 6.960690046806664
K 8.851754251118148 8.090784793186081 7.727968926910897
K 9.525595191501239 3.5396008999206154 8.725204807429657
K 7.242344546895908 16.692768478831375 9.16090564776078
K 16.68738704975628 7.626700649141395 11.441608381808265
K 12.560468136355379 0.5262788214701754 7.189460554219805
K 10.981199762139852 14.730369788864072 10.68149004974165
K 3.055010642995991 14.036311105092334 8.774214121965514
K 13.69045286019012 3.1790283384595432 10.710470451096402
K 4.331260639634286 9.194524800924787 9.052894027917521
K 15.968997785211265 7.214056602397794 9.83388620686377
K 5.336331938228986 2.763848305926554 11.380937534805232
K 11.569317900505679 7.228437880406937 10.88266859445385
K 6.957261038059119 6.651473601416753 11.406945697028185
K 1.7541334203558505 11.005721913514188 12.167371002390643
K 2.666166714080045 6.525844007540191 13.208674046536622
K 8.829911180031317 10.737496184868846 11.194450284920173
K 9.93135798989647 3.8015311517718207 13.335344847376028
K 5.766554948645938 13.680396952183559 12.140453618749317
K 13.268995791774595 10.976564805150707 12.889481304746253
K 14.087457269981293 6.464189087091823 14.120916698125926
K 5.676712598753842 9.843173968542047 14.430543163456788
K 6.1964355761780725 5.130809610786165 15.526076872914203
K 9.894218764447835 8.252166255046246 15.042060761402336
K 9.493409712034582 12.936816849310537 14.792866964861767
