47
Energy = -38.58891882 eV
K 4.7435431766846 9.859406032783495 7.638730545487812
K 9.620364673429307 4.2129164144191975 7.3071894756276965
K 11.580954273361387 1.278201597854097 9.743057004338075
K 11.712530946990984 12.310576707839298 10.214068683152824
K 13.664230618580111 5.402741324683191 9.392699954217992
K 6.36487983948532 14.37944909930272 7.187716282926466
K 13.345228558521221 3.7268425456127723 13.547373763147183
K 8.115872966601247 15.341706010501996 11.304754852605697
K 13.516277735773475 3.811761668229487 5.109232397868016
K 6.376845470531276 6.594335696712624 9.931229812270663
K 5.634868792493467 6.4495330277115706 2.022025067532715
K 9.577200733541805 4.51160545300575 11.854418469315817
K 10.455131413196531 12.490136982789254 14.250313544360408
K 3.6061852586347904 8.828314256263573 12.30531239801027
K 5.8185060050220825 12.595690011169095 14.355110976197706
K 12.050661619094376 7.825947089457467 5.892477065491667
K 3.986205794247937 5.321583052531451 6.575654491645308
K 10.308518532434357 8.215259724689291 9.665512258338934
K 2.2801494630347126 4.444603443487763 10.46370501266777
K 9.989249781859291 5.118622413655862 2.626792739235767
K 0.8320563329890587 8.509536070913077 8.675203937164119
K 11.141876471754966 15.655331593559666 7.665873101568367
K 1.9645804744566087 8.182141867649605 4.138669333938268
K 5.5825772069205994 4.534141458167599 13.820947148981471
K 13.81275583506582 7.44493849003744 1.9979829313134663
K 12.599813550082349 8.296311981232401 13.289153079622045
K 5.650937504668564 11.133205208334847 3.5709791786958363
K 7.63040190972397 7.474307861417184 5.620483201225777
K 2.260525080756442 3.569371737395599 2.992345007340351
K 13.441565544973884 11.914811854469178 5.599945491406146
K 6.272914238424846 2.2428522218847897 9.48710200367468
K 8.01802892374541 8.437167643168355 13.919731583156443
K 15.03539960508012 9.771995082228555 9.470727248773787
K 16.277664328373113 4.7048024772539785 6.554105049241152
K 12.5276106701713 16.1222661213873 12.15274432907019
K 9.794766826620457 5.06236080055708 16.129589696585196
K 9.482067694211255 14.220751001937911 3.6870869442496628
K 1.7865104573598403 12.34832864069941 6.087244421641877
K 7.44049524470443 11.20745669756462 10.693947652176647
K 16.277664328373117 7.780227414158565 5.785331833590454
K 9.258310839037618 11.310484434535935 6.70529798549991
K 2.6150505526272063 1.2473623772442919 6.929460408206463
K 15.380314466190605 14.339076113002475 9.050482919828578
K 14.905280045918921 12.401578082083722 13.22964500177407
K 3.4817860323323124 13.13350774350445 10.459927024456949
K 6.456542926545042 2.5102009307628963 4.460288607262255
K 9.8980624754943 9.712984067804914 2.425062610774353
