47
Energy = -39.29214252 eV
K 11.788462840030785 7.46672163165373 2.7208588052057667
K 8.381125753330604 4.360950313603887 2.543997795313433
K 6.940794623013487 9.296255818325674 2.5415429062741013
K 9.88513143347015 0.11866423915024055 4.560280503073126
K 2.1117786579316435 9.68655435744826 3.556136202045272
K 12.718049180091237 2.740616522830615 1.962169330322468
K 7.377838524247305 13.080319464492321 7.740106355935065
K 10.745445669502777 11.877346668569022 4.915827404681096
K 5.329405637516126 1.0544179553310522 3.9469373474231366
K 13.64580485218469 8.103057816074383 6.80536903432091
K 5.018766080321289 13.24764462217312 3.9561057348839994
K 8.801686979474749 7.869559282293575 6.137790808332513
K 4.052254883282881 16.277151399462255 7.405155965000121
K 15.711408202679705 4.838360605495167 4.637256144783965
K 7.607861442284775 3.3055578639919383 6.923777407138025
K 14.2231232891332 0.6558177197999745 6.023071390550977
K 4.424466238377083 5.691253611818105 4.541462594629969
K 4.885996117339572 9.678496906497578 6.82025084573338
K 1.2454460272890169 7.107997342503321 7.67144416580032
K 6.877124884849355 17.367743821520985 7.960203501241158
K 8.428830694865727 16.44294238808055 5.38045262980478
K 1.7018407216407243 12.345031976075996 7.583974290712714
K 11.587152329826328 4.2202266225638425 5.931567393035148
K 5.399186678593464 6.101098323523555 9.15731702436759
K 10.892824669244982 1.1008919567160609 9.316496707684712
K 11.586124651988285 15.136797111832298 8.557881171926944
K 3.26302604169261 2.3909647877131377 7.944772688794423
K 10.080939237679765 6.100026248792584 9.904257156727601
K 15.023362647470728 12.033462921238074 8.301499392426638
K 11.04707775277432 10.573237352755179 9.215678150960732
K 14.392570870106727 4.138826883101562 9.355413090049385
K 7.592669912375356 17.36774382152099 9.979134304102242
K 7.068001790323609 9.70352974705565 10.68006382185344
K 4.328748735606931 13.774583263571687 11.128347792645089
K 2.4954711167775536 4.657215139655682 11.941739269388966
K 6.999735523506008 2.4757977134012883 11.407686498595384
K 2.835687466744994 9.314650393000088 11.425163148543803
K 8.922077760478498 13.417360715739065 11.852832021217976
K 14.25378439617729 8.218708672085452 11.418678843247495
K 6.612742354156202 6.432035262191348 13.654189060496083
K 11.345716180064308 4.266162657282554 13.326676367197932
K 13.334572959596796 12.772769852866674 12.537845283051583
K 11.114961890782059 16.92141764304328 13.021816864626791
K 10.40773241074205 9.186906804402016 13.781211676020106
K 6.674147708781136 16.019613091921823 14.497930681473461
K 6.0754346941558905 11.282980711052913 14.723473267764694
K 10.156173719098929 13.411752238967686 15.99672339219813
