47
Energy = -39.28361292 eV
K 10.560644137741074 7.073583103740699 1.1486993387994235
K 5.961146938073098 7.649511874793298 0.24206305037812162
K 6.954496553796869 3.670462851234629 2.2687298223725243
K 8.485224016014625 11.044146893095945 1.83783153738745
K 14.469359137757289 6.333230559279124 3.460264665413931
K 13.828649631411686 10.635038529350958 2.189670536212329
K 6.249409626223779 14.803704707096557 4.788239052320155
K 4.244286563912614 10.57399868637476 3.561959064621466
K 7.493101518173792 7.555844428680618 4.142084203389266
K 10.663782470037612 4.58955884279268 5.24821838570794
K 3.2888760400492747 5.947751785678147 3.7928690521498862
K 3.1531285261949815 1.726058757837559 5.352152115149603
K 10.945453437262364 13.748719246108259 3.9844045342059164
K 11.573760508324987 9.267415734466386 5.309188766362088
K 16.16182164689101 9.063642620352512 6.29430994472951
K 6.371889532303646 4.046484584809907 6.793777657571907
K 3.3608781706586393 12.444819856586967 7.8508874750952735
K 5.818382006299359 15.747077867678467 9.34868316245636
K 10.095832049543972 15.168264388838532 8.051516196913
K 0.6412147852721907 8.854749414245312 6.308746751988283
K 4.689653450294504 8.246945042194115 7.374172614682816
K 7.832806107532032 11.459414424215996 6.603286099694429
K 14.054653129931264 12.874194637649754 6.832979347276239
K 6.699155338529362 10.296668224144481 10.850714577018568
K 15.553296867003425 10.419688162216062 10.569987790615814
K 8.92284593406665 7.403984479171802 8.258004942192121
K 13.246487210983144 6.6528568132240915 8.814983530048163
K 1.9833857017545367 4.880956514985258 8.320925661293021
K 5.891242722773963 5.87412284452235 11.08828398559792
K 11.231503551617509 10.931069403911685 9.637243579666379
K 13.481879507935536 14.428811473478943 11.026798620295976
K 17.54143846981362 6.616367235023925 9.866191296910621
K 8.902425808462374 13.94027196902975 12.268800116607444
K 9.669279672915245 3.468026960226022 10.099238086735628
K 1.9954419403879913 8.787528882909994 10.691015686347388
K 4.1004067077700865 13.106950664844021 12.557269926862407
K 4.449585686491384 1.5443653131693744 9.890413255216055
K 11.167999081938587 3.743750731427959 14.422608081431141
K 10.08524484339119 7.537820853595046 12.460613037200982
K 8.140345283919704 10.507304847916831 15.192977695366885
K 14.448734397137116 6.8797262106635175 13.24630955608335
K 2.88286103668526 4.376441064798247 13.395135201779766
K 12.43677883384576 11.107772712924799 13.918141107881173
K 6.90527080194387 2.147136576108032 13.535826798851243
K 4.139880532024832 8.707649728934301 14.362429340117378
K 11.395664796422597 7.616924178787741 16.633220433264864
K 7.276142953936022 5.944932982336154 15.553881983189342
