47
Energy = -39.01156319 eV
K 13.681168245303617 4.150595199568336 4.408442532666207
K 3.278646158154337 11.820434906223488 5.5560190617385485
K 13.854491081822356 9.017259668169928 4.612444372396901
K 12.723689039781144 9.579844039355647 11.356614210618575
K 6.031095705952126 4.578504068615497 4.64936152095146
K 1.5520367779851423 8.670372811078703 13.99015923602692
K 3.8781408296366213 9.044345814112466 16.125806228598545
K 12.71356426194662 6.435917807075165 8.154779715118485
K 1.8657381121358607 10.619043262883405 9.76499673461905
K 9.682645718244636 3.2716502227140243 1.883805312962879
K 4.794788628888042 3.4387992601011512 9.143869981757911
K 9.217862123118786 12.990002149934998 10.960797730082914
K 5.340818870843607 14.650675213428025 9.276417252901252
K 9.964585107499957 16.427124098110756 8.490789225701974
K 10.251398529771235 10.881881961510018 2.772448759431459
K 5.152720396721844 11.54801756405185 13.03841033081915
K 5.808367257032231 11.849643526435461 1.6659415515402543
K 16.56887294399868 11.149223754860637 12.748932489965833
K 17.029408506693194 8.603394897431762 6.119380014360831
K 1.2398598456012653 4.448595474537729 5.6155754815460766
K 16.05387368334781 6.780900568157031 11.039739551654552
K 9.913615912408105 2.5845389718732203 6.289948006751804
K 2.8483070246964375 7.974618088350999 2.84261673761951
K 6.313477275266483 10.520455019693447 8.875571084704186
K 9.500687963679983 2.0425839243477606 10.494518024039648
K 6.810331081161471 9.210067568097061 4.894500972946314
K 7.82065658237479 13.52627935926952 5.596992886504298
K 13.800735478139899 2.4604495649536933 9.080594275565286
K 10.085996355429966 6.648851673290371 4.586995404561347
K 13.440334458309765 14.0059303054892 10.721900820208095
K 8.731112694175273 8.729472551405118 12.315718020018808
K 4.662751382459376 7.346311133427403 11.366892655458967
K 8.216225651709374 6.231013947313938 8.661768719731977
K 7.481033333844306 4.506637678611882 13.427205457242728
K 2.9189192064159637 4.245860650611959 13.662553121560567
K 10.186769468502668 7.193554310350194 16.125806228598545
K 7.406826454953467 7.420875562407316 0.974061488392957
K 3.7251592566233565 7.417311591109355 7.161773298811753
K 0.6174668722384344 5.999952173763654 9.873922805586908
K 15.475752407168113 10.704292603748632 8.361351428394297
K 12.319729731212085 6.863545622181908 0.9831286728643375
K 11.950764216309253 5.258848660570507 12.401354896278354
K 12.514424945359439 13.515133843071862 6.131409907503741
K 10.472892548823655 10.138277034042545 7.563883165278929
K 5.674800387143351 7.824191971544552 15.611476180845807
K 11.287928651537978 11.534499972216365 14.790753849604322
K 14.483034772574484 8.160724564429982 15.17207653246296
