47
Energy = -39.18134164 eV
K 12.958418912701342 13.631262236963885 12.36615466758994
K 5.663598611439798 5.811320529528031 13.4452732071172
K 8.984775600732224 2.9127915040551473 14.325262464524643
K 14.686632943940348 6.9025811118950395 8.800558123944683
K 11.377501412353729 10.334171814785327 10.284777486469952
K 15.645614096972297 11.296441945131765 9.16483001455234
K 8.130929961989585 15.247291452446165 5.184762325371515
K 4.491027593139265 12.613619708674625 6.854923753465301
K 9.678971398213646 7.108490987108938 12.642880761839866
K 6.1573342164337825 10.285693023079583 14.603245076577949
K 7.988401954680643 4.2690407264774715 4.898860266277667
K 5.148892583401926 3.0104896316647114 16.676720294656132
K 8.435527354241291 13.315227913074324 11.229102681039128
K 3.528213554464034 7.256885369191448 17.015895074840174
K 9.60168485346428 8.363961120866623 3.8671333425730956
K 1.7031670912835117 4.2315174479163895 14.101692952507877
K 16.67784217994623 8.41942705847587 5.0678645718982525
K 12.833894819711588 9.905399059159333 6.139691193742576
K 6.646687112385962 11.48125123843731 3.2538818290476015
K 10.60647390176119 10.612685307303204 14.953037725687388
K 4.876397281876199 1.6087066763090456 12.234803854329032
K 15.474194263459117 12.76805759448119 4.5047326020368335
K 10.318083716029825 5.6312403504286825 0.8000610124682908
K 8.67657136179912 11.338310516477451 7.10461078059663
K 9.344111997221493 10.037529527903432 17.36385670025396
K 3.0258162007420255 5.207669782727065 4.948241256347095
K 3.800174255498585 12.377328096745224 11.265227435158522
K 12.853398971932283 5.482426176539001 4.827330360151997
K 13.528443639592128 9.096899334217488 1.747654467705252
K 2.311387761020578 8.512110449389457 12.76502565293776
K 12.304819711778238 4.062805270013721 11.209239070180667
K 14.139689509858867 8.647728722878398 12.846516413481256
K 7.8923797076157856 3.782433339183668 9.802781894357327
K 8.09990258333131 6.870596416833463 16.99081170296811
K 11.164128973966815 12.786753453242872 3.1535378158396434
K 12.09018247103122 14.083289934771669 7.781684863372337
K 12.218914993847026 5.712304637350087 15.784325155670237
K 6.47583533624102 9.054080763095461 10.325762801844862
K 3.512360615918384 5.251378143507407 9.60088058970972
K 2.632654738918378 9.708017907247404 3.6234533243747404
K 10.110487899534947 6.882787049793084 8.035476029037909
K 7.9634705099987295 14.424184746393932 0.4887380923350594
K 4.873720938471576 1.7647198419918788 7.422227951093473
K 5.934824656039195 7.087374983779204 1.740768151587601
K 2.074037050198916 9.195090815526004 8.126777659466331
K 5.899849761128834 7.9468642282437365 6.22739693200446
K 4.919838375233072 11.131029490235498 17.015895074840177
