47
Energy = -39.2716686 eV
K 8.110062291110406 5.500967022664663 3.1208896416533483
K 4.338907410954843 7.400396790758307 1.3229904129069305
K 8.059196997853068 10.005460018574073 2.4606457535242696
K 7.381098681781551 14.614759348810463 2.807141016019986
K 12.001995397200561 7.3717184555642365 4.36437626967534
K 3.6202829906226954 11.560940578031532 3.2793664522955335
K 11.50758619905431 12.029795608537436 4.759721497279188
K 7.783468836876594 1.0916229116757683 3.2640813118119323
K 0.9089760384249835 7.725304495095559 4.313593134275954
K 15.335227309885342 4.749797447735859 3.640530213916198
K 6.9984821618382025 3.906414398680136 6.993601146216613
K 11.517302864792029 2.8781399269023815 5.846417703263431
K 8.870505269609236 8.575559208107896 6.98796335548024
K 15.764714021731248 9.625154441793827 5.452607840640727
K 5.029415913322775 7.942733432500536 5.793457647631431
K 3.5819726209974876 3.6923040613350278 4.154146790923296
K 7.012281233609257 12.320709717037042 6.21955692640052
K 3.6132815217761687 14.610616237788507 6.995833559902645
K 9.984904702494784 16.11852140462751 6.594266366631269
K 4.36575198058368 16.477282936643164 5.1314630921286355
K 14.917270138250496 5.490338763212974 8.095080586962087
K 14.221253148533005 13.78055228075219 8.120495359341653
K 2.059006639300949 10.4221211220843 7.830913401582379
K 8.320727520191653 16.91063507718769 7.732973795760075
K 3.975876985564325 1.385983171320967 8.92225000163664
K 2.137770782256385 5.69925418948587 8.45162017092573
K 12.744465944031058 9.41082253006669 8.514574012927863
K 10.048422104232799 12.68214709237008 9.299072756477134
K 10.510597516321551 5.516137565258985 9.307330306979548
K 5.928603961109603 10.96027649112888 10.026998930091422
K 16.819641302236803 9.676783815791113 9.974335324120547
K 6.210768165408753 6.5906426090893016 10.399970752862586
K 11.562884765738533 16.477282936643164 10.81582498008871
K 12.48620786465321 2.1248251709459094 10.734978447426288
K 6.986176958359359 15.67775535041851 10.309703178979598
K 9.572089343706418 9.201879328896021 11.9133200760913
K 2.8296144475275287 13.401733428964715 11.521077380134157
K 13.396951579575282 12.003548177497269 12.328205513808605
K 7.713248657527047 2.4518540407751557 11.503073256145742
K 2.6373785201815605 8.601368255444282 12.260361176745755
K 13.798967484554327 7.3384055543937885 12.336607513041685
K 3.253244364434754 3.9958857400885814 12.648350383294249
K 9.301089025188286 13.762035751441086 13.741307850778345
K 5.8650746660402 11.109814481361973 14.562661514508331
K 6.248038650679638 6.63585136004361 14.946213796858293
K 10.3657825845565 5.094133248913962 13.8508336409424
K 10.018364178326967 9.302044302516103 16.064147501917006
