47
Energy = -36.47534428 eV
K 8.580726662340789 7.424708672937067 2.1464831384102454
K 12.955538761085421 8.523349479774394 0.6645617899747944
K 4.284301851395316 6.78247203366356 0.8195802155273264
K 10.755039241352133 3.609636347617175 3.425969242168537
K 10.837082429878015 11.579404097249467 3.0669273882417647
K 6.062488295308699 11.175334014508975 2.2076124065498792
K 14.32266911488344 3.389272730793848 6.83638925896024
K 2.0518288212001248 4.730249265507612 5.544463194912986
K 15.139309012964304 11.034777297697547 4.016355334224069
K 8.470541266169343 5.930940218034356 6.468957862095477
K 12.414234179616276 14.690396747478843 6.156785009933188
K 16.000695891297934 7.943950120109717 7.512135616072283
K 12.494774100118617 7.3214225151360175 4.719751823578997
K 7.9531526339729455 14.675122405525027 5.127839057501074
K 6.112962306810205 3.754285343014978 3.587244465519854
K 4.564201380445162 8.005685436527928 4.8679859140406005
K 4.032569426779758 12.218651927375355 6.469571982555916
K 8.003627828672371 10.241071144201292 6.147900110444423
K 9.87773392524624 1.8816470321463226 7.529272000198473
K 12.280010102013057 10.64498426450852 7.472606939260753
K 1.3734583256226962 9.178431133001906 8.298759794425163
K 12.133301396467452 6.0667352891029145 8.926118576667257
K 5.232399895489803 2.646855374620705 8.102140084652104
K 8.94522753104095 13.20976644788798 9.150610505178843
K 12.793444639665882 14.186117274994755 10.671315695680514
K 0.9649856299527635 4.932475228249258 9.859050767351945
K 4.931327800669782 6.8680247576048075 9.107322618219278
K 5.284248163078753 15.680596766880461 8.701665081246558
K 16.179977574507518 12.460743340899143 8.132270577695484
K 9.208909732031733 8.790528719052782 10.04419231159741
K 13.884836158260379 9.706810681148324 11.348817331524232
K 8.3202086118497 4.505039979854202 10.722666611570505
K 5.500428796376679 10.938127716464646 10.457399343950438
K 7.796937106759737 0.40821400777583544 11.39298148242755
K 15.570226653095462 5.136405692133329 11.137190429041535
K 12.014957479535468 2.2552652783938942 11.5241698362643
K 9.532273630800082 17.307746967378396 8.624975998393872
K 2.1631962423899105 13.18761045879886 10.982346932751625
K 2.236722729215923 8.208559251437439 12.596889137061934
K 4.282668932091377 3.9144396214081065 12.733577954880477
K 9.546456247019021 11.398704245042579 13.39001185162829
K 11.403647402006515 6.472366711268857 13.402926971635564
K 6.80517770158527 7.5728257895133275 13.5791143036725
K 6.571620662978633 14.733332160752498 12.698542734566892
K 8.232261820714502 3.3604931882388813 14.847931586581959
K 4.642815953143325 11.168586209383752 14.860071806308605
K 3.7031430688263742 6.596183731631163 16.3668940415809
