47
Energy = -39.10282661 eV
K 12.276674910767143 11.847559216278448 13.051495742417211
K 9.344670145649813 1.0382002672295643 11.51587682589877
K 13.735754441667167 9.059084556063182 10.046373077254895
K 2.8207373551425383 8.945589491313942 5.527083162395738
K 10.012784226149467 8.11905897095952 14.153140938880638
K 11.156450792688307 12.211785741032068 1.7815839531241977
K 7.749533092493583 11.106692292856644 11.510879145943438
K 6.625034715856085 6.527421565890177 5.904632477370882
K 9.675091608507865 15.330436720423778 12.293109860642751
K 15.660946153914054 12.288258028894305 2.0954312405420676
K 15.976314071792457 5.103970708451241 10.087946070831054
K 4.6421574183187 7.362374584967255 9.71625452855958
K 5.048526740014111 2.584540701146052 9.287259212285827
K 2.896283347207535 11.528570315569425 9.651711597581981
K 2.476378678142966 16.818155971325307 6.626134736444497
K 5.122751124019886 6.220360088092459 2.0593381177212855
K 8.462197081991794 12.255241618569645 15.679641416307325
K 7.209016667751867 4.9607669599683195 12.338004820962901
K 14.250322218506394 10.729660766208765 6.009477667576364
K 11.597958594304927 5.095217583415776 11.199551324748784
K 9.201991276890153 3.4885598753747002 7.74210922463221
K 6.5786070341365255 10.796623402648189 7.309527704345947
K 5.909929232961323 2.1430109373011828 4.678461010643674
K 6.281032102035515 10.705239286958017 2.8270236619328717
K 10.785000934303149 16.818155971325304 8.20970982443171
K 13.29000152009389 1.7076555825358029 8.887290995172956
K 13.407828978040722 8.123293499468119 2.4354033585872474
K 3.969245235864933 13.764288442423295 5.505388397056409
K 12.969101840925008 5.964130781779812 6.634846770088886
K 1.0406306501520906 9.377759727362248 13.070366410816586
K 13.794375907043742 2.398843291945642 13.448612389562799
K 6.565034634971277 14.9119764190661 9.212854735528884
K 9.199724721074883 8.161202242083975 0.5686338965609067
K 5.2762376936774595 8.767894601373758 14.190044536816172
K 14.493085985552185 7.004045737091292 14.104615126726157
K 9.801390435783853 4.762625791876349 3.278600404769143
K 8.618224881526608 14.176271964010503 4.938567071402363
K 0.552320662389289 2.484436984402531 9.679976898895097
K 10.732564346152676 12.30849379204011 8.484100018413384
K 9.314907546454332 7.820932232912046 9.247272127492048
K 2.4272234865972866 4.461328277348006 5.94809042561665
K 0.3153268676438032 7.004370131102316 9.240500889801755
K 2.464366576322477 5.092943101520102 12.887079829334443
K 14.363459428098453 14.194340437407126 9.618341871776025
K 10.065571779666541 9.254588135472213 5.031039083518551
K 13.375525026580565 14.91549181501306 5.099700652651697
K 4.6914199915116415 13.442780371743071 13.410628927272121
