47
Energy = -39.06043773 eV
K 4.260405970729147 0.6410984010353479 4.996176925606846
K 6.846991992951524 9.130583617835041 0.6929666683994409
K 3.5920389526971475 4.729704577867462 5.383114501842789
K 9.389404774959369 12.251447555204349 11.662357685251115
K 2.6330498816631374 12.05973162467142 14.293444047702444
K 1.6683363982794404 12.036373601712373 9.737589447623195
K 12.455535397837801 4.637308460485759 5.28100851541638
K 2.959945263320569 8.21529988099401 2.938974619948896
K 4.521297958979676 8.124654889219011 15.12445796447436
K 13.618715116741432 13.484442347793545 11.61072607578868
K 1.8013869422688547 3.7113422065563895 9.193933121389987
K 5.286921223090146 10.601834626349513 11.422892774616244
K 4.254483267644006 10.73233554702492 6.335242193197671
K 10.74743363998616 1.4093147154195578 8.306833626961856
K 11.061058711972422 10.61245354006379 0.9488049232639911
K 7.095320524967349 7.427140610164586 4.757463363026585
K 9.10835021178067 3.151179283223451 12.1855301479609
K 12.916683476763932 1.2299140894239524 12.485461855700724
K 15.185227405809824 11.771680912906264 7.856174353802899
K 14.151332855120149 16.08915067026996 7.880817215617154
K 6.063159252053004 2.3932531019582366 8.678282668824936
K 12.02007727465284 10.307765087073209 14.51887666379534
K 8.12007284225196 9.917947192857103 8.226225185355052
K 12.014613880568156 9.016714362759997 9.974715311213114
K 6.2005517776142325 14.905194678073228 12.948409720092556
K 15.256081745561058 7.544834014740971 7.14839606398619
K 7.453742037420309 11.43278656498732 15.477784166538159
K 4.97850637799896 6.967039885363689 8.879045197538037
K 14.374302956676942 8.202336447998064 2.62710643829046
K 10.299548088877058 16.423101027870295 10.734434570344286
K 10.562245709070062 14.76464110933023 14.933463357372016
K 11.020372561379904 13.18825161652782 7.627421811852665
K 5.7234938701632485 4.689669211564637 1.4961404744568858
K 9.354881943665632 5.652244901202509 8.355349520680356
K 8.194001285034236 3.018368163536707 4.729513800314536
K 4.862872367928051 4.613125710734756 12.483996178893905
K 10.175675362040716 6.272506153249728 1.8489016593844012
K 8.176612004768446 12.012719449336165 4.1433096278635375
K 13.381649425860155 12.922230162537872 3.9404913203590106
K 8.39215833003614 7.690500924480941 12.552302223288928
K 13.586285320594905 4.543779196545764 9.73589208530539
K 11.403277229804948 9.08948998952672 5.427557016256033
K 6.561665604445146 14.06017694021759 8.519453719840048
K 0.938488242247219 7.974186695170499 7.1971348681213065
K 1.6615835068666005 7.962138321867807 11.709946133018514
K 12.44094722122618 5.875825340515882 13.626524923420616
K 15.653329912281368 8.936298690403047 11.789471364651208
