47
Energy = -38.97021683 eV
K 9.207802103188257 6.429873675960148 18.74936885233788
K 4.9235930065645555 5.896616809973019 19.906421124196214
K 6.6095328184108055 10.068620552306665 0.535854430174104
K 11.122963502801005 9.621261814470657 1.4305978190997217
K 12.08963428916789 4.8785994393043275 2.0606111109036203
K 8.220258062122387 2.6242268965775515 1.0825197310363228
K 7.97658212158973 10.477678799610937 4.722364488227751
K 4.040581113914921 8.370680028690925 3.8304911345601766
K 4.905105570973527 3.8135207680172725 3.965510757388147
K 12.539800909326553 11.758618343978686 5.199566205608898
K 8.032067401323527 6.514914621728917 2.8699945742698167
K 14.913340693128518 8.114382525972214 3.3383135115697185
K 0.8434184410356436 10.281053965646594 6.471595558951521
K 11.197873921905938 7.539818235582487 5.457741980291674
K 9.057397417332085 14.592867856301485 5.106594901793081
K 15.526753784094348 13.049001510010731 8.103745251431551
K 9.60993672694736 3.0794381479929513 5.886614449277434
K 13.985881162065626 4.420860627881764 6.565111406141678
K 2.598401595315835 6.1765710262393165 7.455204751916632
K 4.4407570817916895 12.913051398242116 4.910116388446961
K 5.493347316086998 2.4706514957784753 8.066683628613335
K 7.099803656050567 6.500123798068156 7.342605177309025
K 13.222490541515825 16.18176767246124 5.6709716114200726
K 9.637083004282147 10.357546235734118 8.647136179760839
K 11.364981345841038 14.362169855177937 9.141400856775071
K 14.775360310044672 8.605560897511664 7.821498375558805
K 2.293236497582688 13.488818142703972 9.192212858933011
K 12.173704087747263 2.0324404332668036 9.908749276539528
K 6.80830105977262 13.89242090491254 9.008250667662816
K 8.217102080878597 3.5834192667194174 11.225307390914468
K 4.886700740091541 10.063662534736334 8.283401229747266
K 4.013419198938196 5.204202041286769 11.49357237575325
K 11.023220994460791 6.348400380518121 9.611852452108687
K 1.5344178925908245 9.180067478610173 10.95476613508784
K 14.63655292004628 5.693389913732644 11.442095060286308
K 13.226818147597305 10.567426918645566 11.219026382414068
K 9.14742183792027 12.187322783585861 12.613998072344891
K 7.021674814589528 8.258277865484231 11.684330986091245
K 11.41048756618179 3.685099265681229 14.277743752980271
K 4.6050794530785515 11.980897332400145 12.85101803845928
K 3.3875959455398257 7.994886397456053 14.883284801718254
K 6.9177079566419435 5.269786049467194 15.151556933912376
K 10.86386135627329 7.87992470857547 13.808167935251907
K 7.393829979699018 9.877449923905775 16.013272858477407
K 9.993009062068122 6.500466414148996 17.907501441360477
K 3.5119520634557793 11.662429844386367 17.158676414931584
K 5.283688070606545 7.334264023138426 18.749368852337888
