47
Energy = -39.21441473 eV
K 4.340975981605522 14.31510951727987 5.666205052203717
K 7.102527006487539 12.056911747968838 2.6262528234565945
K 7.26518890095355 7.663885673331692 3.6455170247484556
K 11.631716685536738 13.788173758795093 2.9189577554716184
K 11.009806949874744 9.478499017535404 1.2778453275032964
K 3.0030383980343034 9.892967085011389 4.619340069184249
K 11.69960987870179 5.9473055002919315 4.3518750248279545
K 7.857757258968197 16.611499447871783 2.9195004194321252
K 7.707843368750756 3.4991986105276314 4.851092666982016
K 11.446022722571621 17.39903711491538 5.779868872282562
K 6.418940394104745 10.535281563736328 6.91695069252874
K 13.291810056188151 13.312769228509064 7.248309953864354
K 5.285594825955225 6.431749214076283 8.201607554758038
K 4.0640241623597895 1.9276450637300178 7.199815866632111
K 10.415979242527166 10.238968677760969 5.347921428786423
K 7.845321844525088 17.89451968434146 6.780113768158533
K 3.4386483271862995 5.35287051671177 4.312362365155294
K 11.505345884905356 2.3493578446021632 7.00325150396628
K 14.606596074144573 9.604279341145489 4.6088345717890284
K 8.754331630528965 14.22064623467716 6.251959156881904
K 5.732406909693286 17.915893373711633 10.743138209883659
K 7.040559716781339 17.89451968434146 7.343089844525513
K 1.2502463851113708 6.499002664004634 8.286603709645695
K 9.775505721855144 11.710976184969477 9.479466017484436
K 3.735235131814574 3.3253808993411864 11.417818053147414
K 9.400021928331146 6.784795871291415 8.105626679459062
K 7.76056452806105 2.8270145500904036 9.35025263703363
K 12.8927307963851 8.959690547228908 8.697279062793138
K 14.833196741244794 5.403454521334056 7.794637321765618
K 10.392380395851646 18.193852672706363 10.541618283669543
K 10.425494775931721 16.01654456223807 10.064765117617696
K 16.930871375891858 9.492738850594195 8.720541601510169
K 2.626325203913416 11.072153394234201 9.131583042236025
K 6.406253953889189 9.780685630808897 11.094635234032408
K 6.014749340828518 14.171035611306134 9.952807478863999
K 11.578334081713406 4.2774860248332995 11.174229198193771
K 13.298471156757023 12.055657104185677 11.98190692260701
K 10.406199105238434 8.540796753773458 12.288589567050717
K 7.155539936582462 5.758529347606698 12.487744387272485
K 2.958051514633825 7.7771131141971255 12.501423241860486
K 8.169416084358183 1.7633136545017396 13.816559372764441
K 8.848003351885295 12.856943319040884 13.628885686155169
K 14.616453297619914 7.574819510970034 12.504672859913395
K 3.9950767942794982 12.151838501462244 13.738817122321182
K 7.098802434644065 9.111842880914873 15.468500186547146
K 10.511052072019984 5.541598927974072 15.466534714156559
K 11.760317454273743 10.04969543111015 15.994032332374868
