48
Energy = -39.97796263 eV
K 10.44947671969346 12.148819863824174 1.3546330578494752
K 9.374992981009584 7.53211910964151 0.48407264487654983
K 5.736548996560146 11.142735251488133 1.8065512232503496
K 12.570738331870963 4.093403486313755 1.3271733110970647
K 13.153940603130138 8.32710966537235 2.7269270197686786
K 8.154093577878468 3.146595128728007 1.3276981974820015
K 5.621596716836189 6.785785173952455 3.392449688810071
K 1.7810743602078973 9.390008507727169 3.963194448494551
K 7.697540901356701 13.995753779389323 4.748640864744028
K 9.049876851318807 9.798451773351738 4.387892452470452
K 3.0143575205207105 13.790003318304736 4.863830974961899
K 12.234564056484276 12.903242076097477 6.052742933842219
K 16.4031568402297 8.29811237646974 5.951190078308231
K 9.946517715309783 5.555269897924472 4.391164924886441
K 14.042710495538197 4.595150947031362 5.667447464551067
K 5.116438807950271 10.4728629055612 6.20710790778026
K 11.004823663182625 1.3955240218694633 4.702430417232872
K 12.159890699523165 8.50437331239611 7.066778599209206
K 6.676594716692771 2.965936013071733 5.668236034825278
K 3.0102756217053797 6.58107730885281 7.5970865968786825
K 1.3338063638067006 11.350144449861427 8.377774615609823
K 7.4191820245749245 7.284345453649102 7.73156127021783
K 5.185740336107888 14.041783428028875 9.0381438522971
K 8.756028291873356 11.542266035006326 8.469185621831947
K 9.44068283593697 15.862388111813575 8.411287627102608
K 7.61644481725798 6.719212407034006 12.10311787299862
K 11.086508742068908 9.063696256770386 11.108049248486086
K 8.864027898115934 0.3477541629511382 8.568971171907089
K 10.338131764665315 4.643238024988817 8.907336348543653
K 13.096101455396893 1.8095013937145739 9.64879004476305
K 12.151779861927634 13.556390992537708 11.037442678573397
K 5.744644125933633 3.4278574443573966 9.955513663427386
K 4.573169016193536 9.501569267905763 10.544881290893038
K 14.679320944519606 6.474525598847526 10.086335700211691
K 15.228617186062555 11.04677451860265 9.436238166293242
K 3.0322750320877576 5.6287301427299425 12.670141656577877
K 7.662850160525854 15.442546371628993 12.816645962793547
K 0.775790492030482 9.591419116123372 12.641162773717394
K 3.587060618689624 13.039267226907297 13.28811592245018
K 7.76261690673257 11.374082956641637 12.683705434218355
K 9.136185510187516 2.232549541653557 12.554389777473496
K 10.932014180976946 13.009691682858127 15.241419150832296
K 11.784851664125991 5.52988161879215 13.459242120102948
K 6.656945923211481 4.677284524902486 15.482898447797226
K 14.152813897266798 9.842410786547555 13.661766312848286
K 4.7421967851552065 8.98121540420668 15.215400220478237
K 6.699313214633552 12.872372983916778 16.556899663748524
K 9.412890513921718 8.735966920639902 15.667535283470242
