48
Energy = -39.93816812 eV
K 4.818552577352432 9.38328268625344 0.6823856922408656
K 9.17125552531096 8.082722653525591 1.3980937487722045
K 5.484319964803417 4.9429728841081415 1.3689404436404435
K 11.98129404858218 11.33815771889861 2.5186065957259847
K 12.52058316149616 7.017092278393818 4.320917055236709
K 7.684297307707441 12.31688133590064 3.0260783614904923
K 2.1470734184710323 2.4173693914718553 3.179493940369115
K 6.033515835375032 0.8667667816290595 3.880659867358249
K 1.8627686094545413 7.182214242331943 3.2005094035858503
K 9.063834154628903 4.235410578315269 3.933254228874038
K 6.18871962759942 8.135694008314312 4.516724768974932
K 3.480824961655105 11.48139853698428 4.807966012346522
K 10.727873767998965 14.249053048009245 6.126400192544481
K 9.66768495299713 9.99714529134985 6.236704648710986
K 14.282250512104937 10.735645466630741 6.202374391773895
K 4.617384217001822 4.707461573736438 6.26497746575328
K 16.045312191995148 6.0599998442548815 7.15099731835453
K 5.985478791413911 14.975081633362048 6.2546030946677735
K 12.42218061310503 3.48816430569857 7.4755252558754375
K 1.1844069514875388 8.64166208589972 7.281970327001415
K 3.2927213757610674 1.035938751237506 7.645945445407437
K 14.932886465852537 14.516531277570246 8.931159531687687
K 8.081894219881283 1.7198735942108836 7.6839048424516205
K 0.17772884665880734 4.2797636766456675 6.468729479071605
K 3.1512334546284273 12.879620310735591 9.226115001991555
K 8.675230595630977 6.064441335582232 7.72006784583242
K 12.500552063442315 7.619503101923311 8.838965859465825
K 5.060257470541212 8.782051646787247 8.895372114678532
K 7.520923841061466 12.924517209132253 9.634782203305393
K 11.756601244199764 11.770854593139465 9.737501255714584
K 16.012180025589302 10.075804948442734 10.383675351864838
K 2.1927329197676992 5.285510621802575 10.29717181185342
K 6.249629820932758 4.220166127401914 10.811044627536852
K 8.48843654427398 8.832251006714841 11.286158844484438
K 1.620666231798826 9.449293611695047 11.823959821894775
K 11.046110022263367 15.810219245968176 11.112465341497519
K 15.179369098481876 5.748851586267919 11.835291788498383
K 10.571886898313549 4.9810963935137975 12.027262080951632
K 12.479476483959113 9.059704968518778 13.044796054056654
K 14.313386536611453 13.234555544944149 13.25962593456189
K 5.2066890119680975 11.511668212234547 13.293228131050242
K 4.871162744342001 7.129903190875368 13.72103256862173
K 9.509451591346455 12.460145880099462 13.775293620968363
K 16.31210249589611 9.23265098794575 14.871146448737393
K 8.808074788223372 8.400508504676107 15.616063568875811
K 11.477459505592293 15.711764326026731 15.617012928741273
K 13.063906307466421 6.394598250207899 16.139103171112506
K 12.514052249092842 11.050448794749286 16.912355555906736
