48
Energy = -40.27629495 eV
K 9.829216013444164 13.775438563916733 11.98488693687704
K 14.476521566477077 13.091976270468853 10.974722935652755
K 13.0514775456202 13.859659566171338 15.667485612033431
K 5.172097695977303 12.640696183792318 12.670927961405802
K 3.3023455790392537 5.563085740861789 10.764128578174013
K 7.322795806021059 4.77532546013911 12.748764346205991
K 5.130507765734471 9.334590938245857 9.521320538765888
K 3.7307320876462047 14.630264607116576 4.451940029803426
K 1.7700522378064854 3.417563277192385 6.651291365918341
K 6.334645415376044 7.126486369120041 1.8320802915434777
K 2.466643968719575 12.716905356373301 8.538019436237203
K 8.941231551984496 11.606925928509153 16.116325213055443
K 14.88032724382575 10.822851114712842 6.701889366651204
K 11.539801341240455 7.406693926382501 2.53718771296347
K 13.108423315629496 9.728465172365205 17.79853047744088
K 4.046587266922216 11.185721773144142 1.0326962109807583
K 4.873227296366444 6.292548861824401 6.2658746513761
K 8.156691290036632 14.081863220899274 4.006556155711012
K 1.0661465986229122 8.256206943423225 7.484448132307864
K 15.014393356850285 6.673948686512294 14.650691416622783
K 4.8155792091073755 10.456144452829841 5.162093761045995
K 11.202232444515621 10.147837037310863 9.260856991863603
K 12.353122370046568 10.066101892879686 13.5196133411624
K 8.226182106620636 9.347612595993517 12.362962465739475
K 12.537528337924378 2.9367799616676726 4.109867519586184
K 7.072135632870102 13.095034206094077 8.35527782726879
K 16.471604672798428 11.113555113752014 14.624130965229302
K 8.994005754013747 9.633650633123784 5.5317793643389415
K 8.958719588207284 3.3101663057941892 1.0513719728426616
K 8.51942491970393 0.5213812285603855 4.821969073574932
K 15.294345548478312 4.105324111750168 10.443726113152822
K 0.5707123288554288 11.460290777602506 4.0903763838196605
K 9.719562700197725 7.070822286531269 16.02928219990957
K 4.103343015761607 16.302987856845917 5.924989389404698
K 12.25375552304472 11.987950967790427 3.312405555678365
K 8.773072682397617 4.974386855051035 5.033473708108113
K 8.566391129607137 10.815940794905885 1.0431260231845685
K 6.21367938585692 2.5753715487046573 8.45409386773002
K 15.625785424101993 8.58448796015038 10.555421096322956
K 4.8207953302970505 8.202346945122494 14.637501761140493
K 11.60510625007899 5.953597458731461 11.791878052258168
K 4.819383202275514 2.9545889111247985 3.0811382861513548
K 12.765101702783047 6.601266975326951 7.061031770886191
K 1.4211479196083976 9.707848589628101 11.966833376818325
K 10.849540410051706 2.6255267401774263 8.530904890727022
K 1.8606300139611955 7.08302807528339 3.005522796322313
K 11.463158869159159 14.076000341688585 7.406729466651764
K 8.403938594473379 6.562435691006391 8.925724619492195
