48
Energy = -39.84021056 eV
K 4.9144810115603725 12.531286131032108 9.6651425955922
K 12.007038642294251 8.50928078450077 5.0725728028412265
K 7.3836883227041525 17.224633806592365 8.363407657452681
K 1.4697490572720886 6.933626967364859 6.309479858572338
K 7.262493069877026 3.2554723398523313 8.693678352595935
K 11.496575552457134 11.78315970585335 13.309230039941813
K 8.924679010226114 9.12586333236272 1.8774568100267088
K 9.620752300899056 15.10172444776408 2.378489722343759
K 5.927653130424398 1.2567657123376084 12.371726044345614
K 7.201799554312021 5.921527079587424 12.047270432137761
K 4.356955930258653 4.805425664772146 14.870592721671354
K 10.225370043140346 17.224633806592365 6.774045674134669
K 15.090813454907224 7.351079081317851 8.113782468878975
K 6.825832465173521 4.507709456149809 1.4651249156293127
K 15.245349405881887 9.186143423319445 12.178868546219588
K 12.749953423641292 4.05583491874098 6.043862123160829
K 11.181468638181245 5.148080162411354 2.0002376330015026
K 6.561299302723324 17.039943269208628 9.75712510930792
K 10.459127487178204 6.329771190818368 9.033482475258163
K 8.278306429281033 9.768974643775033 10.87412495273332
K 3.2931957664361033 11.222427927116787 5.8277540224578575
K 11.502113534080243 7.277410754401792 13.194102883726279
K 8.907606450037864 1.7453774967560896 4.795501446090471
K 11.166902219924433 1.1110139186403865 8.8003736843558
K 10.06819152453602 2.9776656639224557 12.760905263095337
K 12.174067845900295 10.388236418966311 9.160464544300993
K 14.032922438942606 4.257675081485988 10.983937786805354
K 0.48281727201412805 6.557905714704529 13.006829827907978
K 6.587370761472603 14.673132955382457 5.945695691036872
K 12.90856767469062 11.818967930884018 1.9917882603445087
K 4.773163999415702 7.9771070249856315 3.3389755894933324
K 9.279576856975993 13.823721049641694 9.669681246633967
K 15.237607039552204 11.691962312102113 5.967032205085722
K 7.911535333605303 8.837360455491142 15.343909573797182
K 3.2724948144182626 0.7325892058395105 8.728349659039017
K 6.906649797094223 13.074046463808434 13.583803620664357
K 5.372231551146152 7.749696650533732 8.236655671298378
K 11.009022934992297 12.953071797439948 5.703591008470073
K 5.931952230376191 12.309769527686877 2.2876340495706384
K 8.369331447168479 6.075084709069291 5.272536328834566
K 4.520105955163655 3.8285993209896976 5.421638883402132
K 4.2272975438477705 9.176675133647166 12.859960534821962
K 13.812129890774667 15.737130325254071 4.342633566986491
K 1.2570488007588414 9.7074312507348 9.767629199906343
K 1.4907118161400084 2.0348257683779134 12.894392843620619
K 7.855048223445148 10.385825385713874 6.244716320888083
K 3.170386643410578 4.813292314603453 10.149371745898227
K 13.664744957806633 14.702327394317722 8.888615162141384
