48
Energy = -39.80651844 eV
K 13.352375168153285 14.916896586705507 6.443306072025047
K 8.710179597641178 9.220093842165225 15.757002615678253
K 10.34824809779807 12.81987739389477 3.731704224796347
K 3.5047007171253055 4.28806920504683 13.963506038467548
K 10.353575464932636 6.392568998031463 12.387202459163003
K 12.400857550035168 8.218595811147733 8.93711770172018
K 0.1799819615913183 12.061899600067171 10.397580236947377
K 3.637453651015129 14.867696037043538 12.182778001264934
K 8.034971299338018 12.958238876217159 12.228549858670478
K 13.556733855450634 4.344955178659314 1.409112575007466
K 11.63608389856895 15.281089868758993 10.748217868338205
K 6.30152398156307 2.733118693721753 5.9951856751595125
K 9.413876417663662 5.032398572689339 7.820881675663376
K 9.780533270332997 0.8531915455420412 8.973616995112241
K 0.8729249929773216 12.000219001721455 14.652041347135741
K 16.632310603644143 7.555381884699311 7.79884134282617
K 7.58079679636491 9.223968870975613 1.7785219915947794
K 3.259969901371274 9.340847797970927 3.015638781384196
K 14.042084199901428 10.569086293680376 5.641544908933958
K 16.566224491939483 8.21510677610311 3.0278725499826336
K 14.972220323749772 12.673261490640698 2.2064707101006795
K 6.050009200816672 7.119071712209999 5.532592992315525
K 9.408451194200353 5.126693564388138 2.9741912019854584
K 2.922229564543513 13.750801272865493 7.0915147863090215
K 14.844660596270316 7.4555357203521035 12.240878670688284
K 7.960796236490765 8.828736496278863 9.354614701146069
K 2.2611222169526783 9.182428499846715 7.373819340186101
K 14.907794647222023 11.837777176397436 9.753789269111083
K 6.023949083091486 7.726649391469657 12.924615909001067
K 13.471914482693109 5.86750206849055 5.325563776626701
K 6.40974090908582 11.446070747888193 5.737710069903849
K 7.687392299589052 4.566610399129434 15.683663160667427
K 3.600114896905783 7.972449384858997 16.54397049713715
K 12.35700774799427 8.751853597309577 1.7040811997113778
K 5.041388846204341 11.709265367268157 15.014179948358054
K 9.97420681509582 8.785140041406542 5.369874222453098
K 11.038204073374784 2.214301471917482 13.226936150545095
K 11.697867711244754 1.8992830562416287 5.021057156045551
K 5.070619443937966 5.298257377792585 1.7182615111934312
K 11.625314811741642 10.732439950552779 12.513230685777666
K 4.57803979517154 11.198786976438145 10.300715695022335
K 1.6918377015096493 8.338098048332514 12.325020638231482
K 2.2588936677505616 5.171798317524611 5.19219628910079
K 10.5168262435256 12.115413680009615 8.19463741755494
K 7.168127442549423 3.387237049689919 11.33954891265342
K 7.2998496761723235 14.923940842927928 8.293191608199692
K 4.333828745115399 5.755644823299082 9.272690795700527
K 13.29946237983078 3.908927309869327 9.518036434640512
