48
Energy = -39.77655839 eV
K 7.9861955965489955 8.81572874238285 0.14638090944455992
K 6.726903447362264 12.337945991200725 2.9292856553190934
K 12.439211503368375 6.941894786330211 1.954157584918967
K 11.494598589758114 11.531457814873091 2.433583722755079
K 8.634890264298384 4.378195566277057 2.068257766387103
K 4.463668438784337 8.280368008596717 3.2715555491555746
K 15.907734682902422 9.850673274684976 3.2379419473766764
K 12.96329727057679 2.367482427411659 3.2436697487430814
K 8.802971487992473 8.373956053977748 4.325595744595067
K 4.736641871085551 1.4689720449944408 7.980836641532507
K 9.653775558150967 15.556074274118897 4.58450782828849
K 15.78989738432143 5.555118842602189 5.489693857045321
K 5.729358106913057 9.472097735948621 7.6482040705851295
K 5.94057470116549 14.15275451978005 7.1368122672692484
K 12.882057196644745 8.764083176618815 6.102293217980201
K 14.080923752939846 13.125978239716456 6.011515738631398
K 11.117319464617161 4.974433053585253 6.106580424056214
K 9.11595005098107 1.040939278724329 5.572382523131882
K 2.373897844506033 5.748298837747773 6.679548617485722
K 9.634235665637524 11.779337157101661 6.617121220071295
K 6.677825167267715 4.971838370031638 6.0570630857207295
K 16.878304566807547 9.536129126888795 7.972898387206661
K 1.599937393897526 10.67122355139127 6.980008604438368
K 13.83256400797802 2.088432455230327 7.964490631049197
K 9.511243734121567 2.8792508381920427 9.741340073152914
K 17.429619131493727 7.327442903869737 8.864485466723018
K 15.929880835975522 13.378337571416887 10.389488879567633
K 5.5611357202317215 4.983605435969904 10.299828237994967
K 12.583264501065853 10.664885628160745 9.79713339302376
K 9.230567481852292 7.613519387444827 9.237440938969522
K 1.0644657504526296 3.775195800571524 10.492649942038986
K 8.437589892723906 12.213957537183925 10.806765618117028
K 11.401278896676978 15.172642950153891 9.130344514581454
K 2.5101314491306463 8.107633379719685 10.620474895548565
K 13.079478783429304 5.966650455417382 10.36087272358831
K 17.333865004172097 5.321449279488476 9.806747683565304
K 3.9778017170880053 12.429687139658242 10.995367230538944
K 12.289731928262155 13.123134269856175 13.41006949265806
K 18.326694068003775 11.162162681749138 11.084142969721182
K 15.688530994824193 9.18831444274325 12.497828019238002
K 8.426376789123573 4.867856136744333 13.770101106334739
K 6.406745113324944 8.661335131300783 12.589967376537139
K 18.28538639840061 6.9642264134846545 13.432306449351373
K 10.909228393459442 8.822793083066975 13.474389379487942
K 3.6135075708165236 5.451114106679677 14.377181348013558
K 7.298072840201302 12.03235209187657 15.089796178739077
K 2.7135713894154625 10.171434594186632 14.754162091283227
K 17.333865004172097 10.877782917577242 15.402907754766408
