48
Energy = -39.11075442 eV
K 11.10832615728197 10.619916743445524 0.7143028975328066
K 7.128263230753232 8.34110436288356 0.8783367898019607
K 3.0593279234325714 10.437900500948631 1.9761606122836122
K 11.463524302457747 6.069306743085237 2.1133037950352844
K 3.268139836294662 6.0346175298598075 2.279899397358324
K 7.071308559243204 12.434926146220194 2.9890356238790603
K 7.3851115511548935 4.577917365204345 3.34213458551965
K 14.233119798692199 9.435187510446621 3.6358595287462574
K 15.169852361468477 4.733340829592635 4.406462756954679
K 11.692458873821266 13.351016993762672 4.364458803358882
K 9.689753363570171 9.251197755178792 4.578617690310466
K 11.03577916939192 2.40093818288814 5.056834978509288
K 5.640215677722617 8.420772049935703 5.023899121967432
K 1.2755019874862872 8.298117276005998 5.760685765518383
K 3.396684543190331 12.393638060754279 5.994029730056499
K 3.796514168819365 4.609474398759224 6.638077765804557
K 15.831504627371539 12.812975129491088 6.2124231162050485
K 6.485864037629369 1.0049616273026816 6.033234397712811
K 12.065953582632513 6.370092666006834 6.719190043122063
K 16.206933478178012 8.09081921244874 7.448771925296846
K 12.551089114394378 10.654469432828478 7.63615500618545
K 8.02300279945665 12.456919396633332 7.82961472782955
K 7.989904375612999 4.668686288979797 7.566337795472153
K 13.739417169497738 3.077923168056576 8.720152393693988
K 9.694406788964516 0.539680544298913 9.132778810224867
K 0.37970702811505297 10.652717227203064 9.568575649748576
K 4.452708416496418 9.296316395989995 8.93383982622525
K 9.03872131621917 8.42255177891776 9.189159651136439
K 12.277408201956092 14.79962015042074 8.99757903289857
K 1.6117928699083652 6.153856693222685 10.184108252665771
K 13.47637099848525 7.600390027588287 10.999368134690009
K 10.172966785475047 4.327736865202118 11.245861808201216
K 11.12849722011141 11.46802774606611 11.6367084146907
K 8.388335871145378 14.846091428373324 12.254049122004822
K 3.946108141488099 13.383386422719855 10.81872531902308
K 15.445112672548687 11.839456061014781 10.759093500487362
K 5.4984659627640795 2.266014022159451 10.541692811869902
K 6.0051761678946205 6.387685518770434 11.624685015657574
K 6.929234207309275 10.683009884405056 12.34605341105832
K 12.84646153528697 14.7687633920362 13.550035073410838
K 2.638850829381747 9.541727729821293 13.189637710625153
K 9.977520688309387 7.811984627074576 14.119036102503712
K 9.54020276482087 12.069362563495309 15.726377486909588
K 3.0099533792999167 4.816011237576576 14.220513226419259
K 4.965444163140535 12.93667676979479 15.251503247198873
K 13.79738556657407 10.480066454361106 14.828045049023826
K 7.3257080330793025 3.892117370688386 14.783221645449952
K 5.888661618118966 8.213281634527474 15.924124366168284
