48
Energy = -39.98473791 eV
K 5.884042709017219 0.5073423510903039 9.283430475073091
K 5.237416166575203 1.8797885612489134 4.479360727055581
K 9.33331666705982 3.446450616333692 10.626989552852411
K 1.337212928536499 5.011746223407323 14.69998359174643
K 15.253338405318347 13.036382140614053 5.024696446570463
K 8.74480640277407 3.762756240443148 1.5164139076337873
K 13.418193680626773 4.6602049337642 8.428468672149897
K 16.754828842333055 12.63870637602393 9.311874797825558
K 5.511516138467686 11.77671154365252 11.189794326131052
K 2.252047031503744 8.855245000125421 12.596636508535562
K 2.084814152769496 5.579565327378398 5.234861670588561
K 15.578732456650378 16.740401817184583 7.422217378509054
K 9.247197559828223 5.531412660541493 14.831551013697961
K 5.240889433453142 3.7820051350131902 12.843127999490246
K 8.930040416567719 14.503026436268371 12.283915507242318
K 3.80145695433072 13.384883918451818 6.639189785803913
K 11.069928890849358 11.293884541691572 5.618924505341314
K 13.064036208890709 7.824189830898014 15.601041427302688
K 4.055300287384405 9.725830680594402 3.5101784635604907
K 5.298790661718887 4.768167845901614 8.289018816913844
K 12.21740677397588 12.256670915809547 1.5095933750872794
K 6.509642917141742 6.1113863351340285 4.400125998640423
K 8.047716855857153 14.53939939387999 7.769771428794945
K 12.275295722243483 7.473087194980515 16.207592262174284
K 15.942224207509597 7.477309987620383 11.864444854193955
K 2.822501159183764 8.971517586543028 8.114005749859583
K 8.974566857938663 8.945315692889336 2.4237635971523384
K 4.5085484899556905 15.967632070129058 10.407845991090927
K 14.506398532015691 8.95374384145579 3.538346581216476
K 11.489527786922126 7.39787039646735 11.483724885247087
K 1.127276928232807 5.209630426362972 10.068172130518601
K 9.055342164338413 10.239889238471912 14.40217053555041
K 7.610241700746331 13.23320556050182 3.3910952591583348
K 14.093169571950495 9.306442151505857 8.156341930710301
K 5.220997770805926 7.759316652644566 15.516039378993094
K 6.864536260374525 7.624173480897918 11.154365065942761
K 9.283401924073209 2.623758774883216 6.157364056677964
K 1.9244225942740933 1.1736003662596284 11.89365751713388
K 9.757533050779418 10.893068338120248 9.912082379884762
K 12.507915773000787 14.149533362473058 8.949271899917571
K 1.902061035764559 1.5549980172404356 7.446371697563773
K 9.801843468847718 7.044149358160235 7.323152010477327
K 1.1800783126367722 12.72975976971733 10.315304488786458
K 13.312107046373724 3.8145155467961156 13.09484709184142
K 11.562798738963401 15.819505081544971 4.836413724744076
K 13.382590458760191 11.381993243375932 12.600547466249349
K 6.809562812746579 10.085064790567209 6.775561682497773
K 12.055869162415926 5.39824431742544 3.932894924450158
