48
Energy = -40.09636086 eV
K 4.376151732085697 8.018254275951197 2.0375370859167705
K 7.616513580220113 12.25153860830116 2.907753672575142
K 2.9676293991618308 12.417243032882658 2.8543125150099145
K 2.0014219806379194 3.946832755105296 3.197595941575092
K 12.200991224469519 9.956886169545635 4.101663360690137
K 6.544228488271761 3.8223118948493804 2.8274394367621114
K 9.411325369907523 16.00712473811502 5.825553573257528
K 8.236030297473377 7.9995804823702805 4.32006181622965
K 14.949107883576367 6.21264183034245 4.858102329651712
K 0.7647017677981692 8.069632178256402 4.875767544791965
K 11.037806786120118 4.768118205178827 3.3962139021295226
K 5.2296295211206045 14.599243386330045 6.195581136467223
K 16.471107629990083 10.232874966404127 6.282586472165895
K 4.851539148263163 10.32242760196496 5.90809690951636
K 4.438875194664434 6.0068926624750025 5.94704832943973
K 9.12042832824614 11.878046207617821 7.006689718616958
K 13.43707771117696 14.066100362798837 5.613760943647217
K 9.208967932343752 0.7652179432359266 5.016883588008582
K 4.641399289721972 1.5821918757819668 6.309065471787544
K 1.4068592920938694 12.405351220278808 7.248670561543371
K 1.038159125331319 3.91636246134298 7.71371235542702
K 8.40778732458771 4.370241457214146 7.057454681512133
K 12.703595898973381 2.971300655559979 7.121289206788972
K 11.361601315774676 7.418183006186236 7.687384563161902
K 16.324111722303996 14.183288996725102 9.068898481476904
K 7.136990793913827 8.275744345115013 8.888298478346767
K 13.247053657937252 11.056400099452471 8.869370120476825
K 2.2428884717044997 8.228373810566211 9.135944846418207
K 16.9504164733908 10.189219127186234 10.859500958446448
K 5.062238594143385 4.655695972580991 10.110324450434344
K 7.936628885935305 1.0725690850442027 9.855700373129334
K 15.205644009467996 6.2727206456117885 9.198676897608433
K 11.921813371986577 15.277027704660089 9.68860237941067
K 10.976817016502856 4.348065717323374 11.034462702107048
K 4.84527882283324 11.731967144316044 10.24764016353849
K 3.4944047806809575 0.7796508104523495 10.605808284937348
K 7.520179587969568 15.211311164243314 10.135330566993927
K 9.628676145112424 11.46653233905587 11.305895822328798
K 8.517561215812256 7.561107681425132 12.73771980539083
K 12.951726660184642 8.249773257507261 12.390610549448933
K 13.839008364820074 12.819030282959131 13.032736902962398
K 4.259112691345961 7.891216063834569 13.187109556838237
K 7.084502189358284 3.5811381684473163 13.779304943425359
K 9.943260423070223 14.871378044577812 13.864953860723698
K 10.932125573039778 5.460738069868224 15.461507217433002
K 6.508932914474016 11.606544410120467 14.487922781516048
K 10.686833776365992 10.352303369696394 15.606715001036559
K 6.9932651419817295 7.486013217487405 16.769147245243584
