48
Energy = -39.75677192 eV
K 8.560490139784399 9.393570481094821 0.01271870193920778
K 6.602571195606283 5.585583207952368 0.905333918379122
K 4.304816865220976 9.50703074212104 1.8443232949813673
K 7.266651642082545 12.806118846225843 3.0585580784075055
K 11.568227296713179 10.530038366916864 3.3583668555748
K 11.106747769557042 6.134790770522829 2.28367356248272
K 12.155367153671728 14.830136129577074 4.9589742251794435
K 9.225474866289852 18.705328921616285 5.709958165808285
K 7.82576530626375 8.467344364274696 4.184704610709358
K 15.000617754276925 6.6839835383861805 5.0392762885766915
K 8.271948904650172 16.74143758971896 5.356549432053683
K 5.049253830503527 0.9988473870017915 5.699286728356006
K 3.999936193935843 6.0088727450638695 4.69530263991385
K 4.962403371180006 14.616048110486457 7.166933534298382
K 11.62624029829892 18.529685242642486 7.674297671225356
K 8.044183768069969 4.108176783635378 4.894295719275275
K 11.865393511523527 18.529685242642486 9.02584320618711
K 13.967225689666774 11.199537611901217 7.0513616404462685
K 11.442215214163935 7.087136330634544 6.913501558407691
K 9.152369033542252 12.151510371765966 6.752583146788447
K 4.576909438305412 10.196691511641372 6.456383898355827
K 12.476823958879477 2.7938027538549544 5.349120062752531
K 7.288366134975901 0.038693705663019926 9.770078800603368
K 12.057946250050747 14.618730931219758 9.494766641885823
K 4.8383187031080075 4.174142148976795 8.616306933774796
K 1.2506193933979821 7.514654199223458 8.412491007426567
K 7.662999745357584 7.58068798747688 8.559865701267979
K 9.618861304143449 3.315770791629098 8.730092642204376
K 14.095986397650762 3.505834987049739 9.469422798757853
K 14.895576185656017 7.863601690218799 10.01452485101311
K 8.223647316199015 16.511812136844163 9.750016045229486
K 11.045641520353946 10.32897776353938 10.186087265040689
K 6.632669877682085 11.887483358712087 10.130722254570173
K 2.2439132171680973 11.804599105415866 10.012548152215325
K 4.373912676421578 7.965228809502626 11.132036366448748
K 11.296109588637812 6.042425622520932 11.738009556853392
K 14.862418421235496 12.00455743468792 11.701412278821952
K 7.101821332537216 4.393516557360269 12.354701067922825
K 4.670758707142744 15.437744134240004 11.817205948970964
K 10.648296000312582 1.7208602804101725 12.733063954542766
K 8.103918114627247 8.849281115673838 13.02471519054465
K 0.8041625282070126 8.795788309360136 13.091110267129315
K 9.301686882828177 13.31615712008702 13.20686722936814
K 4.606143368088813 11.487727096429726 14.129230521822628
K 12.16874544009974 9.638743659279777 14.406291693767853
K 4.955874918651369 7.220060232895299 15.595433017985544
K 9.451185324588225 5.817777200753002 15.838117086431541
K 8.18003975282505 10.069203314746126 17.12478808943351
