48
Energy = -40.35431287 eV
K 5.470762368652177 9.232458350314113 1.3927341795295847
K 10.277892722891952 8.158281537477356 1.4717952416450455
K 2.548158826391413 5.8110969231716325 1.4398663117309842
K 7.038659875852974 5.065543642356729 2.9208497376012015
K 11.403727271991752 3.608950270996752 2.119646971372207
K 4.027978555283229 13.635860745036016 1.4240408277807732
K 1.0669260178681006 9.926246747821693 2.8554102632501817
K 12.146554952898367 10.68727870200848 5.107504355641115
K 14.378956581439947 6.967249974381412 3.1994940757440857
K 8.467485760306838 12.741671778536212 2.9123739253698893
K 7.850185732727826 9.04807755333017 5.152437649862532
K 8.81660421954128 1.8912972497660876 6.205720448725494
K 3.9245537574989426 7.336366520214783 5.470488498568789
K 10.766520562115348 5.92750239838016 5.538401726668595
K 16.96544407853373 5.878549170376088 4.9327771170929
K 3.6447264780903903 2.994045867817162 5.174545642974469
K 14.214270888484092 3.2596402127808384 5.890283154124317
K 14.705393193930774 7.480259613731483 7.769849380138632
K 6.25180276295023 15.814360516365939 5.143507450213021
K 13.384435010757578 11.775196025463009 9.55895896480787
K 4.388286541087493 11.76459094364628 5.275854597733862
K 10.286975167564586 8.667329512074641 8.685073409927986
K 10.996230171142503 15.102522040880398 6.60355513105887
K 8.096072609596826 12.507027240804376 8.094690146617028
K 0.8299979338080995 9.760203710923506 7.498642153990437
K 6.8850370081728025 5.1475388344170705 8.116810747814954
K 6.987960511354175 16.53030602843609 9.530134521749487
K 1.8315547481420915 5.489966778605901 8.992255820054407
K 11.624065628760908 4.020012909244218 9.529225633789974
K 4.407023290222074 1.635423549456244 9.401461548737212
K 5.644416437057962 9.133417519343855 9.56772067847286
K 10.649384103858697 14.762612753530806 11.386197362411526
K 15.87099612917743 4.726524391230199 11.382961161291911
K 2.2591420543903253 9.525935980689376 12.003851946927119
K 16.96544407853373 9.184206500997588 11.779684234280785
K 12.875908227833266 7.7166371267177025 11.984996578747149
K 6.083960236500202 12.918369403037532 12.512139225082326
K 3.4166773343030985 13.279806477297422 9.166190919041478
K 8.666976697790517 6.405257915261444 12.118706812362284
K 4.411683815886903 5.1037842774884075 12.509371389320625
K 9.717154654611733 10.711195249429442 12.52864843963003
K 8.204482858042482 2.1356307623660005 11.756050784439353
K 6.191355727174719 8.810457051253728 14.740020473577198
K 15.169444742545197 6.988797572098219 15.506937931878465
K 13.870315792226894 11.396696489311282 14.33389567076618
K 12.024314563312357 3.797277869378628 14.314189865890102
K 10.703606050591723 8.045767218338847 16.048782040869753
K 7.715954626420073 4.3830461242933305 15.841540881573012
