49
Energy = -41.08477159 eV
K 12.875006503242187 3.258528584047135 4.235415439966275
K 14.500895768096381 7.501631336049121 3.3321592578515205
K 8.48495472050609 2.6029863650633134 2.3370940903015476
K 5.478332189760134 7.7848118925650684 3.331055744473204
K 13.447231712142354 11.996758006767209 3.497510794401744
K 3.946734929445298 3.6221236894474664 2.294106637916115
K 9.031818099772044 11.118381776013608 3.8366057702139007
K 1.1084217420817764 6.528258632064399 4.082045776423475
K 6.260079469630138 14.569263193824703 3.3257638466313106
K 0.7930735610192658 10.380540103076365 6.8237842369832205
K 2.2751515021115893 14.654621698334328 5.744933217869753
K 10.079659008116012 6.624472929388991 3.4763188623738226
K 12.276365086358545 9.210188060549935 6.691338014549738
K 6.548315665519947 4.157241037264824 5.859481682912348
K 5.075637885229783 11.38791315406383 6.239984031027533
K 3.6370451234538748 7.065992936770247 7.613671984085548
K 15.182624012552354 5.991203004922761 7.508831565881197
K 9.548190550631618 0.88685198094852 6.514269924403031
K 16.570581049816656 10.302989464718399 6.395526488207682
K 5.299143008041859 0.08552456430301995 4.696521127684714
K 13.635466260036896 13.41674061937146 7.646057055844749
K 7.932328289111573 8.215937472691705 6.992725443996945
K 2.0687837856054383 2.8058172586717407 6.462752886252151
K 10.361204556502864 15.208326628195238 5.144845286132549
K 16.570581049816656 6.01715103247137 8.211196646426709
K 10.791638452772984 4.967015567775299 7.716075898793998
K 6.45380299368246 15.516648062377811 7.679877635827171
K 13.61384886238226 1.7490649813306418 8.538155557234509
K 5.6200936687959455 1.2893663661214385 9.064409758296145
K 15.429605643621521 14.325339190601486 11.33056620448673
K 9.263312683888918 12.242123844359742 8.315659589453466
K 3.09316262568499 13.10148969575637 9.83915270125415
K 6.940293053117742 5.411266636164368 10.325208982491393
K 10.885006265674772 16.13198056460437 9.837129022464095
K 2.51846847034998 4.247091508188697 10.899141676657692
K 14.770169066779575 9.806081344824165 10.463402853120645
K 5.9631962306000785 9.869563855535803 10.540984259180536
K 9.819056694063553 2.148541497219603 11.002980888860195
K 10.351327972401366 8.490092835994595 10.780059019900973
K 1.6665136967543022 8.705659441575005 11.201417293485235
K 13.223061028026885 5.179794539276058 11.565288303575576
K 7.30958965332987 13.865924331323493 11.930346297062895
K 11.595069139829768 12.537926445038035 12.28299875946245
K 5.926952552374838 2.5438677579960363 13.389084739622916
K 4.904363539158733 6.994084488638455 14.08930758314972
K 9.38097403374174 5.613139041139958 14.28896788343608
K 3.9997720418000062 11.515244033580753 14.034460076860347
K 8.298824770449588 10.0458204536138 14.519600506648956
K 12.781549885657322 8.708705912989183 14.471816513473447
