49
Energy = -41.26113882 eV
K 6.697921615377339 6.007409363354784 0.4710192619663446
K 4.263631369240439 9.84502139517506 1.4652009836612188
K 7.03358714304774 13.526374851586738 2.1049194574052095
K 10.06598607245502 3.081379331511937 2.203494622354957
K 8.461661173508396 9.305946330705504 3.083005731206412
K 5.646112668484254 2.0022903829228986 2.2254484888328396
K 2.996230268866992 5.672053844759751 3.0579758624341715
K 10.635819269857324 15.162604704435637 4.824014649055273
K 0.5565807006177451 9.435041026151127 4.228164612716994
K 3.353773252603025 13.094368523881593 4.676852064294446
K 6.347344893808782 16.52773625046864 5.376188576811309
K 11.74361747482072 6.342092690292147 4.836147307620437
K 7.189552254381545 5.216910853758916 4.779495997559984
K 11.955732520799943 10.975080525436645 5.853207975950772
K 4.614741293855679 8.902802381144989 5.783595437364734
K 7.526680660261979 12.424103122066786 6.340495000605937
K 12.868000452291414 2.177806321111908 5.891796439482525
K 8.397627390964113 1.0644184973506283 5.8416667633358434
K 15.802061634216763 5.555576506982895 6.756447933546464
K 3.9723060818794984 2.5734621001014237 6.415896716879302
K 16.037079164653342 10.428155590187584 7.810954330149148
K 8.74148233875276 8.350152920560513 7.412283061673198
K 13.469790141160981 14.155738944757468 8.510521505658952
K 1.362102418770074 6.267769195610944 7.3592897435522024
K 10.237525536988318 11.479389727133817 10.165713102729544
K 9.885582204820281 4.234167234134162 8.572239275220053
K 1.5985297365563915 10.9453425742866 8.391509399215396
K 5.536683616100801 5.764439293240547 9.074297564830058
K 10.991464076067505 0.1269028473882932 9.656273343764628
K 6.6719410642038595 1.578454599400111 10.181978906401136
K 12.787784650043795 7.752723323779343 9.15974577750803
K 2.3723957712895847 3.2598153935476337 10.62002560227939
K 4.569977217778061 14.437460070460645 9.00363145509734
K 13.949398750687745 3.536864465611842 10.333067995890183
K 5.761813802985027 10.301779152084485 10.068065670157102
K 9.117354150894318 15.612049319863539 9.006015504952318
K 11.715078878253703 14.61402937803279 12.82519903189381
K 2.504840973786545 7.659140324552853 12.043751379064934
K 16.730939321041234 7.176055908675032 10.91524259710873
K 8.927818106543178 7.38643308641925 11.786718921159165
K 10.100684319195077 3.148019997237074 12.928824655701936
K 5.632236157889154 4.755197444565272 13.635523928639538
K 2.8263571703663426 12.236945845355576 12.585143816254298
K 14.307124107988551 10.971866596846692 11.947722405323473
K 12.986674573418668 6.789006185195415 13.499094228753739
K 7.264694252065794 13.500812569186136 12.81205450240787
K 5.866793955058477 9.315933104570629 14.635542940154929
K 10.464602663941513 10.607524259514895 14.586663794330223
K 9.180878641870468 6.443947599110935 15.986467631553948
