49
Energy = -41.07827674 eV
K 14.072292448449026 6.984040299066717 2.360926648153156
K 10.675740202728957 9.97266528787921 1.1577964811825217
K 9.953521200618937 4.843482281210318 2.1745499320552355
K 6.588870480584088 8.231732511158315 2.44499675926347
K 5.870283248127385 3.8908195715034197 4.083369687042921
K 7.190379475884987 13.193106281141816 1.4987782813673303
K 14.000883528666662 11.408518280502356 3.9445163575127378
K 13.082996305538533 3.701483526736708 5.490661834205572
K 10.834744629148648 14.909666481431326 3.604423495476401
K 6.076828200263633 0.7399218345226297 7.718935041136769
K 2.60890802717871 6.938191700382029 5.008516729829046
K 4.113579020825588 11.190099278507276 4.9343883466458305
K 10.8745820768486 7.859178305375154 4.988586855937525
K 8.77614817116948 11.476145851811621 4.9858577521162495
K 6.583940563142201 7.927441646714677 6.802040627766039
K 14.635404069087505 7.75338868480546 7.028440190671796
K 2.02432431839109 2.245523662829881 5.840433438486238
K 6.511989383989017 15.172521612355553 5.693752804298182
K 14.290747012342338 15.30344145254955 6.518786038758853
K 9.51555982563243 0.8709094561736268 4.524133533051629
K 0.024467491985213717 10.139917239256857 6.6745734293922085
K 10.19550708326838 15.416803467945908 8.248594245888986
K 9.131133616155207 4.400834431016554 6.815024939353132
K 16.49222070697548 11.80296914654832 7.93298618518987
K 0.17635521796852627 5.443647690659247 8.649973608991642
K 2.7678610428198627 13.383804072998638 8.651788331512726
K 4.509670255259838 4.650861632680323 8.522183092490536
K 6.848656950202523 11.772457481003425 8.769054483551932
K 14.05017011377952 9.35459891132906 11.265113760031657
K 2.0773483429194637 1.3165249864903412 10.101392702081709
K 6.357658710774657 15.744559731398883 10.363632740514213
K 10.438325003701472 0.9154039749870119 9.127419021098998
K 13.894423153856557 13.972447509016122 11.092649010681983
K 2.906028467511263 9.003501766542401 9.734618470895905
K 8.200391092225116 4.432203303235114 10.885258158051784
K 10.207156924121211 8.188076609247162 9.274862521844563
K 6.627573386880667 8.291468843807266 11.710863894945962
K 12.77971559954129 4.765904575416749 10.149418417132829
K 12.13373445114783 11.66706901712869 7.797396304832248
K 5.962838600563543 1.1779535452591934 12.420614302283942
K 9.715074872239326 12.144355481188645 11.907754642338558
K 3.064797136131865 4.9081524677018 12.521777596354527
K 4.924809705417182 12.241275261958249 12.682998961048625
K 10.212476414566538 2.13077781532097 13.748010787554287
K 12.548289888458656 11.102642544534557 15.052980828605255
K 10.85026394993367 7.1378409657606925 13.585319012000307
K 3.674303910358723 8.577221483079216 14.854028305849859
K 6.814288845995711 5.097335442312661 15.005108754776598
K 7.991258702089401 10.065634420987426 15.509234481216048
