49
Energy = -41.15252518 eV
K 9.812983083532945 11.056932517371433 1.0464419661144664
K 5.595513784440102 9.052336042678224 16.186631370388636
K 9.104577626518026 6.273522639161385 0.7825826012308605
K 4.900864469127299 5.114258285061106 2.516808505165399
K 8.147662601521766 1.9035765717570787 2.099384342087254
K 5.716479369379806 12.89012221521248 2.211311466618619
K 11.570907585670152 8.210415709498228 4.5237600627239365
K 2.6671163962402136 9.442377615388335 3.318020432881087
K 12.214656795262448 3.800338032624941 2.9684875954741927
K 9.824278684753951 15.327917301122568 2.7162785332357027
K 6.985771172812153 8.687448306405514 3.678159251729439
K 4.384701222061818 6.434340873579604 7.19557039472765
K 8.619597313506466 4.923075439725448 5.095003916260903
K 5.763221855128542 1.8730870677218874 6.083769228548739
K 2.0622317044260794 13.748502380751392 5.008315154519494
K 14.986949024207288 8.64284772199012 7.694373410710723
K 10.25509513001497 0.8458385935451604 6.062852587174624
K 6.39888870362142 15.60167596164913 5.868918205502625
K 5.056696208452426 11.23902665152623 6.521718672041344
K 13.281757787873783 12.416305066408096 4.535756824898963
K 12.675941931098743 4.721663971385924 7.316296773983703
K 11.067323755128811 15.373210135036524 7.242799690622223
K 9.066938097577241 12.081465907629546 5.271073201795542
K 8.265653318617355 8.268600923203058 8.019407412508297
K 11.52445620361288 10.94063582898395 8.652806871627984
K 12.292928946963903 1.1956590987210811 10.203883684387316
K 15.115934637038475 13.169747912925045 8.871710300725308
K 1.2107400665808488 10.095551773256583 8.160873999725958
K 8.671282961909162 3.5753066892632894 9.282888010223479
K 7.8211101534657 13.229201043439812 9.57243207076965
K 3.3034723839184585 13.98686709270737 9.418479691262672
K 2.214502065405267 6.84036726524053 11.527456754260333
K 8.093450577809618 15.924312268594717 9.946289901534394
K 5.062913084888038 9.916194533834222 10.620853060469495
K 14.755532270041064 4.9183894874578655 11.710432022084667
K 4.393190091617784 2.7738468919307504 10.421180008722121
K 6.861851838351766 6.163184218217213 12.117182946248144
K 11.24916491634132 6.958848000537426 10.806930553131908
K 11.558618049270972 13.715953555179627 11.957093388108769
K 14.26576310101237 10.007128927384723 12.029231572010003
K 1.5239738007133894 11.17582051415159 12.717113288530378
K 11.079496777283294 3.4036798618455077 13.657806800452313
K 7.209617549883003 1.6673941233751124 13.711706251151385
K 5.70294492381758 13.121472372592878 13.47885225732089
K 4.02302629324927 4.392286883168318 15.022801026945078
K 9.086471092561926 10.10940863467666 12.989729233520803
K 12.208738365414835 7.344989018143452 15.108039007793332
K 4.8232145236853405 8.882017374414312 14.961097371954645
K 8.162683097031827 5.660073743819026 16.18663137038864
