49
Energy = -41.09918696 eV
K 5.952798800424114 7.007325153709235 0.38328683561036947
K 9.134140241329655 10.246440627777861 1.2740431331046989
K 10.073899490292177 5.607063163532728 1.6596050726254843
K 12.37958818794369 13.357824439731148 2.340239518420473
K 4.829317045044857 10.948732901436486 2.569587748918943
K 13.308377110830525 8.867116166984314 2.7543548151858404
K 8.065632768090573 14.0968152270238 3.5523532160453235
K 6.246798978686791 3.4725302635419477 3.1531365495617965
K 14.165952913020913 4.344871639190958 3.0403569252939966
K 2.904915670515968 6.545817940883623 3.8332392777437554
K 7.265286986051783 7.72711744704534 4.51964984503099
K 10.48224086591687 2.054782014607925 4.529080894882627
K 10.449592341094318 10.972920300635227 5.54248514696982
K 14.953243325392535 11.901537186918631 5.852128319662839
K 11.428355349863502 6.273734624285518 5.903767513176684
K 1.5535701959471004 10.340314796357747 5.498724870798223
K 11.723941375382301 15.219358398593963 6.362444633075894
K 15.688234827274522 7.287871830133393 6.151345363853158
K 5.890043862067691 11.737422828354875 6.981608330100309
K 6.695349132913934 0.02570334904342339 6.128158243160028
K 3.322066659027445 3.043051270337768 6.691004449296392
K 0.36853195768652713 6.510963020974303 7.932855023026017
K 7.707645391695556 15.998323031007407 7.530396381709333
K 7.6343927690268245 4.079392643877113 7.437864524633203
K 13.048008359095135 9.465082599286342 9.16006114831191
K 4.3993089047055856 7.350269869134685 8.194468771228918
K 9.62742608384038 12.4999479248216 9.75454559489888
K 8.748323637605559 8.292339155359018 8.617631285988068
K 13.951291842803592 2.8688398086134046 7.270832521995118
K 10.236096275488684 0.6773498007069918 8.933708888937456
K 2.1267359865684865 11.2014441153891 9.874677634826956
K 6.883207732008343 5.61886595892608 11.689173553478671
K 5.898441496605159 1.1145649015715093 10.429910763294261
K 11.237410120077087 4.9792074610849335 10.424931225680872
K 14.021714222772706 13.914456284424826 9.739723081523815
K 5.499771139807004 14.503213758011182 11.019729878735955
K 2.6122315245760697 3.8089451204186595 10.872788665096731
K 10.26538744395348 16.238276377047807 11.301344078157548
K 6.038710897020269 10.181280749889412 11.324025819264468
K 10.133328777964612 8.886517066997776 12.777023443662374
K 2.704434326160817 7.663325133324045 12.718956640965247
K 9.430197985240257 5.4997717951864775 15.611885464411491
K 9.168515084004472 1.8539579218367508 13.134404035885703
K 5.07059615031425 3.5617249355475322 14.743815672862668
K 3.473204867563052 11.969526753347381 14.225037279217368
K 8.028642031059364 12.825429332338185 14.308522983563707
K 12.306576543963802 12.694940469623885 13.650129720956869
K 6.2687953072669185 8.464337290900582 15.433668803795983
K 10.342956580049174 9.944584716260971 16.912515977405125
