49
Energy = -41.11732586 eV
K 8.752411041088013 8.002559385504867 17.124583898540955
K 4.1721866290147025 7.838736443126363 17.829831000205523
K 5.82920601817291 11.83557846002617 18.216135437589926
K 11.989833142828793 9.41664000678682 1.6722065940866926
K 9.792019268558468 13.005880589337647 1.427442028161516
K 6.402782953662795 4.631822941291551 1.357912598966891
K 3.176000094638207 10.083868511005445 3.3409943648516953
K 10.786684950220545 5.2178971146503415 2.1833090779078614
K 1.9761133476301498 5.712766010175612 2.6437144272700053
K 10.107861917794567 11.080969932155538 5.554570422374753
K 6.20310052085119 13.310931238582977 4.139784120213386
K 7.492738151087906 8.873794046955137 2.639842245559793
K 13.976246235255518 12.369424524406675 5.073880582420169
K 13.667194153951227 7.7443009324141165 5.3251255319506186
K 3.9995829511562935 1.7596084500954619 4.071106991627527
K 8.248825835328457 2.58674026208832 5.275015154135918
K 10.238531467405593 15.387595050597113 5.334460840158748
K 5.1102090320497675 5.747869476749482 5.52384360806592
K 12.586041942994799 3.4396951529208124 6.408966397948312
K 1.9873188576809881 8.25696655877636 7.475922359321056
K 3.0139882640322706 12.520289393295753 7.635359462898979
K 9.517725011113205 6.752914135876287 6.0542958938648335
K 15.91143555678652 5.692174680373366 8.69159055939282
K 1.2922148509109952 3.9303656684888364 6.958334644423959
K 6.1581968906293545 9.700360567365353 6.830944794291476
K 1.4655683183561794 10.086634404544212 11.801436803709185
K 7.079207815878711 6.008317444586639 9.571269376499618
K 14.073876708021956 9.783715408878596 9.21589403440997
K 11.649814634527456 6.02319687742672 9.953575505127695
K 5.042406844664448 2.214304295729083 8.676055730080286
K 4.170936774540611 14.0379069061663 11.755949922781982
K 2.9584868845262347 5.699327163878789 10.954181486682758
K 9.49267989368592 2.2143916686800265 9.78305696546853
K 11.820994378511596 13.567515328504975 9.364541680413854
K 7.386102283295717 13.659063638159534 8.576940705217332
K 13.876733551046074 2.367770181237587 10.867958195465155
K 9.672865709430829 9.841604896140222 9.709996293340772
K 5.519708999173246 9.84126904844929 11.18155805529057
K 14.494884119358503 6.554020154486222 13.08603445235843
K 8.981502818970934 7.463715433239581 13.3620919523419
K 4.543917914052701 11.569447175781255 15.345042699783669
K 6.498317617708997 3.4712397598166764 13.164183479865713
K 12.294012957203487 10.547604140326644 13.442246967780093
K 11.1041246729484 3.669171545386171 14.112124435247845
K 8.418301467024019 12.660350845816948 13.042752882699281
K 4.6898570940690165 7.312425156078893 14.839928772780171
K 12.042845947241716 7.347241182450257 16.665804641849572
K 8.365333528033993 9.928439887307837 16.814262716878087
K 8.031778317441853 5.294286258436775 17.124583898540948
