5
Energy = -2.52106896 eV
K 6.81633822142497 2.5055648355677858 8.263397441642695
K 0.5771983410637009 3.389123319126343 2.7803094708266425
K 3.977543910007592 4.708247376924408 5.812148491211824
K 1.5295222639062538 2.473168029733503 8.263397441642695
K 4.402617277085921 4.227116452136421 1.8712579050839722
