5
Energy = -2.20555525 eV
K 4.380108969364248 6.66650912032372 7.806177656732094
K 12.762825218796198 11.577349276463845 10.293638856960786
K 8.655029677499154 11.99363831210342 11.620645186453745
K 11.627139211096981 8.790900004036994 7.172645305171703
K 8.569867219941475 8.003086288160507 10.006433941286856
