5
Energy = -2.63405433 eV
K 10.73892125377307 10.820012010399827 9.922763098680134
K 7.800578595280215 7.53540453049241 11.158403402709126
K 11.643042955303445 6.95134087668238 9.616434809596718
K 9.716759703924888 10.92679233290105 6.079668214794409
K 6.37983692066777 10.468861999431791 8.560202125994818
