5
Energy = -2.51586702 eV
K 9.217669234346472 12.976517454799586 9.6177048599927
K 12.727678411187831 9.612107787287322 8.240925065488433
K 9.421862024260248 10.710885648337221 6.247822612827648
K 8.84948774162843 8.536659354422142 10.334088797273212
K 7.356654367278541 5.9136213079807005 13.302934245818111
