5
Energy = -2.51498167 eV
K 5.1683111182567485 8.065377751020597 5.210003411951096
K 5.20787924133332 2.3106565683339375 5.165501078354522
K 2.7812251544675175 5.182509631584792 3.744466832283585
K 7.642738043878514 5.215402272531385 3.8258600934076386
K 5.139513485347136 5.1657199836792245 7.993835627286625
