5
Energy = -2.46758837 eV
K 8.029422083898158 3.159584978050357 5.209025386657922
K 8.029422083898158 7.258465795265487 5.209025386657922
K 4.131081499272013 8.52457844 5.209025386657922
K 1.7241197605734677 5.209025386657922 5.209025386657922
K 4.131081499272013 1.8934723333158434 5.209025386657922
