5
Energy = -2.6472771 eV
K 6.409804624249928 5.847187364507529 2.306155596607217
K 4.834863254493129 5.513669801305514 8.877719287418648
K 3.748899363090858 7.585848067993153 5.225922814348707
K 8.19463968424389 5.951058749467669 6.265841543956306
K 4.701305072625068 2.991748015429369 5.213872756372112
