5
Energy = -2.72094037 eV
K 11.559310895691297 10.399513054490134 7.8218417083297895
K 12.531747999030616 10.339124715271941 12.932736772713136
K 9.326934559752608 7.855353204706874 11.250153130534288
K 9.431474363910572 12.333995944348345 10.710487256355169
K 7.390769980400161 9.312180813084703 7.476563733796667
