50
Energy = -41.87777146 eV
K 6.277304886811929 10.016352751047442 16.40015005587038
K 9.312175856845533 6.764777848495269 0.28875435955713535
K 10.289682751272188 11.421020413603776 1.3101610218937745
K 4.830170835794467 5.942931302089824 1.3426961135549405
K 13.211766187960757 8.205390711916978 1.5737951711527798
K 6.402038664476192 13.122307326359937 3.0806893464165515
K 3.1722099016430287 9.881899222533837 3.1503978582188603
K 14.439817456958147 12.153249105129708 3.6074006933454963
K 3.3437032936985793 2.0575020517645086 3.2021095314887638
K 7.491841896477368 8.777520363414439 3.7535818012295024
K 10.954679157910931 5.585703174902943 4.507265400501859
K 10.435016648992875 14.336652384402328 4.659539183708913
K 1.8508442371934943 5.762478935787159 4.8664728742833585
K 14.261927541964923 3.092386952998944 7.068490596564763
K 11.553917139550741 10.01992707314564 5.666904906509791
K 6.188292631594329 4.556160582256713 5.507297377566742
K 15.399418503225867 7.363427017288556 5.289226471537991
K 6.800527648927882 16.074962811250874 6.564667056762693
K 3.258784927974054 12.896287298970645 6.661384579417108
K 0.12456314482746071 9.636151302085485 6.575284044445327
K 7.6013288110205615 11.84900462052834 7.261282688200379
K 4.333870481564281 8.599137183312848 7.262335744241244
K 13.352053507088623 13.769940356224183 7.841620160789247
K 8.509265459204409 7.452852556033352 7.869163560425057
K 2.860508443650254 2.27697379036673 7.722715911943534
K 9.651657170732577 14.933767257263378 9.90030702442171
K 16.783256360023625 5.850549851917785 9.475010689860273
K 5.547777885425657 5.06276560455246 10.16514554529656
K 9.650767503751448 3.1244312994579224 8.722449360481248
K 15.320055492106636 10.139287083944296 8.832386997395306
K 6.376836344948031 9.526535210944557 11.273699086171543
K 12.623871670880616 6.6342631046073475 8.653680693665326
K 1.2715430987484246 6.255875373286953 9.467857068547222
K 6.116193847690979 0.7283546725168196 10.654711818121283
K 10.828564537341686 10.435550795018152 10.299657205403811
K 2.4816357901131822 2.7983260376867873 12.29036139335932
K 2.08723232445268 10.677176593597293 10.52478201124606
K 9.702327189276309 1.551486890714036 12.97009526510682
K 9.574840399400921 6.279350269333932 12.117480696895376
K 5.232809195874923 14.117906242464512 10.712809530597404
K 13.414988752990517 3.555424789118713 11.725748553626342
K 14.154488293363288 7.91007689036438 12.606120499866773
K 8.527823650052131 12.825188315385766 13.598829611712402
K 13.320197992777603 12.902298582209012 12.45874871508249
K 3.2671133948798725 7.112650731660799 13.498369276720398
K 6.30172884421838 3.803273249754183 14.49946506689716
K 10.769608769409347 5.020293916588242 15.86042412285324
K 4.363244237638913 11.40579128318083 14.642033018937015
K 11.146793641969015 9.625525368079805 15.040967386703658
K 7.1463042025176815 8.026224057653362 15.551536673815828
