50
Energy = -42.02797358 eV
K 5.998769917103012 5.208235283224928 0.11331313879486021
K 9.887082460054428 7.572236668692968 0.38200770741356954
K 9.64380504158614 3.4997810713904447 2.0095619446848025
K 5.780335564311836 9.822436075871906 0.7190395274588899
K 7.176057234668136 11.817593195004665 4.489385564072833
K 8.227940730102725 16.701288853629634 2.964015353099594
K 13.440567189455322 5.777245412818702 2.879041284532528
K 2.9900188809816846 7.224303920944702 3.0267959381434424
K 2.878021811886988 12.034362925344759 3.6252728109683714
K 7.306497593818609 7.150000296229985 3.871565160066717
K 10.613060249692083 12.961631657176522 7.538157283627578
K 12.439277507642792 1.5089631999262827 4.8172892839424195
K 17.021517444886147 9.208591373137784 5.992384149159661
K 11.287708352901607 9.566095243411894 4.296818061841427
K 4.257592163720181 9.158031789990192 6.816610862719026
K 15.625461908450772 9.2156837716491 5.226592339596901
K 5.023599008505716 15.361707234004136 6.03825469713762
K 8.532986857593622 1.259065081027955 6.888518316909217
K 5.39328472096935 3.0604770666419006 4.039496033111467
K 2.0460394079998814 5.199988225964125 7.111528246249084
K 10.615871804506263 5.335654275304219 6.259458297908275
K 1.5251723856082824 8.522288182865806 10.21634671097966
K 14.986372771076368 5.197440658389694 7.097368508366428
K 8.527268769262262 9.05743143187787 7.694936773860943
K 2.0362571023867764 12.682632167909512 8.235264192852254
K 14.995934001891158 12.581653574752293 8.372970564532805
K 6.331512268677316 5.147369640358568 7.9726487977615665
K 8.428617189241676 16.56672716573066 9.262535977516109
K 12.736814623811632 8.859623327699385 8.560033082556734
K 4.341178226406447 1.245288329061471 8.081294089297023
K 17.021517444886147 8.655777279124635 9.503043842669882
K 6.383147778560448 12.651684909391745 9.182585284103316
K 11.96414724010985 2.5584257555818204 9.471157055239312
K 4.1726191942094655 16.153632941277053 10.62148161665122
K 11.805799891671711 14.752632185224396 11.544748049729321
K 9.765529024744954 6.19852426726336 10.806701256078979
K 9.647777360938269 10.893805011608041 11.624481089339069
K 7.422623736303566 2.141060325279237 11.368036143632459
K 5.820512530015748 8.478591917690549 11.16988052610522
K 14.09897207826815 6.050428707594062 11.73229478610521
K 14.015868568079133 10.698363322295014 12.407567587409773
K 3.516445045607055 4.445136950771364 11.46448594153446
K 7.487207932525066 14.609992285034544 13.346588363541244
K 3.6714389210595946 12.143869333479072 12.653201554839848
K 11.095164514823555 3.4325519404828224 13.865040077366038
K 10.914731489338125 8.04380017445629 14.736394355431115
K 6.925950102898758 5.4508254986677365 14.440986465321885
K 10.875655994830563 12.601940016677785 15.504333509526838
K 6.980742494371002 10.41386816346286 15.22142073255152
K 3.1814590995041154 7.983195546549852 14.541758863507585
