50
Energy = -42.0760492 eV
K 8.535473936777716 8.909474086334981 16.340343910845434
K 14.058043549651062 4.342639886732538 2.551968955151841
K 5.106041999691819 6.579054828462911 1.5221851333768186
K 5.506077837257933 11.173370403461625 2.4648028200201306
K 9.646455074820093 4.731430776544083 1.0249194110206945
K 10.376597250269333 12.25654341248134 2.467648750237912
K 12.649616971671323 8.335672877906886 1.7305723457986408
K 1.8731009439331048 9.173076034553484 4.198592755262769
K 1.7571732655309742 4.370001245707818 3.984622118812971
K 11.13002216449201 0.9855179122522083 3.579300007714556
K 6.286270663296251 2.5285630936317025 4.3528132467828975
K 8.528461099050777 8.468895861828727 3.960473536105517
K 2.969067695906249 14.104124679933728 5.888456166497644
K 7.407398666575643 14.591786319135405 4.718109416702734
K 14.472464885073475 3.3555470803415575 6.881781709338123
K 11.899811478410793 15.198509921985359 6.288835880625011
K 16.458316545540445 7.407378190315386 5.092590378703345
K 14.493202681206622 11.769998884248634 4.056276319712281
K 4.908299798120085 6.453231805631399 6.046644227742869
K 5.498881905476873 10.947805086369337 7.033740218796262
K 10.026316835184462 4.570292366512272 5.477914179520042
K 10.007548609374513 11.554901862865224 7.177990499799428
K 12.572948580326624 8.056065591227208 6.302211183012745
K 1.1225425054002924 10.788885836032323 8.509532987514632
K 2.6195250381293196 3.244159245767474 8.529416649567796
K 14.47752754926361 11.499229847257432 8.493026201833281
K 8.317046930702965 7.767015055363187 8.34708281318346
K 0.045466192220919716 6.640180017522648 7.707263437057592
K 11.284375564588215 5.074351744161234 9.692200487012453
K 7.008158958028259 3.3020108534705024 8.881736061179762
K 13.999384330327441 2.4778981692248663 11.509270236396793
K 10.776007027357025 0.8012101168279749 8.20879838980397
K 3.537967453313246 13.7427481394725 11.006110635780807
K 3.9809297652062736 7.711198842100498 10.275549011424912
K 11.135800756965049 13.790718428657806 11.006030319704474
K 11.491407191266752 9.36873573157457 11.36326676580441
K 7.3966947585960465 15.152578703410839 9.019920170427985
K 15.270696545344306 6.937631900316977 9.952063431042884
K 0.6147338233962425 5.860881966296303 12.24109312220714
K 7.052045599933654 11.064781018432697 11.42954443121716
K 7.8370117263585355 6.5506274279931676 12.34244794930689
K 1.0014189119474413 10.35388691072924 12.95226978287495
K 9.332606353990842 2.181395355177511 12.664608801224617
K 4.596265829501025 3.619999521036188 12.957848061250989
K 4.392155237726462 12.192289753327266 15.269624950641097
K 7.397258738137314 14.890516801673101 13.600531917181984
K 11.899545877328906 5.843963768961479 14.153052257455068
K 4.1701856005788365 7.748446871916505 14.906436026818401
K 8.507832135150611 9.641666150922665 15.505202665137553
K 7.77335948878427 5.094651941091842 16.340343910845434
