50
Energy = -41.99118799 eV
K 10.67101042262592 5.581565450178379 1.8320517022280263
K 5.628636674107278 6.344346215571285 1.8394267898732513
K 2.869827449185 10.5385461693485 2.3171793819097948
K 7.718332929988178 2.4057445518433744 2.9537582966899545
K 7.401220308490498 10.430124511086323 3.2003296223248108
K 1.2871758249893592 6.251420285545651 3.550224583785107
K 14.13656547022563 5.948617292354225 5.158688059275956
K 5.348406887864793 14.594777403414547 2.811665602747721
K 3.1966167644903813 2.4659803522571053 1.8811778769758507
K 11.6730931158122 9.572249412329834 3.520656978343485
K 8.693362765310967 6.408286496849945 5.533526023447686
K 15.74889459494156 10.056674744814396 5.5973026618531785
K 1.089153586728915 14.335620494209023 4.576412637601635
K 4.550612157919922 8.1637441508394 5.684592249667895
K 0.550177431644061 10.172573685617623 6.239116330564445
K 10.087942253880456 13.788752730238807 2.6151375939838424
K 11.151568467815299 2.8882324206390253 5.836056611536725
K 4.467233667256611 12.333244402025363 6.282258086729155
K 8.11024791865403 10.253224486922326 7.711256539971873
K 14.572799158132916 3.095179792090848 8.919649884337984
K 4.73270820773659 3.7222548251681182 5.723238098364401
K 12.200999350629127 8.742550016067018 7.9211508130943855
K 4.224098230696654 16.551164599581 7.003116256963407
K 12.19876508534322 12.810151168836596 6.559848219070516
K 0.8013560492174718 2.279748566439211 5.831277335263212
K 11.621724535487093 1.8301237091134885 12.042507353937975
K 8.252581209272583 14.598366249823847 6.540779912088998
K 1.6284671121685828 13.55005722779501 9.298703323863105
K 1.5551409830291774 6.047065668234684 8.264460935130648
K 10.66808120313068 5.315725211226379 9.804949178006435
K 16.234440164222455 7.0594124550136135 9.180878386159858
K 6.0689791176052434 6.035241212409232 9.159140139421913
K 8.088100024178349 8.572478769812479 11.846978833651425
K 3.761776988821019 9.740324924218667 9.854757269781466
K 15.305609437644714 11.507088556116194 9.912452985696493
K 3.5103415015083503 2.511895884996365 10.054977183917117
K 6.189467451669552 13.457694499328053 10.414369767323072
K 10.65442063908743 12.294612991735814 10.912912756326255
K 7.802454609426675 2.039868548051543 8.509604684009812
K 12.877360000240493 8.528972596917647 12.151901262368794
K 15.008617402612563 4.774300616159342 13.026222603361315
K 3.457743308319087 6.4500665645137 12.742515164062592
K 5.003638959789159 10.879670137616309 13.898810016307754
K 10.719461687178248 5.617205596746833 14.58191413170577
K 6.652419057642795 7.170198965556036 15.867545057669561
K 17.20181794086711 8.851272376628295 13.119566884839367
K 10.032791236679357 10.327077560004643 15.233484625281475
K 14.127441835735699 12.097061883874929 14.252847894942011
K 7.1233696894067435 3.7727206053538813 12.727542022600337
K 14.120224991189316 8.01399882508592 16.278355251542614
