50
Energy = -40.19689432 eV
K 7.004036588147841 11.827743119720026 0.13626060018036512
K 11.073248239675303 7.890619383743941 1.3515875775114605
K 6.455674609484481 7.6405569609063235 0.9169884419257618
K 13.68137287014817 5.2193805599234455 4.3656466445079705
K 9.093995299191718 4.074011203498426 2.74149585325007
K 4.420363197577003 3.6431435273127684 2.0242931940081
K 11.218892719250192 12.602345196639368 1.1125127485154873
K 4.498149063398817 11.299797825649199 4.292379400398427
K 13.560702289270402 10.2795967021341 4.1401455724194935
K 7.673404869674382 15.081506528181736 2.9937284652616856
K 2.2065155990021244 7.599266929251851 2.6862958454998735
K 8.766871250812695 10.317571015741175 3.951607914038748
K 14.709199580997618 12.736044197030774 7.9678018385209635
K 10.06858497407825 6.390984373795859 6.224896047969178
K 5.767954142239431 6.477186308169082 4.902418688065322
K 10.945955540700622 1.5672185602423618 6.26164668686763
K 6.3343379748221 2.1482207686696055 6.001563855782317
K 3.7742274474892605 12.336393156439224 9.038261454058425
K 11.574626314036722 14.383376768209146 5.184025570051121
K 13.572283305811647 3.8256997337569882 9.151083196751442
K 2.100633012015322 3.845778620092724 6.061163381302927
K 10.987668799222893 10.660568128411754 7.744920008178391
K 4.400618668525193 15.877207118665597 6.1347232620132
K 2.168343281274651 8.283948205809583 7.187888520042691
K 8.605694969168853 17.446656133123234 6.809726316109316
K 7.580841170912333 13.27309184335393 7.075416436336896
K 6.409405240687335 15.738258329004093 10.470110397966154
K 6.79595294520438 8.965794537998612 8.040423669862044
K 8.852546413525904 3.3475317589787643 9.500201795893291
K 14.643303947320835 8.070405074362263 8.095714106959075
K 4.951914009894799 5.243232950768819 9.079228677282646
K 7.782070423831808 17.446656133123234 9.052014859011798
K 3.9831481367309602 1.3242277732338916 9.989585419778996
K 0.8595055675224134 4.907519783581114 10.284173618115402
K 10.847873618769375 7.299007005635908 10.388719928716545
K 10.76921219550046 14.649098939123009 9.85108362417486
K 11.55626178599115 0.1846829332604395 10.936130873748324
K 3.6464157331978666 8.660092226154688 11.695393986684447
K 7.99246375173087 10.948670658827274 11.407211860932227
K 12.75963146738931 11.046570946696052 11.85199526841813
K 4.655861629432447 12.885085659530315 13.540327004916682
K 14.601488022633438 6.831728371243565 12.464485319949901
K 7.354950747357745 6.246636566094038 12.43635275293764
K 7.396766840407384 1.326283826229813 13.157155277621301
K 3.8109236486100637 4.250204269637657 13.713976155023488
K 11.148726951765358 3.859212878882293 13.412591398996291
K 9.350864385859557 13.10875715418058 14.557849164653488
K 10.588510371277787 8.331773644038243 14.695987785528619
K 6.275155476611935 9.132325103011258 15.459932026711105
K 7.584782411558066 4.660852185752631 16.32280900628938
