50
Energy = -41.85175495 eV
K 8.888474210731415 8.30962672282566 18.081915774738427
K 8.685776649635235 12.624045054837273 0.9196966829264587
K 14.802468587651129 3.465409612804136 2.109905523703197
K 13.278241636642422 7.98252034218899 1.943694457290455
K 10.208784796190706 4.368284064756652 1.38504204931489
K 2.014010025578183 6.966535713967017 4.150864747512157
K 4.912954279026024 9.793805454757878 1.9183718048679357
K 9.886477597349849 15.22962730250154 5.219299684807223
K 15.272558570123815 2.0749876482271206 6.384114784691867
K 6.234080479051742 5.725355595256903 3.1069721484986617
K 2.086913158090409 11.093709421249695 5.774805042195147
K 12.287932485476489 12.174923751405863 3.263629622124113
K 9.233753035676658 8.902627945951888 3.683221292254576
K 16.249639230503107 10.80384254748623 4.8937987545785555
K 11.75226863684229 0.6541514317136604 3.912009741046556
K 16.321431556898695 6.472581930040912 5.36709720825321
K 6.183177978105182 12.998716446630395 4.477708020866677
K 12.136538907600682 4.8343367567157545 5.093373478024243
K 0.2264313552181824 7.472991343451045 8.587184175924996
K 4.284511246212255 4.966309121855797 7.401461178935568
K 5.662706122870556 8.888476209606013 6.271673515053852
K 7.918302305662787 2.4978489550123246 5.477481966850145
K 12.676384853213413 8.954359157790376 6.34051880508461
K 5.075826524240238 13.416928448583276 8.775560537160631
K 8.998517176840766 11.271990321303685 7.44949002411216
K 9.040135810806559 6.237868300579531 7.407230030446213
K 11.235007228109058 2.0350585581329685 8.518201405647014
K 9.617790070962167 14.841791997028283 9.775994182293491
K 0.27346714036589553 12.145057107933402 9.935018945437488
K 13.888071289244953 5.578735202820497 9.247968700116369
K 13.23991217085555 13.30322479858346 7.857678681667115
K 3.622003913686444 9.545882783641177 9.972666792911884
K 6.933357186418968 2.839583640614878 10.314861652444526
K 15.492776074806933 9.8135359698305 9.514606076714776
K 11.081442881753745 8.923277623844172 10.379864134627162
K 7.0155870539976 7.17093635665448 10.828557702418616
K 2.892619693512682 5.288064059252306 11.718933772788613
K 7.638464781518385 11.48509540165343 11.825335419573914
K 10.605988513938804 4.781460283253958 12.235315481473465
K 0.3932947957887492 8.888555356341099 13.050568918145567
K 3.388769481783108 12.886598400404552 13.118434067602589
K 13.889759073756691 7.936922405313816 13.432463422053043
K 4.825790591836861 8.757074438692142 14.105201075683445
K 12.458363815311701 12.305622484296467 12.500285073718343
K 6.438745511591125 4.645563731054689 14.602812838333119
K 9.487605632541033 8.570924295030336 14.746894772041376
K 2.3462304671475027 6.086824498245727 16.33416930234643
K 6.7305465833193905 11.99412236434859 16.311774277763586
K 2.4787610110364993 10.523437636258217 17.090869387185933
K 6.090733639639704 7.85417682443139 18.081915774738427
