50
Energy = -42.10095703 eV
K 13.669422742518984 7.041262412011143 0.35980417446055607
K 3.667138448705922 7.04613778327702 1.5870473074904892
K 9.037777950317256 6.6357396404097795 1.7408535125185864
K 12.29429368216518 3.1014624233342887 2.165029127382963
K 16.600838588551845 4.846811783276996 3.321357489377245
K 11.565437585554042 10.739814279126584 2.1482908628083575
K 15.989629745276291 9.935336549355691 3.6318459037726862
K 5.921272616867297 3.265033625593023 2.9250339234881304
K 6.8540414774588605 10.7879882167646 2.6468487711765283
K 9.641631796391266 14.874236344838444 2.1666601844671605
K 13.047601041833754 6.842872069369068 4.656515601701744
K 5.72378329512186 6.982454786201935 5.2168684257425735
K 13.711832538760085 14.163856389233745 4.458365057196079
K 14.069521099880712 2.9925645563091674 6.731153366034815
K 2.127282281870675 4.8225419550911885 5.576207895656836
K 9.568458882649644 8.629219917127593 5.7691578773155685
K 2.5575505592065704 10.357101380091828 4.7908663780976095
K 5.600836141920188 14.555324134252338 5.200371914320211
K 9.58726664720198 4.043120300082771 5.651252447196097
K 16.34585416313925 7.008640429919561 7.727365886747979
K 9.740400634025065 12.833165592273055 5.936423017872882
K 13.734512401551529 10.73549504005394 7.432612137958258
K 5.875278377261586 2.53360886628499 7.5092077234114205
K 9.988074261830977 17.041401946872213 6.2953287812335335
K 6.024031677712906 10.775133287337438 7.3275799707406115
K 2.659509418764702 13.01481670101363 9.307469473698912
K 4.399724581737396 7.024189540372545 12.956287731352568
K 11.769827692339398 6.627090867945977 9.078383190281249
K 12.090441195482677 14.505598071729736 9.65190474244814
K 2.567027897084771 3.8336911186304237 10.28397409438636
K 7.032359223799796 6.484774577065901 9.154174582366812
K 9.952813575872334 10.694346761596243 9.700247914496163
K 7.425587026424542 14.78097772784229 9.632084000547522
K 2.3336272176453283 8.33311652854675 9.0717325850437
K 10.443322621007118 2.5742369294790177 9.897920526262588
K 5.885771353027025 10.767361671381712 11.518013773828521
K 6.858729930073776 3.285968580899624 12.478634001282595
K 16.60083858855184 6.430744703549212 13.017821883954642
K 13.400905256536019 9.260193437220499 12.246424884376134
K 2.920374517042859 3.3084696450506312 14.922382550877389
K 8.871010864234238 7.784539465188288 12.803617152437623
K 4.7721478731924725 14.180836664589183 13.757761476554018
K 14.868303351912838 4.424019854565678 11.156627093414722
K 9.623657135999073 12.619055937817306 13.604651364953543
K 1.767523029627859 10.752124864107705 13.390290002078983
K 11.497751228613929 4.778939575533943 14.101959333128939
K 2.543493266331594 7.4032343902011295 16.805820666559388
K 6.9711150977185925 5.618910443936403 16.427876192655948
K 10.731568236008037 8.888844876987582 16.374342946800585
K 5.978024329093645 10.334321581149855 15.988278322932803
