50
Energy = -41.10232488 eV
K 5.660901078549962 7.369979663252584 18.004076278466325
K 8.952143258785876 10.536241209415053 0.06913959066721312
K 7.608481535207703 14.927901792796309 1.5421273427091973
K 10.031591663772241 5.879235026823292 0.7502170596304661
K 3.1195197716315772 7.219246218983311 3.4628374810637217
K 6.530211572281892 3.708751005937258 3.252008391664822
K 4.604701511498425 11.256270946951961 1.87046140942687
K 7.340561409942881 8.015275080709765 3.3957996327486257
K 8.439635407011448 11.982874176387385 4.410574346654556
K 11.132457606343182 1.743684793575088 3.590443987316654
K 9.299946633010936 15.857783888398329 5.902600183224605
K 11.793731725381699 9.101388361115177 3.3808342630134245
K 14.261517740250808 5.293942971313241 4.135190697842725
K 11.895603370153575 13.50777674634954 2.3035572287626898
K 4.95535267291262 14.44145357966686 5.11686827329659
K 12.86955150487833 2.8666656581455516 8.065250343610106
K 10.159672460102426 5.327554166137269 5.33113479386079
K 1.7177491627885015 7.099244184061031 7.633577178465959
K 1.3040753487139705 11.348620185906322 5.8212970146656815
K 6.037583336917498 5.81739063446248 7.206900266203494
K 8.298902440349968 1.770175318522108 7.187777620080904
K 5.117734186828398 10.111291529479344 6.676260050051074
K 15.73774834248556 9.821464840240582 5.287295010229967
K 12.262256432273748 12.187378131758624 6.677238839829255
K 9.316241304812857 8.891534733799176 7.359190339059541
K 9.609854950824984 5.230745442932628 9.771179494472223
K 3.3356260064712098 2.7188745107981025 7.395318844814535
K 13.234302812754512 7.480951331287922 7.971433452676376
K 11.13520377834592 2.147136518503294 12.380117876973156
K 4.181335865940331 13.44887659088251 9.37817298717911
K 11.966408578745831 15.3078949171136 9.862180976618038
K 8.497326072424165 12.55235718808373 9.100910495723518
K 7.895028776928257 5.672782374318548 13.683825245095791
K 6.552796953344977 2.0899324108324007 11.44487765774614
K 2.2081608601011213 9.881633096145398 11.10249941016681
K 7.696113943589196 16.113729214002007 11.132484897877678
K 6.285506100389035 8.606442474072404 10.63946263065668
K 13.995066870488854 11.163236957228495 10.664745776922118
K 10.413508955483842 9.041831978962094 11.826332464617801
K 3.502360066998689 5.316104839917413 11.336724191058725
K 13.536186072808817 5.893642252582817 12.12426249471618
K 6.295405466833591 12.093368848612373 13.186959760445506
K 8.502583516084552 1.9348816399275452 15.882018611523021
K 10.72973463714018 13.056044013173926 13.486778262813171
K 4.405076353358034 3.552988508299076 15.338400087878584
K 4.55917554049816 8.172366293131535 14.93790689720124
K 13.275162161786838 9.523433222532201 15.124051929764725
K 8.921605550825591 9.500481220290832 16.06103833265022
K 11.470571129985517 5.502258679691141 16.06481999420025
K 7.257969563862242 5.824822695391102 18.004076278466325
