51
Energy = -42.36464347 eV
K 6.651001234156559 8.360837970639677 16.625668368949334
K 10.903831912962866 8.502125558086865 0.8554138984431354
K 8.037820342607146 12.023771429009978 1.5041447573557833
K 8.769234778172294 4.567937998720518 1.2813404817925187
K 3.6792158194237294 10.490828743434589 2.1854367137967996
K 15.031514203985896 8.26859111754839 2.736616099390275
K 12.358457264050198 12.056470221547304 3.2611725559278653
K 12.803481495779483 4.3394094179562925 3.2167710274048704
K 7.233578240807118 8.11824701084559 3.592987699502333
K 9.483757217946597 15.64741890004309 3.9056328252831363
K 10.168066048620645 0.6849967233994149 3.664863751292397
K 5.217247011592778 14.214243126311143 4.604384397880729
K 1.0337182523118833 12.512898815447297 5.317333500734828
K 0.8408168758538406 7.997924632476005 5.367712738492656
K 11.545059321544406 8.123869702083795 5.305149516932136
K 8.838958414890483 11.859053412735394 5.931144834861617
K 9.01659844724967 4.254257543216725 5.786048489623937
K 4.559711660172952 5.55363919844908 6.533533436267419
K 4.472857211862272 10.239942360810893 6.627449294869143
K 15.176620191998463 5.9003652738328 6.745973818270933
K 12.313502746809615 14.33930837125054 7.26258817880958
K 12.637221957464696 2.007999224394428 7.1813019908235045
K 7.882728568322386 15.646747519754905 8.16050422194676
K 8.036009536311635 7.983979238983815 7.955223898503452
K 8.355362595949302 0.33701371604956804 7.938193168842844
K 3.464805239713747 13.98302562885904 8.895484195145148
K 7.296099116365056 4.1657119235148485 10.082311865937976
K 15.074784133272232 3.55697038362144 10.7415209425252
K 4.533223101755904 7.866897813859521 10.644317657662636
K 3.7415099466942348 1.7210726769672235 8.958799990081326
K 1.002436792432146 5.436039569971598 9.229256318247861
K 15.166443759407096 8.139851158993732 10.77349275079328
K 0.935438076195489 10.14148104216394 9.31985671601232
K 11.625973148589612 5.817460533071575 9.371536261574253
K 15.031802899031117 10.548361529062428 6.741220692150252
K 7.0719536686756355 11.698770372806578 10.191697372146656
K 11.525481498333326 10.423308353344972 9.377954094164485
K 6.650585064865281 0.43144498101125245 12.183149857960247
K 3.4989341419316 11.615514897713654 12.919751330153249
K 8.808482157069228 7.932481288549953 12.338017666287248
K 10.911626499984918 1.930365807084478 11.59237289313129
K 6.12739084582882 15.335685866002331 12.39342747074093
K 3.767220290943433 4.0328439726240015 12.796659791110722
K 12.470515269015966 5.71761348434743 13.790700102675821
K 1.0980288948303971 7.767445325868719 13.295962614826474
K 10.552786666865442 14.181201808323884 11.767032363418133
K 12.281200067139421 10.438458981246667 13.870350927101974
K 8.04313109414148 4.104804371639247 14.520461234631584
K 7.8134979405465685 11.670278435742377 14.622766970872455
K 9.587422778535526 7.91394362760817 16.625668368949334
K 5.2652050948503515 7.7894384768349525 15.10931019326641
