51
Energy = -42.90182778 eV
K 5.673757888415359 7.184879743178146 0.9888387445295187
K 10.139116933540125 8.842708375938521 0.787456029103982
K 6.505225107538621 11.623286486089953 1.4576304954153652
K 2.1601612378058945 9.816059770744465 1.8563947184872431
K 10.979158461272757 13.23151929251959 1.3343480656147053
K 2.18181951075139 5.785928978004055 3.977364612157354
K 13.101400620878046 5.821868618772712 2.9348768156776543
K 8.803849569990795 6.127194695132101 4.241137434566659
K 7.850178393810828 14.98583075113973 4.18522748537886
K 13.88669569678011 10.239802093055747 3.2021471438649343
K 5.197905624821025 9.00547214220802 4.893293106501946
K 3.48767431767259 13.33541074326699 4.456664915261855
K 9.622733507458642 10.73795946628965 4.66417957224347
K 1.048428741143023 9.595908593289208 6.210775791308635
K 5.718984929012807 2.913937184039875 3.606415269298803
K 15.2806841391833 10.877910852059069 7.605675337762671
K 16.486055272772422 6.965393568472219 5.5305407541918585
K 2.577825900906662 1.7815640110616089 6.478986118081346
K 12.54165048149822 13.932082424533965 5.482748840683903
K 12.420012414777958 7.616883060805855 6.822891624938477
K 14.170287650844587 3.3897916447632825 7.253019782759065
K 6.840193296728788 0.6758256334379074 7.894464829486327
K 8.256912128472921 8.163418010440134 8.07422334717805
K 6.558177857079333 12.304971730441506 7.6053770241029
K 5.002353802567004 16.38666720168716 7.4638140277207405
K 5.332924586797211 5.005644973795411 7.3307474247999584
K 9.879307899402058 3.910949283992807 8.23178340108314
K 11.429193485262793 16.386667201687164 8.928848490532099
K 9.443708879528874 15.553168624187684 8.482121982740127
K 11.11106156331853 11.470885655937723 8.946965912548958
K 1.1599414664055774 5.605460910727312 8.532501421929222
K 2.3973912143217304 12.974412640487026 9.070956458328082
K 15.548815538137417 6.710844200134885 10.016762589114816
K 4.056843377476321 8.873390932209038 9.454577231107981
K 3.879618654530845 2.4069156172366872 10.823294805027022
K 11.250707355649247 7.136988830382096 11.276996965144336
K 12.989764937181764 2.9573429001742233 11.675225758336223
K 7.031532024926049 5.572508065901559 11.519167306275007
K 8.63650531743568 1.3764717250396183 12.00617348076769
K 6.083073254916268 14.348942382321207 11.544333605482333
K 14.009117101044218 10.385850780606221 12.154526792981342
K 7.797469788312366 10.1574192596941 11.890243726434374
K 10.594865443394552 13.580378350283485 12.711325086508914
K 2.95276763745204 6.298307333000761 12.900394412648282
K 3.548595236583485 10.913241430031071 13.266766596943114
K 14.286046180592768 6.397593745365393 14.344289165783362
K 10.040768328436268 4.683211531549668 14.801608515448201
K 5.6414385098502215 3.198537272086131 14.92141191745754
K 10.748839047010113 9.253429630135596 15.26406687465506
K 6.520271926590983 7.74477895941048 15.43016542702021
K 7.238530877657248 12.367088129269975 15.566595882524505
