51
Energy = -42.82435327 eV
K 6.6857152843791985 6.1602021129001505 1.1376003399471453
K 7.341276303616269 1.804148921913341 2.4094765907911055
K 10.598841882854577 8.74317729471337 1.2611868007687568
K 11.181590535202197 4.205722726623266 2.10382789690556
K 3.368612027050605 8.800322523738608 2.9571768614286595
K 3.7759722550423507 4.275615606129101 4.094144187016998
K 14.804131668638734 6.922608153431399 2.16457511576707
K 9.341317786853885 13.101458699379865 2.9622513801402173
K 4.702296207915822 13.06750840407273 4.1457744204849565
K 0.33360839465459574 6.747846459484724 5.946761317004055
K 7.539819434512423 9.35564855981153 4.265719890429039
K 13.58522840369251 11.232627805175659 3.742298220441656
K 8.024300163853304 4.95042845553527 5.351221140801271
K 10.648329117133654 1.2380591345368561 5.612243375180215
K 6.033521194412537 1.2436757884295573 6.831741584670673
K 11.755750696984265 7.454126173865437 5.299508160985345
K 14.487050637376617 3.78102417297501 5.390869943703586
K 1.5897855900714655 11.081098672890619 6.7682098192003615
K 4.469456016286871 7.5795636918325995 7.270685668582581
K 2.5727743294420464 3.717511766714583 8.55124563950088
K 12.389231798610275 15.361222902066572 5.478242460042012
K 7.812047728538803 15.51186107153476 6.6676991928550216
K 15.95967290629475 8.147159520278185 6.406388030738266
K 10.608900198962955 11.667675567621599 6.9041288477394005
K 3.0542701242130703 15.064088505515116 8.250922920846465
K 11.081689965952384 14.96412104050068 9.809256522220734
K 6.3071635404943285 11.701657406695821 7.814060637247789
K 12.882113869171585 8.767912947260129 9.738263987303847
K 14.7584298174723 12.482599230971303 8.160036533625547
K 17.217684913166416 9.388605873819765 10.390568413525074
K 13.78996812130207 0.9379044730481044 8.84343747695547
K 17.217684913166416 12.393576076205411 10.679148235939932
K 3.4797445657612376 11.636770228420154 10.795472704859463
K 6.599352518090707 14.978351902717128 11.182218093843824
K 11.28608814835272 4.518924768948331 8.676724865634696
K 9.361023045873804 0.7926455623132608 10.179879269813558
K 15.522127359657532 5.100655519864651 9.724359830438162
K 1.0690740776276537 7.921184556677356 10.25426875389755
K 6.810861333901293 4.382219149915939 9.786175953597752
K 4.858606865472574 0.8165994538773143 11.244877455089688
K 8.73741158490224 8.068817902717651 8.433989392908735
K 9.245863502796409 11.274581800953452 11.426972345160516
K 2.3568116958608814 14.594706406565917 13.378493511021073
K 12.416681465416758 3.1390324609213773 12.664952484678313
K 2.0931083051683586 9.559423926585277 14.313289756342863
K 5.8738613538675875 11.834837330928721 14.53021000716443
K 7.733956507929406 3.1864506343666172 13.956952807268738
K 9.836345839217755 6.795116784207179 12.625030524604343
K 3.447294098305398 4.917843012071654 12.963687741256788
K 5.749622523618928 8.27815129074007 11.658563893098206
K 6.324410572340683 7.302244564674823 15.74452599366921
