51
Energy = -43.03699114 eV
K 11.021624600025268 10.06343170423551 16.689813898992643
K 7.774690520645596 6.9782486702082895 0.9665995455509193
K 7.048847946444305 11.482418105711007 1.5522730031575873
K 4.616430048567043 3.7769216593549055 2.2612380114455233
K 3.7335284831696414 8.285544336311197 2.7756210682234075
K 12.247144930247517 6.044392687018972 1.897550426516326
K 11.060652935198592 13.529415576652259 2.7629563894199025
K 9.076868383883658 2.872829043834638 3.085857573284171
K 7.08001092173392 14.736252064511367 4.774580813615358
K 14.266258661313943 10.154646241065226 3.1506112945105875
K 10.021041574778513 9.226699082613488 4.0370047454539515
K 2.3501968335917356 5.124050266123919 5.996301950922924
K 6.7997768794514535 6.026078275418816 5.292833122134891
K 13.37850757896177 2.1078756596145705 4.095222289496702
K 6.04131926144226 10.533655538645792 5.891511769136862
K 1.5017690157970427 9.593143901136672 6.705254006736496
K 5.6315486229715095 1.7825031961810078 6.318943670964327
K 11.003509992692216 16.587547006871365 6.168882230429557
K 3.1011904197994387 12.697844285743484 3.571335679811297
K 11.21470168986254 5.215361871142374 6.240959341352519
K 15.345240930487837 6.0068443684166715 5.257426249171433
K 14.296889763243138 13.539018970315466 6.032271353856322
K 12.410043926603565 14.513942495409555 10.213689002146713
K 10.096223601031838 0.9180130818170062 7.325728228703823
K 13.340356078228995 9.376556704808673 7.482138537726945
K 10.045770307865013 12.48110909436454 7.179788050152954
K 9.050086868946488 8.298081261330331 8.336981925411944
K 7.898669612645488 4.099618897002499 9.434420363328671
K 3.6783587925164896 13.528839028396252 8.05603667183161
K 4.684692737276411 7.417893830702999 9.171176430906193
K 3.4079277175902813 3.090457705188132 9.940097959061456
K 6.569314025752822 0.028659445413439687 10.618452161674448
K 12.01622738184519 5.959369666172434 10.658820367451796
K 7.728623312158832 15.574359401541948 9.35357026269846
K 0.5077297772778789 6.383114711272409 10.083330106658908
K 13.058258254898496 13.001165482537468 14.46484230544679
K 10.89380673614046 1.7686501459018995 11.778625041369626
K 6.713128474305781 11.354471222207364 10.394088002196849
K 11.199139632130029 10.441445383445586 11.495673829491125
K 14.065367334631416 2.6654291119343294 8.559833665703957
K 2.315454619794465 10.510656118573857 11.296024218863172
K 7.900093278538318 7.422978078421778 12.547335349661296
K 7.091888308114647 3.058393414229749 13.857379452934437
K 3.051306765471834 1.7272785022956427 13.905203352686716
K 3.6078500717179867 6.213115782806548 13.40831797534174
K 4.490657786940527 14.403216648666353 12.503854867634697
K 8.860754323711921 13.69338457969614 13.4820831026266
K 10.790982027362071 5.261259521196297 14.961374508984003
K 5.516773571587363 10.476022852259284 14.663071790168777
K 9.956342826520638 9.766259973054957 15.754969153805352
K 6.740060963772872 6.499174457911813 16.689813898992643
