51
Energy = -42.92238664 eV
K 6.8751107617600145 9.56323825617357 0.41768253034662955
K 11.328512016646997 9.947519341800582 1.3336538481190232
K 8.482744977006892 5.427054898627711 2.186240957302422
K 4.563600089341246 11.95277741924439 3.7080285622653073
K 15.692749797257024 9.96192120649892 4.580732446919167
K 12.832047243047144 6.3927535027446645 3.193897575162635
K 8.852210707568048 13.264411382746676 2.7376562922472583
K 11.796778119121061 2.133801696465169 4.730740878527497
K 3.85023356455245 7.220864845864596 3.40562080770498
K 13.252008317907237 13.475931978107223 3.349473648025838
K 4.32795290355037 9.403544620265858 7.302420590969762
K 7.838655660279315 8.877773359387033 4.4732946731991525
K 7.255653821741653 1.5881696840201234 4.223494257717069
K 6.3386066041811775 16.160218116233704 5.402805818484335
K 11.756847148792586 10.02060782162772 6.055060546345832
K 10.028677640145904 5.436072066480104 6.496926767065668
K 3.4956163890159857 13.75674213677317 8.059372591758349
K 2.4093622684102995 2.884011578768626 4.762479152427233
K 14.58425550566465 13.976064120241253 7.526007006197832
K 7.690463297149834 12.44835272967573 6.970723526350852
K 1.161701192547466 6.468624735809552 7.256454768524055
K 5.658346811714853 4.810130685895224 6.849279914878238
K 0.6308428804293832 10.802985609885551 5.980143652483423
K 8.760479630459908 0.8226204354495952 8.249538286054449
K 10.709080039170479 15.715293677588496 6.254508699544455
K 14.655377077540102 6.080821231479224 7.0828655118495805
K 8.37996121466353 4.5811632636854736 10.627907154365312
K 1.6729863720978249 2.643517513800829 9.472915498758343
K 12.484150861976891 3.0292608410652475 9.638990326318586
K 4.529208195363915 16.406576973980666 7.3539130081211175
K 11.863661246041614 16.406576973980666 10.506484087916782
K 10.961465763618635 12.050215788376706 9.944040173549636
K 15.253382235821654 10.009474561550606 9.327261290549067
K 4.348809353286671 6.4099763571620905 10.846513491273708
K 16.39005480653598 6.34942180973043 11.65364482665239
K 5.3596297549434295 1.2626911297845558 11.459560621420618
K 7.6474157492913495 15.509493423604908 9.944887855889576
K 8.017593248559814 8.568830387603448 8.894905888842404
K 1.506880294103393 10.287863553384732 10.527184877808464
K 11.786759292982287 7.481710459696538 10.108782585413758
K 15.347188082113535 6.129057444505742 11.833984411244574
K 14.49380831937143 13.465248819590995 12.199011501119674
K 9.578397550900764 1.0869502322128346 12.79097680487397
K 2.5086217832797195 3.7109443085410545 13.939789590147564
K 9.751563534634167 13.350900516587952 13.720808592916216
K 12.788970046471432 9.680538197409732 13.706484841045475
K 3.42332338531651 8.36933021148153 14.392444312733469
K 6.70727613274561 4.457118910172222 14.6036774212029
K 5.757967671041103 11.593497666167083 11.423287602125558
K 8.407266276565206 8.61673489828429 13.338108111251264
K 11.383737230967354 5.1285914874809 13.916023751918138
