51
Energy = -42.88004902 eV
K 5.977849111700504 11.469423602402001 1.7028870588271094
K 3.8805182160626077 5.665970006131891 2.2481385005662275
K 10.780978479043005 12.476398568971256 2.5157893096482296
K 13.804522218335826 8.30481256728983 3.095237905624224
K 6.698684942108597 1.7831248740385799 2.4222807307175116
K 1.5640407639076013 9.771730722794876 2.2377514238477434
K 7.475173620271442 15.615577534119339 3.7105867105706003
K 14.946782896921546 12.626558137839945 4.890331667946557
K 3.519829632709261 2.713518786972083 5.684620792123775
K 9.050986625564914 8.299758115288375 3.1915251001665896
K 11.901799882466761 5.997918067644654 6.50432070734854
K 15.439224888186999 4.211747281373217 5.1655123709927775
K 11.10477428093224 2.780465123253761 3.7284489560035126
K 0.6927045005273013 6.482171679248573 5.513038376894235
K 10.96668944482698 14.782934755139182 6.77148755828059
K 7.285294901014054 4.834847905495932 5.274241953864439
K 11.782286108790883 10.377822729326924 6.371609540054682
K 15.871981692611346 8.662796415291556 6.950127441582618
K 8.064878572101357 0.8449435599788949 6.65466619459305
K 3.572059341125289 13.444464126984943 5.199222191061002
K 0.3629453140706088 10.770096972233269 6.445191215042111
K 6.5453180870156435 15.262529128445934 8.181072064295499
K 7.713263017335869 11.943976310774563 5.6541529389901655
K 4.552486505298616 8.856451261524718 5.045921350346171
K 8.23538342336839 8.229677838644665 7.678317515880237
K 4.372746335747526 6.161298732065668 8.55080897098222
K 12.581561227171195 1.9511233829441081 8.008071576913004
K 4.7459602087479125 10.815290202250681 9.005012146071257
K 0.746209733699954 3.8934750705771717 9.184817953405654
K 14.038711723046916 12.578182156164535 9.365397972043034
K 0.8059969195450768 8.419508975395077 9.985697678638397
K 8.872910961296574 4.3916289459901865 9.482336616881698
K 15.586580356927316 5.1511090634854035 9.683738960890864
K 16.655304673379497 9.504444651526448 11.09288085135054
K 1.6263615121543389 13.323308086017832 10.003034378414076
K 9.281826222329666 11.683915157582337 10.010447257392714
K 5.070331365251644 2.093485125508206 9.952698516105643
K 12.13026183710899 8.036669975465255 10.487596917779037
K 5.666354559982957 13.844821920368656 12.170159183364408
K 9.298422198432688 0.37956201452583044 10.993894452978664
K 7.045241672578142 7.947036744455111 11.819138766972594
K 3.2212654273547727 5.700923886616664 12.79073994268567
K 10.27185997631973 15.026263952094528 12.070058934076224
K 12.146851722389304 3.739320572272554 12.292714583018567
K 3.255284383779952 10.186664062391943 13.23961606382175
K 12.905847702673656 11.176820654042467 13.466382416249035
K 14.795065410098433 6.95473381943222 13.987417446195314
K 7.518570213140923 3.8895074009705333 13.635920239197802
K 8.443375587370074 11.356769422204106 14.483396642067339
K 10.447620974229148 7.240993483972789 14.727439819115522
K 6.012778157660011 7.677183999185123 16.007859666835348
