52
Energy = -40.19870857 eV
K 6.5312735437101 5.512020487743412 1.348831039965753
K 9.789529128946684 9.386120269833274 0.44668625387318756
K 12.804920615904937 11.86322414764354 3.794297856816937
K 10.758773999296954 4.404783696083255 1.7211309500148242
K 5.312761030492603 9.78862531845484 2.322642151095573
K 14.027836844855258 7.711152515542076 2.985910954294574
K 8.367847700298041 12.872092366938986 3.514460270229861
K 7.252550249352853 1.0428326201368854 2.1109115468039317
K 3.944707264071316 13.471306071466035 4.806500787062866
K 2.1800662759227434 6.065626970479395 2.3422772719953615
K 9.495196118334981 8.1732035921119 4.284576313039801
K 10.219275204982532 11.706729621676207 7.342162908809535
K 10.737002032259 0.2716263470101956 4.789784403985971
K 16.75520575824518 10.572992315480924 5.772945515159107
K 1.8590987706059747 9.607338823327625 5.587753646109208
K 11.51116736426263 15.555931346810887 6.011418676264613
K 13.228952935864182 8.668324523060361 7.076757653766608
K 6.233264494065505 10.326037413491195 7.039394490964477
K 16.750468897277976 6.316413499549899 7.120851579705121
K 7.079220528549582 14.868962924172084 7.649975528453244
K 6.585430355989054 17.43512717562976 6.933243638340731
K 3.788234003035962 2.578437631783514 4.6287205161617715
K 0.36174699765335927 5.300549054025289 6.441708299593955
K 8.323333461720596 3.7205223382975503 5.175264003619552
K 5.1566724567398206 6.610310357678362 5.366875493700854
K 12.683768795991556 4.383023495613351 5.904224642260846
K 3.111850018397861 7.206962799188249 9.130303305766585
K 16.75520575824518 8.987312191820195 9.271361795665714
K 10.112557897294348 2.1367849700162624 8.988935509799706
K 6.170409452437308 4.1044022998065 9.033979576948356
K 17.411204671897732 4.96960343282232 11.11045474078637
K 2.6465155098370543 1.8570533320742628 9.19776595462762
K 10.686669957062163 15.65277639678249 10.47977840577423
K 8.138684406096642 12.251975537429184 11.093419135637467
K 13.458593556933133 5.521560766687065 10.287215876284442
K 9.292110630773372 6.834016867923582 8.313564705188432
K 3.4691792151266165 11.950432961430389 9.969118813079213
K 6.600475532186472 0.8533712197015659 11.679969831368862
K 14.138216060041849 12.998574615833823 8.607461574179942
K 15.96773339569403 9.413257691739158 10.554428318530253
K 11.343363731764997 9.305404681049854 11.029864687517083
K 6.428774248561566 8.397757114245847 11.503351030652913
K 2.118599182826867 8.559186422986516 13.123168731454
K 6.179241742675284 15.88444185098339 11.966637853914172
K 4.1190281518180125 4.432777463632772 12.853907296622042
K 9.313446662725811 14.32688770299379 14.7529820052889
K 13.465977134342376 7.7551500082579645 14.331148461664831
K 5.400521793950826 11.831749468276099 14.404775844258742
K 9.1312878375677 5.265084941952054 12.730193193635252
K 13.122881521370163 12.376922207191525 13.246032934944404
K 9.504744275449776 9.8034825546234 14.919237635090168
K 5.881079630665425 7.352507911881539 15.680484255803988
