52
Energy = -42.94134589 eV
K 2.073386176063222 8.525139686347288 3.550524546151035
K 5.70755828324757 9.629469686763995 6.9820260937561915
K 11.250129332304507 14.568539451195623 5.489559044318939
K 11.225640092743038 2.9701536234239048 6.375939581279287
K 0.9837183753331518 6.161466288233799 12.369694018560848
K 3.8219809591890677 4.417202506148276 1.4940704822516055
K 8.182884752105693 6.079258421666436 8.597360722232194
K 15.733368995271308 8.767607693224743 9.364819594501915
K 8.084331862455633 5.775060549413265 17.366110843762115
K 5.229021899928437 12.482921306176742 14.282898049340531
K 13.95109055844275 5.609552806256984 12.663714295962864
K 9.342703587772924 13.581997622070487 12.72327083798256
K 1.0963241354025282 7.555594740559418 7.879595312512102
K 5.586943097638999 13.72409289839126 9.92742191398042
K 2.766437408718916 10.296155286998662 10.987063250929792
K 4.014259421446044 8.418239734942523 17.076585167984494
K 2.0997023010199527 3.1093744176178344 8.939425001677979
K 6.490574524533462 3.26546092852775 13.016620478550104
K 10.919323190089587 3.1231976148485603 15.298414624405803
K 9.334221422790048 6.384694661106027 12.993172115846635
K 4.587209739792216 6.315276221843765 10.396423510716675
K 3.7342497169468665 1.25819320435968 4.82170238162285
K 6.4051137374397 7.856234957952095 2.81146801390437
K 8.678836444051445 10.152407075718118 15.743508072185204
K 13.08949447234063 10.339815422283221 5.865374906921245
K 4.55155508344353 5.380815767219035 5.954888635481188
K 6.654705829446769 2.093347716135859 8.319523082675792
K 9.979059604411923 6.992858230466713 4.934007143069381
K 7.628882118455916 3.290157503311848 3.600458791390286
K 11.639263207265873 8.485273785624916 1.3656770144842134
K 12.128338805872566 6.877138164439351 8.782471712009382
K 12.324891417295918 7.639897352989412 16.201356342640874
K 11.826755317216323 9.737603827859786 12.033448784514398
K 7.174963690685596 9.794854819047158 11.373518631011732
K 0.444888081989684 4.409143305971736 4.684984432286658
K 9.047767888382785 11.184720037757643 3.8205960130642507
K 12.69422827542992 12.336071995419106 15.333138299965539
K 7.981483538334005 5.816340052058348 17.076585167984494
K 9.571269347640204 11.442076098118466 8.238811799940999
K 14.395848217003467 6.213553699462932 4.946587962068942
K 8.188620138637393 14.752402506000957 1.5637965964704341
K 15.017194312731663 3.656816013263469 8.703538613593345
K 11.717835246839355 3.9788510423146244 2.020975735528259
K 4.688127396931972 11.959402248159748 2.415342783451285
K 6.68459405199301 14.349043255161972 5.797546947610939
K 7.957554941280173 10.533777403084017 17.228363271468776
K 2.399639276457122 12.170684185883994 6.6600665762017845
K 10.787981195673119 2.8109022339550624 10.766914118139276
K 13.15726913168106 13.281836864590943 10.02186796122414
K 4.83969131511128 7.72998761485708 14.567681331717642
K 9.425526238948642 16.12877360784535 9.156794451640948
K 15.809621309836956 9.692623328993173 13.738055796100273
