52
Energy = -43.59705895 eV
K 3.209441307142532 9.723471862265685 12.768659494055944
K 9.71079709725454 7.406007168517077 10.588819025046377
K 0.7183360546821085 12.978102941076235 5.354668230110153
K 9.654620204853144 14.826155126457811 2.719416653475039
K 8.155398973036496 9.239547073923376 7.002824509531279
K 4.0308806910316415 3.588316606215149 5.784888239668355
K 8.016955214493768 0.8871570730101506 6.048386230314075
K 10.413072157897322 11.752224181445326 13.541794030681233
K 14.94122321057722 11.45058733539046 7.219792606652422
K 7.331842078796934 11.094325956320068 3.2031919699092417
K 12.499678168678894 7.285739004416786 7.227291118146884
K 11.678001460928563 3.628467474744113 4.2522407840457115
K 6.772905948287944 11.06044798793282 10.697903861889392
K 14.109568553260557 13.545589199048079 2.772002666245612
K 10.962965906731165 2.788783484374067 8.965866875759925
K 10.9536440987418 10.779321400719402 0.3535660254862272
K 3.115562371593208 10.670763825685565 1.9312366942875006
K 4.696291303903084 14.645271263368135 3.739228571871583
K 7.801057002612103 13.78675103391649 6.839701342200766
K 5.0568209843845535 2.517546497497885 14.22125126828984
K 0.958775246026862 10.349630667561925 9.080931490106739
K 6.650410188025507 12.768375220774761 16.998908683637534
K 3.533239328310698 6.351012658924594 16.1636157354722
K 8.791821542491318 0.6056819129544705 15.872021406782888
K 6.27936453514437 6.683424779529771 12.903475922215417
K 13.320407348835298 5.114447518215044 12.073656737953458
K 12.162449539729531 3.6999194816799448 16.440981303072498
K 11.302920138787549 11.296028300965732 4.85885739488592
K 8.184494012817803 5.1067348015593765 6.6368106938576075
K 4.267696406139441 10.94953801604732 6.318790633916772
K 12.314309468574008 0.6852839485866069 13.108634916213031
K 12.247864741476807 15.203552750128619 6.654997231591845
K 10.96583565981215 11.547379861162067 9.158256521134376
K 14.024676310823088 8.483373905647907 3.0372916730691992
K 6.003789428901256 3.2093872948935314 9.863718818201946
K 7.502510999063916 3.638969876417445 2.3797789018973856
K 7.0820768977706825 8.184836722146384 17.165094840365438
K 5.300214045918199 7.211912027011843 3.8903468904211027
K 8.964429055185553 15.055610929962423 10.872979062307065
K 13.666304025797526 14.09764445233475 11.097155249273905
K 3.789480456176059 14.045937882386953 9.196734068888302
K 6.965790432351986 9.615430284095392 15.982867076769317
K 2.211867275559835 5.180892711818318 11.694499287437432
K 7.762107239562105 5.200502758344433 16.998908683637534
K 1.296495117175915 7.675423367118401 5.543882467549834
K 8.191715765327098 17.20536110728351 11.392219271150951
K 9.79142017775461 7.458131070950143 3.3676081856807882
K 9.285030858510238 3.7600228698574396 13.068113841400061
K 13.895097303490967 9.558130462887998 11.509441247493438
K 11.119216309155195 5.9991630664419215 17.1516831752329
K 10.9585232911938 7.725402153887815 15.072860978850647
K 4.597287852327906 7.298057198769839 8.63810950766864
