52
Energy = -43.69045251 eV
K 12.01685264552708 3.2523010559099377 14.415061838190812
K 11.987271900719698 14.346813658163578 10.12350935917233
K 4.277304501828731 3.1877990882220155 6.223431106235383
K 3.6886783178788005 12.137651292017633 10.789630113892756
K 3.2395731628752285 2.6303167127305542 10.726267179144159
K 12.085378055238236 7.662089974353346 16.124184339286497
K 9.603382558679218 6.129575338233208 2.350835708313276
K 6.272554843151157 5.189021434559526 9.865698293331596
K 11.67892474853334 10.241641394897714 1.4664713117578834
K 0.21375890217076357 8.33761371964252 2.9053641418926817
K 2.4927491513334066 7.482542918704896 10.606584050830389
K 3.3367161232660356 9.814035811138329 14.873502314275276
K 9.768649746413093 7.732287090431759 9.35971181993643
K 7.420778368916794 9.48460165685781 0.3317049469331564
K 10.21819310634721 10.731768004902502 12.761621909404726
K 6.414638460311826 9.199638811815674 11.89180147713801
K 1.3391077826826923 10.575407127833552 6.99108587923479
K 14.749600419974765 9.385538505764401 4.63451153403514
K 14.056367406202847 11.705695709128676 13.782628559119956
K 6.582125037941292 5.113920528821373 18.224804718774912
K 3.1455132663126903 8.117471583579428 18.532732463457275
K 7.9147584323580435 12.338354205881492 3.7945303369885752
K 10.966684392310983 6.857760700051026 17.20396188592916
K 13.111242772212673 5.924286826384305 6.839953019540365
K 10.984353928514228 3.359934719364723 9.85997780385595
K 2.4145662617671495 4.254051444780389 2.1631748303280944
K 10.634483227992204 15.14152944908034 14.252756285748598
K 8.696843549466525 4.535956085558064 17.20396188592916
K 7.509633470404163 8.745559006174979 16.383786275730685
K 5.4340178357752436 6.944840138656877 3.467963441376448
K 7.657380283747726 1.9331084340688176 12.687164745088428
K 8.672876782672862 11.835762321454887 8.533513955849488
K 9.005390644864866 15.863230368470198 6.946271547869218
K 13.778964678796875 5.650316735488837 2.177662532124238
K 5.562470545331139 8.952390194113963 7.304009111928427
K 13.23234544481615 10.302519223711593 8.871063074276789
K 4.934318960654689 5.420501152267537 14.262305492949908
K 4.931839756629272 13.644596988282078 6.847141830901827
K 7.648974647815953 1.156525793432394 8.092727075830235
K 1.575694567597119 6.278275116766684 6.487510304217038
K 12.130473534585086 12.988608411703094 5.48551713021013
K 10.086962157718133 9.036423107789359 5.324912419719596
K 13.354847840093086 7.012713783963806 11.887406040061771
K 8.378609257733487 5.099214643221163 6.252620635595352
K 3.7172833073250695 11.033910267220152 3.1165577781000975
K 7.362513250274582 15.098112783237825 11.096248393837572
K 7.072184208773008 2.359102469477645 2.9510336219223574
K 11.331333309369096 2.3427358640548586 4.789168781123318
K 10.760026545338818 11.793989596469093 16.99226365820426
K 10.666275551991996 2.698683768950248 0.09711264237481167
K 6.70854857496309 12.829839602026558 14.816231229903753
K 9.184504240584547 6.117955848972372 13.240373566940924
