52
Energy = -43.68682831 eV
K 5.9855571889920896 7.764746507676978 0.61146802627512
K 9.560410957643986 10.119382348654929 0.8771968499999897
K 5.05158312656888 12.266571989287934 1.154882727315087
K 1.9916267071288123 7.88262907258371 2.016408183106343
K 4.755052529319525 4.014893626060386 2.4518745214207365
K 0.7822840401998422 4.149758483116905 4.353342844365309
K 8.718727973051697 6.296252843165395 3.897072384644937
K 9.235337635604642 13.904765381702688 3.0579061683636324
K 11.750717518261856 9.946216099932101 4.957599380557026
K 2.305930648188666 11.23578842518063 4.7946518710206245
K 12.45203405327543 3.79796030841827 4.076614854622009
K 6.90232614797579 10.32958522796225 4.288660241591082
K 13.153622751309914 14.145863427841268 5.3371464196873335
K 16.570689697731446 8.059543864583656 5.716321470933435
K 15.431973018157041 7.261979379519728 4.9024953759826095
K 3.951636657813678 2.1142367294152447 6.51354464257163
K 12.215148572960908 6.130249826401025 7.645934252593708
K 15.660996515047383 3.3433975514517855 7.285664010659265
K 4.200666794797757 6.869705862564895 6.032451281720692
K 5.464527730287917 14.53740044714006 5.47055711588354
K 8.115519605050551 1.8152730072961203 4.507654595160467
K 9.465978627171696 13.132852166707845 7.587713341471733
K 15.999592760123754 11.099919180004033 7.076395270501758
K 8.67436399311092 8.60702244968063 7.811129355206037
K 11.49938095874906 1.6087767712020369 7.917540508189813
K 1.0937512433434287 4.92393025188095 8.878206619525946
K 7.822458858190469 4.330902781454748 8.105887935607885
K 7.199433695071969 17.154561011980814 8.607714065191514
K 16.28949106598435 7.257847882476647 9.490396828623402
K 6.081471474088333 14.813573539678954 10.377032917090462
K 5.2378128100555035 11.140559063531054 8.260994430729138
K 14.18239279369367 14.312637348290247 9.68093033627968
K 12.551683367651368 10.240282404526965 9.790224243486534
K 2.185530488565877 6.80541699979034 13.06365995377671
K 1.914578076702123 13.83889255752673 8.532390530936478
K 13.729825337466549 3.920296998752271 11.279341512660935
K 16.570689697731442 11.162514503152522 11.652773421378287
K 5.452473007778343 7.40071917960508 10.600748020428435
K 4.547428193586826 3.0348267805618265 10.883259505028256
K 10.082141788543492 6.653076493421919 11.58051074501517
K 9.453014097119734 2.2032259959786584 11.85127446929739
K 10.362045962788793 15.005522681338322 11.604435893844757
K 8.389420243122077 10.902167244481651 11.601590880860035
K 1.3695832938903236 9.313041201935121 9.315868770505093
K 3.6742542546677908 11.585642933951137 12.401535538608627
K 14.21765491335109 7.886354553511682 13.6256255998703
K 12.753239579613227 12.268163544902926 13.884405764229767
K 6.942511582538688 5.108345290417321 14.232106400565524
K 11.554518932812897 4.549327527266442 15.179392409234591
K 5.754925562965552 9.138519744468697 15.154597288570766
K 10.179306410869755 9.030921928237465 15.36708412642107
K 8.083624177626874 13.15490569767335 15.067470002512641
