52
Energy = -43.5232171 eV
K 8.154205390942684 10.140987704588891 16.826245150882563
K 6.491088047487461 6.094878886626883 0.9212403239532152
K 10.919107063744509 6.826793476616747 1.3274868733070155
K 4.167317086268302 10.347487080749598 2.100942189424752
K 11.601820743637871 11.365896860284174 2.6292475360716328
K 4.649123111815174 2.256313330980401 2.48786016190899
K 7.395212874287182 13.372999120210364 3.0830419525004404
K 9.157280899095388 2.774645066000938 2.740190415051758
K 13.634000218459088 3.5970999203900194 3.2365076789949643
K 2.559035340325897 6.349777877992218 3.3086295288337637
K 8.014963565061398 9.087014540202707 4.0606927385696725
K 14.285894723338188 8.047609942765895 4.186836233240218
K 0.44709680576108435 10.407358033300861 4.555554356370738
K 3.5052958804619023 13.552342697788971 5.379805552230927
K 14.894668201412573 12.394816934545489 5.553556840058081
K 6.374911957211756 5.185798120392102 5.332668402071276
K 10.936559214374064 14.560402699479418 5.928713389909713
K 10.733608912635411 5.811151027856739 5.7070834688007865
K 6.792418898756323 16.618523444923568 6.438792904278003
K 4.218384543796298 9.211161922181555 6.480943034964315
K 6.97525291226873 0.6273232996241346 6.144311617810958
K 11.356100488833315 1.3552652276985817 6.534532188289692
K 11.2076259671627 10.223523372268515 6.904174194254541
K 3.1288868908504326 2.6820492470245885 6.675287407714847
K 7.3408001614924325 12.343183372473334 7.3893846751499295
K 14.488605496608223 4.484197007088863 7.657131622025013
K 15.131023841003833 9.131339293756488 8.744815134840962
K 8.394652902930062 3.808206577222564 9.056283439030281
K 1.397729885555467 11.907866362495461 8.935932012948777
K 13.176115468890574 13.396343196811939 9.687606926017615
K 4.530319582095029 5.990159994816379 9.602373925084436
K 4.633394913188872 14.966138662822372 10.037134586712678
K 9.120461424020819 15.465701999894119 10.230100279660293
K 11.410146852275016 6.949926169618845 10.09137454077799
K 9.020823538501125 16.618523444923568 10.056744191717446
K 4.9467701727710605 1.574941111489582 10.699660899358802
K 5.241678179409598 10.547938034713543 10.831283697326644
K 9.648252747889554 11.06158540415763 11.107772485913404
K 12.189726509165563 2.644110485965871 11.119849410357256
K 15.296244169626068 5.787255256085176 11.992077022440274
K 7.683844961099444 7.194062164422042 12.495745754716117
K 1.8939179872732914 8.449688605034114 12.5102533932151
K 13.367803892711548 9.806668317734776 13.145643856422932
K 2.4221372485361323 12.825639890994943 13.374675720362822
K 8.269971764561118 2.8135791653946347 13.4517615699616
K 11.451519112333823 13.92249006461017 13.920632223124345
K 6.900730728928227 13.49766424575167 13.785166322021634
K 4.260735746432832 4.795828547094029 13.974034429124547
K 11.510370958736923 5.860963131961653 14.432154142313927
K 5.059127768279493 9.583250948369093 15.349761905797653
K 9.479818002841627 10.113267711259805 15.541878256807797
K 7.627188773679731 6.118275690244337 16.784438128975907
