52
Energy = -44.10543785 eV
K 6.320621516402682 5.8261296241006555 16.974075760732447
K 9.029548570080946 9.552050459215698 0.8973100709381963
K 11.638424501716454 13.229282094735646 2.0640611901021333
K 4.427443452321949 9.50946879832244 2.082842562901503
K 10.727872580551475 5.442207713681616 1.266285097104116
K 7.118785636567583 13.267030580696275 2.990397678963307
K 13.393010933296843 9.025828491653384 2.5334048558116526
K 3.2447478162598378 5.105237582928967 3.434412605017209
K 6.766165148711987 2.3917187280423757 3.0044419045966793
K 2.6669481257630436 13.030910074294512 4.2727885443826175
K 14.837917202900371 4.782469303712748 3.002767194289793
K 7.433325106841826 6.716277443345155 4.062979190627808
K 10.051739286854046 10.561452646015562 5.082910153603377
K 11.055651414122819 1.993536858991555 4.021856974137487
K 1.3078393848894236 8.80173197081733 5.54142492819684
K 10.344823468923922 14.94424011307994 6.0224952481291005
K 14.231605703304192 12.38631727845196 5.6865314296246385
K 5.553830003752541 10.366004911980138 6.160891567358362
K 11.767197921144902 6.191049403052293 5.67187734324586
K 3.9876107614165983 1.8057350561749983 6.670530975388006
K 7.697748688572697 16.285155677769186 6.158270235548552
K 5.86251396035987 14.774281027284266 7.13257120988525
K 15.8830810895998 7.980950037185706 6.2130641773227655
K 0.33036697981662466 4.549123217210993 7.02327434040572
K 4.301089770967303 6.1667083529242985 7.613283900111632
K 8.158057529397139 3.4185102300406873 7.240939130335605
K 8.46783684904526 7.733732624850184 8.205010115573668
K 5.228264717451212 9.3428807666346 10.808339529529094
K 2.1778363053271184 11.948543595547134 8.747568313553538
K 15.393216798176772 7.038632051780494 11.048367475082369
K 12.541848050735545 9.497493997950542 8.800700450924497
K 8.991023728210806 16.285155677769186 10.195039452923204
K 2.526407393444906 3.3804270610366074 10.821589440227411
K 16.500171610532046 11.11041827301797 9.454926414082939
K 11.376265664322704 5.1084466111042195 10.302380015488229
K 6.745370869605871 5.038380943678808 11.334948120911635
K 8.780021135559723 12.058131014926882 9.242624335782146
K 5.590401110995563 13.654795085597959 11.972802280524231
K 0.9521805394371328 7.724680676708309 10.170026138451071
K 6.396350504156584 0.6810940387602828 10.39037012488198
K 12.863972268613916 13.83369024535268 9.846583371115496
K 2.0415687997582705 10.95271766991291 13.268556251727766
K 3.5065361171039817 6.653261336062952 13.959857949303
K 12.494203371703616 6.076947473216522 14.504027351283915
K 9.542755093144656 8.746557928217582 12.414492123360064
K 13.578602088352243 10.55120127207417 13.078224690534796
K 5.1850457518696995 2.4331586026525938 14.416904488813984
K 9.609049003571545 2.601615095064503 13.62189852471169
K 9.88188860209652 13.159452672956865 13.449179392770354
K 6.227560974276078 10.362624639573957 15.07381638695446
K 10.512896966850827 9.842096273644358 16.513780763419714
K 7.81546747251781 6.145244792768215 15.597086325876784
