52
Energy = -44.01737625 eV
K 2.8178561556928092 11.046322320928136 2.097571575070833
K 8.94003500496689 8.82800724214891 2.798229080143378
K 5.604295748365311 3.00569238246782 1.84471659360268
K 13.423868740655804 7.80165874225286 2.1378388888194126
K 7.0480470948748435 12.686626806502682 0.9758129252824835
K 9.657938956141898 0.6199980202101905 2.4829359077960627
K 11.58283340850383 12.308385194841668 2.415752479609591
K 4.734091660365646 7.063390794202721 3.9189226576038596
K 5.883509821151467 11.611980250159881 5.2006927199006725
K 7.865027684301748 7.994565541580781 7.078285960615929
K 8.519727309685086 15.29459495779682 4.668172716686985
K 6.255782045164133 0.5594296393126363 5.5159906317502125
K 12.233151415291175 7.222576810904506 6.287450293703509
K 16.466728800096988 6.291046290037839 5.444506252603801
K 8.926557814583814 4.369015614951909 4.66520006895756
K 4.024990674933558 15.264492825075532 3.262404313978318
K 14.876597815948617 10.783500152327395 5.514845125516977
K 13.356097970883479 3.2497209326894234 3.9867920872080025
K 10.414020102895705 11.566182470576141 6.611207477997699
K 2.087612277221408 3.5801465840496425 4.760655343722609
K 0.5475672778862335 8.114893226141467 5.097906832933848
K 10.804216742427778 0.70058637184678 6.95814683481209
K 5.440174226113625 4.405926533141782 7.781884625538319
K 13.00395376427423 15.155858392521843 5.863982758604823
K 1.4747915175540496 12.632434013736184 6.261977896007047
K 5.094790465027359 15.308736171147295 7.778432741222084
K 3.622930641824108 8.882367842375208 8.20607393201419
K 14.436213742090588 3.6046638182511574 8.529939246135092
K 1.025819803043531 5.273832970094968 8.903063264154115
K 2.8409672693937775 0.9569620634378351 8.539166846673144
K 16.466728800096988 9.659595362265668 9.28325755900688
K 9.65593303360785 15.339461335926709 9.22232477655619
K 10.002977663420342 4.5157067074923996 9.256399054297262
K 15.299306977931845 8.158981538132233 9.509555681050081
K 6.990974793010637 11.597538933444229 9.811659690253048
K 13.489424668160842 12.62591374248695 9.679051040481434
K 7.3346526219522366 0.8901553244168449 10.023509207653637
K 10.836502598494983 8.928545261784372 10.40786514793562
K 2.6166319275889496 12.633278837126056 10.807873303142255
K 6.657903136563416 7.13716116773689 11.397552740082533
K 6.215424144261136 15.239059201029816 12.281162943675326
K 11.885505609895816 1.0882464042345958 11.533288734171242
K 4.003329742638894 3.6022532731321624 12.216152672900748
K 2.447322024282514 8.115655760625291 12.614891873075429
K 13.028024577071848 5.464343566094369 12.678591225671758
K 10.050992561759164 12.693759068775888 13.011778446877088
K 13.819738456771578 9.998375249843077 13.458577787597028
K 8.539956796033191 3.568630768039805 13.45305019465024
K 5.822763367473165 10.852792827198934 14.155971003444245
K 9.677674742847415 8.465602550234362 14.892389426589663
K 5.8413315833449255 6.286196990694451 15.729193537042875
K 11.11418074737474 4.722443252694694 16.75463797430194
