52
Energy = -44.00669649 eV
K 8.13456208627167 11.46511123779318 1.53269179327022
K 3.7174033656546848 4.730131384145577 1.328443968340485
K 7.767111190418297 6.835278008548552 0.6139905884581166
K 11.819699997733974 8.975364959364898 0.258529425644614
K 11.817738846699195 4.816929323576697 2.3012235810486312
K 3.7805232357423426 9.38178092106302 2.0595799424561
K 8.489097667096615 14.968337451548159 4.830581956485922
K 7.591409058727084 2.6515942992826536 2.8198966416101356
K 5.895730371548567 6.378661381319155 4.815270005979053
K 12.464668035789487 12.350397448372414 3.5415063672621314
K 1.348569061151137 6.669636711436667 4.861463172268492
K 11.44299065154735 0.7346328977003632 4.494752315195096
K 14.551696333562386 8.146214814989586 4.079920834409756
K 4.448235702534248 13.99746993752709 2.821410803549839
K 10.035788591601241 8.497676548829098 4.310278127355346
K 6.140780471125344 11.032164562665107 5.612098578535425
K 14.370349225330944 3.9081016502977235 6.26140239548441
K 1.634787022467547 11.449052682826018 5.729133523553771
K 4.428286538431107 14.80874308321574 7.428648408429776
K 7.585000749434685 0.43986294363890766 7.0365951345921935
K 3.524827090860179 2.4446566056853496 5.3849308964698634
K 9.921363673227592 4.40501021697164 6.461481354877586
K 14.935889153412804 11.697364211764663 7.39689478326066
K 10.365808446857091 11.848158837792688 7.57115199787668
K 3.559739165725572 8.3586466770548 8.500064707418558
K 12.547927408142897 15.672635487923383 6.871653936707983
K 8.12143112027917 8.093596293578017 8.309930578951391
K 12.702387571650284 7.773984894710808 8.158854201143837
K 1.327278742422916 4.46858721955217 9.077507849833154
K 5.874821642364599 4.260998551935463 8.878934310248583
K 11.80562788443092 1.3067804139306551 9.182288297101401
K 3.7309290888815716 0.44850672813839837 9.599141499275266
K 8.664370113367687 15.68268968750134 9.418460715207965
K 6.353924381424232 11.74217696170663 10.204685251976976
K 1.90356007780113 12.169765975432673 10.391639140944505
K 14.581577038284426 4.6899864679302565 10.810101394301233
K 10.00425982578777 5.156374590288893 11.07079144334521
K 7.799515415198949 1.1793413920554219 11.647037984401699
K 12.744147453531138 13.669353776289281 11.073091116465404
K 14.997821140133805 9.584566447876657 11.635860647234164
K 10.386311367344145 9.821257635914296 11.71908459153987
K 4.831491984162762 15.469584402959688 12.019709366955588
K 1.728002343560043 7.95268299218879 12.550464435954932
K 6.264374590431643 7.487897383627706 12.315751249225169
K 3.748759837905516 3.7471258624789203 12.907469668883639
K 11.991116479211884 2.2439817417757943 13.663389701860126
K 8.723387706356503 13.601781308880224 13.663191337945673
K 4.479541603322565 11.28497365120252 14.309726019843916
K 12.547345424672452 6.855810249285241 14.388368413601018
K 12.55487305296291 11.455326233213608 15.148813140718667
K 8.504266477150367 9.293838995508425 15.845168803867614
K 4.454017564322399 7.040538924759502 16.232066666686404
