52
Energy = -40.81010237 eV
K 9.672825990438412 6.439254073467967 0.956399947223731
K 6.484696895625918 9.518142147604578 16.62230646794195
K 10.283068009049064 11.177908461452722 1.6586192400331643
K 6.1197642170110225 12.918355217951612 2.7553497722858262
K 5.32639998017972 5.555003109078676 1.5939528830657836
K 14.03533699556805 12.801220335386697 3.6890212980978827
K 13.122055780669188 3.790691258960355 2.4769002904263635
K 3.004404476478887 9.23206377666992 2.701180447975809
K 8.795182375056518 2.5709743333922153 3.04358440026379
K 13.615885169364333 8.297077369872927 3.05820905421371
K 7.312819360131903 8.777359907889371 4.0148665059829485
K 1.8497453098735797 5.483801482341504 4.847381971901826
K 7.016798139809921 12.156847032646569 7.072294100239433
K 5.781478578322261 16.255588858637914 5.854806972622898
K 11.03925059451053 10.469774868480206 6.019223926108343
K 10.036609647351558 14.723571401815523 4.915292114839027
K 2.736022489708648 12.841910790093484 5.900768926264213
K 14.87368187194643 5.355520464495446 6.40236586124902
K 3.1433120602363385 2.4266758654233627 8.33521217411791
K 4.054077127020713 8.70206177043371 7.05906398253221
K 11.714458842651753 1.7159153931282893 6.344622949033691
K 15.404008774935049 10.096307830289762 7.154123775470862
K 10.55434017640657 5.988440991174875 5.3651942541133
K 16.689455328810933 9.352420898701977 5.981361782481062
K 7.463927910791436 0.628670232807068 7.213732516990152
K 6.2456477300450945 4.903679405059023 6.038708691210252
K 0.9313030858337598 6.231077834048265 9.176346480301698
K 9.319102703387719 4.173788492365043 9.26365199519162
K 13.194442229549251 13.902778763399379 7.998082353208369
K 12.282962824627223 7.626781808796305 9.263057023767852
K 10.549596853482434 0.07581279088907289 10.494794825896353
K 5.291167619625133 5.86394490483527 10.311673150468016
K 1.456112747568625 10.968989863971641 9.920816356863622
K 8.86793806207609 15.705320458554338 9.128135942391868
K 13.589288611621587 3.48435064114825 10.431993960434243
K 4.613220576873588 14.607333029324797 9.992712239879769
K 16.549532690280262 6.965186192759958 10.344329572575766
K 10.089497110713664 11.429121254385281 10.287175163258512
K 6.3042512305513965 1.6157360081565018 11.426545256885992
K 5.771112503463449 10.336422006929352 10.965699787458329
K 2.3012902817379577 3.527164549518381 12.65191306603264
K 14.489048717833958 10.847725547886977 11.4730314566606
K 9.022566779160476 7.560627888081719 12.305420743359921
K 2.7121917956994284 8.025129841725983 13.276287314340953
K 10.224207417225427 3.424523631307664 13.584859600892536
K 7.519447772489244 13.750644733708949 13.29068853317125
K 13.330510754058647 7.116925075975196 13.631437263248198
K 3.1917617191775025 12.531581672443792 13.852533311643276
K 6.06229593175159 5.168439734000675 14.672968259402335
K 10.997657904471938 10.78613543128407 14.727853361426488
K 6.6504247415862885 9.88986557158582 15.370861349723874
K 9.85353264627073 6.834168826456019 16.62230646794195
