53
Energy = -44.72278182 eV
K 6.9531931975411 9.82836239503037 17.062700386491674
K 10.08074003331307 6.716297998861206 1.3011458877766395
K 13.210670761766943 3.6795131779029258 3.0719356279258934
K 5.5506230477906815 5.840051767967137 1.8217723822384317
K 10.886314680666706 11.24594504544179 1.7989607309912605
K 2.3228299394535443 13.785291974415527 2.2209886684029754
K 8.672006323562156 2.8225611472495213 3.556527911710759
K 14.04339984031476 8.189423758408099 3.4748642985944493
K 3.4835650151309636 9.700491147174183 2.798886876557593
K 6.742405643338643 13.301382462367867 2.8701728909793234
K 4.08560256740765 2.1753825046529705 4.1706901967695105
K 14.61723375967304 12.650591982267702 4.038505531434572
K 7.734632783833346 9.099112279783919 4.154847774016726
K 10.845395990376504 6.068924839361448 5.7709764072709655
K 1.9424976347940228 6.1158625925440075 5.033969585192937
K 10.664963226481571 14.846104398139778 4.9339445435268425
K 15.780386205036216 9.64954761612806 7.487483428505134
K 15.066506125339687 5.0963814681918125 6.992563934349762
K 6.155683028829837 5.392813519176815 6.282688781836347
K 11.542991740483165 10.615464324138808 6.270644597765523
K 11.8341767940115 1.8031836639260508 7.014623066359182
K 3.2336881422053785 13.692700081821204 6.29668996049841
K 0.2144490727616124 10.441901919877594 5.803396580575846
K 6.448894600888373 16.669313213773467 5.736335841938691
K 4.227184274553172 9.376940700160516 7.27983324820192
K 7.646946915086637 12.779289751796863 7.354253750098638
K 8.394475949275662 8.533415003083842 8.527287196948507
K 7.143756108580599 1.0831036099543665 7.593696626264749
K 4.882268868202733 15.140995796799269 10.054386211179896
K 2.98023691528509 3.233082133495101 8.485658007594171
K 0.9786973953831463 7.345561385325025 9.438393900104204
K 1.6419087387070443 11.775566778628713 10.129670014101979
K 12.60016342689284 7.6190622484242505 9.810823024707776
K 10.567637585042311 11.716254626731036 10.830445243002682
K 9.340155356144614 4.306639313223467 9.743261841105168
K 5.239961682394476 6.344750307707558 10.709101225134
K 5.979464026497017 10.939374395240417 11.285972525495772
K 16.68237383378306 6.608187178401545 10.948395929361252
K 14.79954261860205 10.813027575764186 11.927051440752651
K 13.658671220041432 3.202800917859719 11.042061802355965
K 10.17201635732164 0.23889907514479092 10.975564110447099
K 13.811292796209699 13.652946592534484 8.458967289026296
K 6.070161280698251 2.1424966616305743 11.949892049318436
K 9.107863546922115 7.70057613127153 12.843780468917176
K 3.521793500270275 13.195279971714736 14.018292593373623
K 2.110669317216939 4.321551555730308 12.892654109516467
K 2.753918139356512 8.755723859580112 13.520139007876889
K 13.414715514958125 6.725278793972345 14.143099509456713
K 11.479855761604965 10.651202336746167 15.088138401711495
K 10.10889780479284 3.5166513161280513 14.146589640440538
K 6.761621091488235 10.141708386366245 15.647722999068149
K 5.878092859806633 5.57309571432504 15.136846535318643
K 9.79425464879185 7.001380292568301 17.062700386491674
