53
Energy = -44.67867922 eV
K 8.233176000656629 8.482488360053853 2.035131693277901
K 11.303096446446556 11.411044302736876 1.8854130441141406
K 3.6061055666767166 9.130148362008256 2.765783537697417
K 10.47911624410026 5.174661067611729 18.18736191800296
K 5.511012393362277 4.92776948299129 1.0308649189359613
K 8.349198568350426 1.1444888634957302 0.8351412596825234
K 10.171080542298519 14.910028208134118 4.403937151563365
K 6.54684300138708 12.885219541258476 2.202336262198917
K 12.799744614174505 7.220815086569831 3.327040194709496
K 1.6875162656016034 5.025085793628389 4.543013324967259
K 9.917425435331495 7.626351436213316 6.710983033584217
K 12.769036198298878 2.069744016262675 2.538436596744474
K 5.815388876576449 6.5416286840539435 5.3482372697289575
K 5.176284801241088 1.719439548453029 4.37471708860106
K 12.400060102245913 11.238317600262995 6.262645318742067
K 2.90937163615449 12.532963429127083 5.7384638813033355
K 9.178667897046685 4.2955163600769195 3.6753159061773095
K 9.683689935205894 18.235553712618415 7.580202841814671
K 9.620620884332753 18.38314011709517 5.308042980320627
K 7.243677998501564 10.890854494882676 5.935303351763502
K 13.878388046430718 18.437529468215008 7.049634177354103
K 13.464303465711916 15.554030610625516 7.649284728559937
K 6.015522512780514 15.60040622058424 6.314752148593894
K 1.2205306898345383 1.1303276003324645 6.99091777929798
K 12.61140840602923 3.992487777471562 6.65613464486121
K 3.9665671963047386 4.108199250011012 8.450620369761468
K 9.509734849576482 13.822630748982832 8.766222438153871
K 8.085949057459343 3.3721218756336717 7.678773618808808
K 5.682080609776225 18.235553712618415 8.635590375366336
K 2.502913452486068 8.537365026692921 7.549696882591196
K 2.4004286447016363 15.132332589139661 9.393143810848462
K 2.1895267045369295 1.546166023249705 11.443909108543625
K 13.958962273956237 7.897219035572987 8.88235866158834
K 18.373051905914014 5.183287768476437 9.341337913412056
K 10.447053036728814 5.353066584703215 10.510029953611648
K 10.514061088529997 0.5704533368461823 10.027170101153414
K 6.58623018802269 16.899463105529364 10.724782648485668
K 5.561320912149461 12.118294901871062 9.831831738001497
K 13.216250384937288 12.360676832409755 11.233597196584013
K 11.426746601243005 16.77580471959583 11.52866893103138
K 9.814625934718878 9.802431635904652 10.85275019112646
K 1.8990903625170288 10.375294232831406 11.560962473740892
K 6.338859570904931 7.512907041724605 9.871794253398553
K 14.41433467053578 3.263015851766826 10.696449232104422
K 6.720776207941763 2.8627224734911327 12.036317498058008
K 3.2455360750987072 6.073879770574651 12.643016223044157
K 3.9434749947840047 14.254062997124647 13.55700115347536
K 13.169341351446413 7.362552807982112 13.304755298486294
K 11.223757166348094 3.0706803522762174 14.113986484972152
K 8.588789630819775 13.785896158570445 13.339639377185684
K 5.816111415644388 10.14304045205146 14.015965162829842
K 10.411989520311494 10.359440767120367 15.327505487835587
K 8.263392760337556 6.515212813860279 14.19525145971217
