53
Energy = -44.87253526 eV
K 10.63854039063251 6.5404591684504085 16.933183993850157
K 6.662011999343179 8.859499972991657 0.8584071710061415
K 2.5519699980582926 10.912989186910249 2.052367981302556
K 7.316536713025005 4.291549269237107 2.055704962759326
K 10.64907188473478 11.001901113554187 1.1886152024501695
K 3.337648938311842 6.550971433054018 3.0582978117884765
K 6.60292890266361 13.203098055000401 2.2710521265580175
K 4.02224052867439 2.2582330551297156 4.44395303169149
K 11.843437022317437 3.663558200672056 3.19194348032738
K 14.033461755828972 7.633270886020111 2.639283156989498
K 9.657643778039455 7.653283062202974 3.9083424646050666
K 5.526889559017929 9.909209865835884 5.062683976563563
K 1.055407206570594 9.548328053974153 6.1821384278106395
K 2.9905126180343578 13.606137921129681 5.679219061559055
K 8.422002758497136 1.531287470907445 5.560285818102267
K 14.161835961201877 11.933091427559669 4.086963673911695
K 6.301057401988467 5.500198151242491 6.205489301347642
K 1.7766517375443096 5.18519707911402 7.073493810313917
K 9.647285538342574 12.159601833900847 5.3570482547159
K 6.902931478755096 15.766916401261643 6.073793423380815
K 12.817751702018525 1.0695077144336764 6.866575531625564
K 15.111129794535277 4.975630743269647 6.2506515557586555
K 17.13715470578123 9.00543680334327 5.737123189505922
K 10.756054431138942 4.842682283257468 7.439819574311404
K 4.974561253016526 2.1757369745543094 9.038026666381189
K 12.912480773451588 8.852855761340507 6.881713686443647
K 16.025608551544746 7.560519326767367 9.951963886220208
K 8.5650816994 8.788626047861072 8.080470303305201
K 6.166049412555139 12.448850257887017 8.764546169599154
K 10.874309068704207 12.155643009825534 9.892320237656525
K 15.411804637809045 11.88528645426809 8.71246732831846
K 3.8156173475351376 16.063381897086366 9.4115730591864
K 8.147425427616009 15.773135182548888 10.725820126223422
K 0.5628609991707786 2.660091639300217 10.28482881409319
K 13.810736844985556 3.6307460553323394 10.547263471055258
K 11.621046110627795 7.6392889274519105 11.094537340161676
K 4.214200335911944 8.314774733845942 9.276364756799842
K 13.844504625906284 10.947663283428469 12.985744501091602
K 1.7964762832077767 12.016724334262554 9.964475186233665
K 9.666007290231466 1.5228232936651414 10.214314127350338
K 7.56838308260651 5.490550695979387 10.82430027320903
K 7.473500540271592 9.882947656363832 12.250736385647892
K 14.52967360702145 6.472120440738921 14.093756096472072
K 0.031443832762449685 7.660770731090958 10.431105376393381
K 9.819522887580964 13.164646500465691 14.10962485474864
K 4.990935651276508 13.59514182600727 13.057010730155168
K 3.2386904210850753 5.188547474993748 12.405332521856836
K 10.527232184082042 4.257947371297099 13.860711554409582
K 10.58923965491264 8.792150649943498 15.269280356533539
K 3.0599252442886815 9.533291182284735 13.583603168268322
K 6.473323408443077 2.232656140372517 13.477169990953353
K 6.600753554155273 6.513089354573109 15.067411297982968
K 6.457918494037741 10.869423673264695 16.364271653286302
