53
Energy = -45.1536224 eV
K 6.629529826676041 11.251089201720454 0.6551068920648988
K 6.600664045785991 6.946953241957066 16.48334816123137
K 7.059582129733114 2.9023032279175416 1.694963579168881
K 10.791000645782972 9.985933475457843 1.057603027011534
K 2.908063201214451 9.240649766849112 2.1760178382862145
K 10.811841881227918 5.438261845727756 1.3482787976946846
K 3.212573235002743 4.729749010948726 2.768647307889308
K 14.829526533080681 7.709679823904749 2.1322762684526144
K 0.6041961091170994 7.01438940846493 5.82361527054685
K 9.294042696938982 14.566626831820928 2.509682435239553
K 4.710413752870224 13.386512261245091 3.992812166338774
K 7.037442667877969 7.3708426540163785 3.523404850407393
K 8.209341527681806 7.704462982841696 7.818300514095229
K 9.224157716843544 3.627157838975054 5.753178605682905
K 5.123621611384454 0.9470041672838818 5.133869674665735
K 13.732105285816123 11.574391943823592 4.364767383235262
K 11.543988711676631 7.721990438872274 5.014917949510002
K 4.718510481227568 5.003766215357493 6.970728806659215
K 14.060719137309622 4.070217023465033 5.459000242658316
K 0.9811387720708354 2.4818468696118487 6.250869153087259
K 11.889490464907272 14.883299098068202 6.56907443145565
K 7.428013509810271 15.394412956064144 7.007372893517074
K 0.5572931479896145 11.571800800147512 5.454425022054054
K 8.829657374866038 11.383120469805883 5.182121409670916
K 4.36799480228086 9.682147096285233 6.5912131565299195
K 15.714060746049872 8.131985159120553 6.753185656305984
K 11.828829249960142 10.415815149203084 8.808663233008257
K 15.310587214232605 12.682149182346665 8.940536371093046
K 3.269097413409672 13.769650745349796 8.5261726935626
K 12.016420993408953 5.868052011047147 9.238161512318944
K 7.388405040547838 11.665730892052293 9.68639297739362
K 15.654999230134463 8.520048054961258 11.14697197417882
K 10.880145897444407 14.448492216635106 10.820075233371544
K 8.17563889797056 0.1120360767851313 8.546876674896833
K 0.9502824065078709 9.68691817260454 9.653350654144237
K 15.729696317154348 4.017138966267456 10.02044440167678
K 6.547132515029467 15.605588696366144 11.55088744819806
K 3.9833630340644945 1.3208368855577324 9.69115601754772
K 7.713729583030232 4.093644393539426 10.440148241007435
K 1.2974371568495404 5.096259581270953 10.055994887662651
K 4.918751762212543 7.758242656352912 10.846605795857865
K 9.33794158299707 8.16127416599793 12.255373041409628
K 12.753888862189255 11.093895296768794 13.315077929240312
K 11.555102926317327 2.055467504896945 11.547359178213336
K 3.9837296117198187 11.768567352062089 12.719085773357916
K 13.084418641374024 5.8765732395211705 13.747004410636892
K 8.454543156552736 12.244754003684692 14.194064244546158
K 7.371130032335233 0.534056184576482 13.019728627650002
K 4.380727224489712 4.010797023717293 13.618393751544867
K 1.6679894263566504 7.7638636546857285 13.823916287228496
K 8.89886357126929 4.370600865342619 14.944420992138635
K 5.931720805684369 8.174915621127006 15.32892344949681
K 10.40764528086962 8.525225446862532 16.48334816123137
