53
Energy = -44.8012986 eV
K 8.702317251933588 4.882330538708031 0.08291792350277628
K 6.766566532012323 8.872367973788862 17.277581223431376
K 9.105141641941568 11.850631602485722 1.7610834569026295
K 4.468160872114791 5.29680604965104 1.4405750989774377
K 11.755167767485604 8.177012227867962 0.38156595456904735
K 11.701227081345172 3.6064712261652914 3.1052735090670063
K 4.930181276296098 13.13974602529254 2.1583979592151747
K 8.740674450957622 15.338441181699245 4.65524799286215
K 2.4660662476448696 9.39367514050767 1.0209857333708412
K 12.81246203870551 11.109742781671581 3.906543600273882
K 9.416706477496724 7.577787367896568 3.8168438208051296
K 1.4197905598687286 6.6393941413655115 4.537542791903041
K 16.020134928935853 10.234952430755161 7.164725868701369
K 3.0119107639819425 2.2228972085114154 4.629222860193293
K 14.337196028320482 6.989254427248674 4.224087865775555
K 7.414564245946492 2.2414079522711887 3.4141398748463505
K 10.635671144135475 0.4915918393683388 6.189999170254606
K 5.429611003557988 9.500654967299763 4.204146826397486
K 8.928549659744036 11.599641781192537 6.302737973264206
K 12.162647864555382 8.530236357664258 7.602031333114928
K 5.477884301398173 5.397093575689055 5.858477809561606
K 9.54167661954947 4.528573707788443 7.028499002446106
K 4.855012807673402 13.467390450816675 6.90245875191923
K 12.653190470885173 13.471426711258848 7.858721269350932
K 1.395492715587667 11.349369368585968 4.941851104667249
K 7.785292557432288 8.264958600618025 8.360515690958264
K 3.2873329462375582 8.66195203863429 7.987517136646792
K 2.4159667987850657 4.240414982284166 8.818734716380986
K 6.6102900491331384 4.970660341470685 10.492365092210326
K 8.547412028324901 14.979898245416624 9.386908146673436
K 13.559478923882137 3.8628906340432607 7.844828570550265
K 6.176611527828328 1.4313055545268392 7.917137309852732
K 1.6757503958564395 12.018876296412623 10.22345501745794
K 5.929279683471811 11.370937804394906 10.531274851847764
K 12.151456916676553 14.803604793576383 12.261818545345232
K 11.06878652526054 6.430580301676397 11.338371783510745
K 15.463176107795148 6.942597008602383 10.406832399702438
K 10.442414512160806 11.069827624089246 10.807429411080452
K 4.509002180221955 15.182904842692352 11.746836479953565
K 14.747708272012728 11.159881028152162 11.475593294779973
K 10.133917627143099 1.95212689164109 10.578374894865819
K 7.781226509358691 8.575107361001244 13.343964881146636
K 3.4066541441435874 7.599525010320522 12.208004168095792
K 4.025057908841363 3.0910376995816615 13.112576006348814
K 8.07036619210111 13.553916192963657 13.98679522941931
K 4.204766069798958 11.275963341872508 14.614685288658126
K 13.242487659054355 3.721823214737726 13.669119940707139
K 14.486293161932416 7.893394633692881 14.521050199907357
K 8.502725541586651 3.8367668174112755 14.300754061606279
K 11.740790368157834 11.255992310667247 15.175155257654884
K 7.804203242206429 10.39070305755087 17.277581223431376
K 5.458741339387641 6.6183123317952175 16.198442610690165
K 10.619932631533702 6.930270577022231 16.42039019368539
