53
Energy = -44.91957674 eV
K 4.990057681929752 8.970674013234643 0.18176129318061676
K 8.656799031866006 6.047666781525097 1.5992158772704985
K 9.054958622943984 10.834580039914307 1.3475091158089516
K 4.052957885764973 5.266601217639766 2.7099559987601283
K 12.348593023984748 2.9944789764132445 2.6136755632398367
K 5.051139724743318 12.747674226173823 2.681630845840791
K 1.9773553161343462 9.426839230905248 3.5129784615031006
K 13.113361383721543 7.504605370563341 2.650429373749112
K 8.112817747745327 1.9495427867671011 4.083840008271867
K 13.311438318087793 12.149410578964886 2.6872716554044285
K 6.446854432450971 8.686946525117316 4.247082860099016
K 3.651309544572077 1.4865587542959326 5.350311468760166
K 9.420006514450476 14.457643765811744 3.980842242026654
K 1.3131195933933144 5.459727795331411 6.271672699792176
K 10.369623350371782 5.5102939368767005 5.523254865258108
K 2.208604922444368 13.0836293673573 6.319189842449873
K 5.474327484884599 16.24636167082382 5.499144359811742
K 10.735787117414478 10.137529363506346 5.45127973033736
K 16.8950712378337 9.555011310438934 7.224290052843605
K 5.919887869807883 4.822248889575921 6.776738100729798
K 14.8707105421639 4.700697547485187 5.949418790620551
K 11.801768233148865 1.3699622294576972 6.808603542379338
K 6.773387764473193 12.32183886521639 6.863207868948798
K 15.308432106685524 9.527308260228217 5.993515688953056
K 3.661519251461547 8.958799931563634 7.721322910544726
K 7.211737363300712 0.5390184947554217 8.243347995346834
K 16.8950712378337 6.837769624160494 9.377018849961388
K 1.4852170121331214 11.69643947813902 10.672718544646594
K 12.622987611604119 7.401616943677588 8.865474475666824
K 10.38807801844531 11.65647155706165 9.878772040852258
K 14.841674889864139 10.816576285694236 10.2858919565266
K 8.977024949754387 15.743223148958606 8.317778495902813
K 12.968088765337816 13.629993793316322 6.947561954736701
K 3.2921293080948497 2.8002000994942255 9.655951737562301
K 9.53099797943857 4.059851555162317 9.69559303703676
K 14.085505885427061 3.3120246297610976 10.332313295211133
K 4.518627016243662 14.976347145928495 9.815709726877893
K 5.961135770840967 10.869132481464943 11.116789812275957
K 8.168364836337794 14.331886990715468 12.68387063803497
K 1.0840534158109443 6.912337799438763 10.541280124770108
K 8.14545292089463 8.208025092364961 8.32144984376469
K 9.8026146187663 7.779251453720346 12.385424247007887
K 10.817648270278985 0.1436768101800066 11.059824991020575
K 14.243680083435283 6.995046537968376 13.115425963293687
K 12.037143425958147 11.183841169854004 14.00934038213398
K 3.9620862216239687 13.411710028718046 14.044828399327454
K 6.972778887931869 2.0662549311581433 12.525512952592175
K 11.20305280186899 3.7353300848344886 13.919578830946747
K 3.3501716734163365 8.938607433162785 14.0641115238686
K 7.612156866668283 10.440582082049588 15.220323614907134
K 5.52647188654148 6.228230048234565 11.246021583944726
K 7.231290032219466 5.79301143767612 15.338855999308626
K 11.26800910788671 7.4912389622257045 16.485413300954686
