53
Energy = -45.19375649 eV
K 5.707492346115935 15.259987395497555 1.6696856212875817
K 3.2523752413195397 5.720916216826608 14.48156060966565
K 10.491375807341276 1.6752807639443428 12.069096374804724
K 3.399445182985419 5.626409686487925 12.964341965477539
K 14.11183542563309 9.566596491165257 8.230869552805402
K 1.8338189544952335 9.633092365248178 11.0531617879186
K 14.072230503145335 5.634968413782593 5.755105713452784
K 11.937898799742145 5.723127566004774 10.145722722411781
K 1.073823133550038 1.619602741926979 12.152358368098358
K 5.716262073606355 7.697884646335873 9.67695674106673
K 7.9664707414663 12.230559022167462 2.4305187896984326
K 5.692059435730599 5.695262039026074 5.695371450517152
K 15.517348719299523 1.6260541476111876 7.765497765192922
K 8.077551769263295 3.672647518868872 8.864452752343094
K 9.457053549623398 7.727129044259701 6.893826977139091
K 5.650806183989929 10.247606865138593 5.679859397651908
K 5.667847357457349 3.687584807158645 1.7052813644915594
K 15.47313928978334 5.662331247265779 1.2441404331710506
K 11.862547831823761 5.7721419533446845 1.128429441960298
K 3.4181822920809632 15.174431311205575 8.954436957226292
K 9.460740518957566 3.717982757616711 4.414437454866345
K 1.847238059832822 12.152197630140812 6.984992642908293
K 8.137092870753515 15.212531594044862 8.908732534729415
K 9.457724347269151 12.190417122131828 6.9223120598435255
K 5.674556619273679 12.145301517848754 9.713519025152305
K 10.307390968822437 9.767894608610016 15.255145170594096
K 13.335362223987321 5.7478266598607295 5.6286647794373055
K 3.4038516189618697 3.6348386596715065 8.906734280821867
K 13.296589581624206 9.692364446238466 8.064971144317603
K 5.594309277439571 9.758505959699248 15.169296508172046
K 7.985661112841015 5.759975899651467 14.441555771093602
K 11.987413871908304 1.7254013295808164 7.642768835065612
K 15.544785238550904 5.613526410204525 10.258239210745304
K 5.670772596870259 1.7494527182783985 13.703588334250293
K 1.8044217814587604 1.689357834775805 0.39752465904639867
K 5.789156697032889 1.6264433880630338 12.240334064166419
K 5.712827760969071 9.633801818949053 13.703588334250293
K 15.421095241423162 9.658665606992237 3.742461484236181
K 8.13284350117686 5.666076239372609 12.926822798301979
K 0.890706685768581 9.71397097461403 15.337866275566437
K 1.9255253789127318 7.66626473913939 6.968456218787048
K 14.113951849459275 1.6875096066669049 3.317325749409268
K 3.2469616718605403 12.193025607395983 2.4744534605257207
K 11.887490139487308 9.756758734398094 3.62008232847225
K 9.578607645572495 9.692545381404233 10.982875782343898
K 7.97860945671022 7.7516323114561745 2.47771823354964
K 1.92797604873542 3.6589819671441663 4.489117637448342
K 13.293097201688578 1.8142167224208705 3.15542242692223
K 9.550612691404423 1.750381794031238 0.3322152787738097
K 5.733314226665271 1.1360854363648853 5.703237137398855
K 9.538149762939058 15.25096373890046 4.398027826669647
K 3.309752046554424 7.714177723357849 2.5199565812833136
K 1.9268301980174811 15.216755121540423 4.459096102077793
