53
Energy = -44.93112362 eV
K 10.932223882133648 6.810865304134931 3.2543906769566404
K 7.617137110296127 5.751586533284594 0.43819615043625787
K 9.935412755077367 9.850861596475594 0.13030144284685863
K 5.353979749118808 9.516062613661434 1.3783271355576852
K 3.2035393206399436 5.440906668454612 1.5787160006979681
K 7.516614910632449 13.701906016155252 1.3425493908022244
K 9.363605672572117 3.3799629836207723 5.952308819789284
K 14.161486737672632 9.56948120560173 1.8711700145367107
K 11.821232565095945 13.37656078966747 2.8799590062341975
K 2.1848649382375016 8.320683378707821 4.922216290566963
K 4.4136799467732 12.689904997760793 4.616842943346744
K 9.364897065365616 7.590344795558661 7.374141277610324
K 6.298174825602362 6.514026912440612 4.496703244799751
K 8.515095958277895 10.65087100206702 4.286363841551385
K 13.334920401297433 5.614155162319129 6.991382947596611
K 2.7158890656917483 3.869623675555199 5.8445675555976
K 8.46550988253272 14.925136556931687 5.619614910688307
K 6.01247855698911 2.3107205325110303 3.164768661477676
K 15.963082306039247 12.708790438222593 4.717667351653267
K 6.0640944048070695 4.907224210323471 8.78555576892598
K 12.698645116959014 10.175944987184284 6.032715504501181
K 1.4446677352852562 11.482572015221324 8.041619343471565
K 10.204707833163754 0.46358734025268283 9.178133587043954
K 16.638855884425247 8.26302005046821 5.678948269993531
K 5.501339405311142 9.79504749852398 7.650923831745896
K 12.737824851863632 14.415887516342993 7.355940767220003
K 16.851332198576127 6.002878481250132 7.777191226503004
K 15.83877519470514 11.425160467324764 9.120361868236246
K 5.898156633427563 0.7528959480598195 7.46041890616776
K 3.474185749550093 11.370554480372656 12.070287515981292
K 16.374846110036884 6.955316503631723 10.073954797602426
K 9.35042201231815 11.874117283803056 8.768307027989012
K 14.195783274212866 2.828186939094555 10.352109396295592
K 2.664807309819279 7.395650757337485 9.911389932145877
K 16.63885588442525 9.406379885219659 11.116686839520508
K 12.296100793881795 8.82070496879614 10.392171879740605
K 5.308748178223164 14.114157485291509 9.00125048604587
K 9.355389214007314 16.01719816332566 9.966337462246468
K 10.224534396919486 4.674746782866183 10.429812437268
K 17.258940558600823 5.141664474297432 12.24321955145247
K 12.325519662536177 13.121161643382509 11.829572948662463
K 2.526715226691368 2.596558480257291 10.090642000726712
K 7.43243525812206 8.42464172024263 11.402570411397981
K 15.257677661656864 10.011410875100486 13.361959216646689
K 6.83496702672315 1.775585956458127 11.859625500504718
K 13.251890797369796 5.853286816582351 13.54354841031559
K 1.5628308151214316 8.364224350732677 14.65652427306396
K 11.13759166955674 1.697130775165673 13.505541754416024
K 7.69590770926994 12.863630325526772 12.896028235469595
K 4.340697078966028 5.204108797577403 13.379120987895414
K 10.627738265637882 9.734024452818531 14.399910657737
K 8.712922766331047 5.402205321140822 14.520398414643253
K 5.950146045216621 9.148062215186584 15.358412257967405
