53
Energy = -44.97651723 eV
K 6.917706875636497 4.124973982253161 0.005818376745358963
K 10.22842619860043 7.629354587078179 0.5681272315771099
K 13.188749332329332 11.158489259346604 1.333039137973026
K 8.594857157148954 12.081448273373626 1.4626166425354132
K 3.9059722862941926 12.838119826881321 1.7145565978513078
K 10.815084691766542 3.370370137674395 2.449625155488057
K 3.1944137882123527 4.689699638530358 2.8291643400689783
K 14.139186359916927 6.927469250424315 3.166807000584457
K 1.6787686892785063 9.146755634443604 3.886227144156438
K 7.4512564059402635 6.164252545153381 3.9280192864696013
K 6.544194252564774 1.6635642817261118 3.9157579449622912
K 11.416663405678246 13.99472498908248 4.617717943454519
K 6.701051465211336 14.906746213140488 4.663485817722629
K 10.6098204778138 9.501811417007533 4.663395405869152
K 5.989913437265953 10.302938424243854 4.747605971871988
K 14.665580721712224 2.8117774814382663 5.070282600291989
K 14.906438090727296 10.962390244419497 5.633592113339413
K 17.226889114442862 5.420985950501816 5.797833228216905
K 2.4405769274715605 13.158557340037355 6.113546610768466
K 11.28961716759519 5.440838628174636 6.504459938686144
K 10.4919411408526 0.9590870732379109 6.498839424253538
K 3.8992802613789688 6.696508835863276 6.911674832305565
K 2.844553910505629 2.1853633743525656 6.901746167942982
K 15.635718277555219 6.649783619312817 7.626376263193475
K 9.514897693274753 16.771767146721377 7.800707077130818
K 8.753072441367268 12.263465363877804 7.8090228334341045
K 7.143150396249776 3.786754339799824 7.84007119695076
K 6.301207639306647 16.771767146721377 7.989104015772827
K 0.27905662980347967 9.335855117547052 8.351781960054351
K 12.085556431422521 9.350483973329457 8.909359147711175
K 13.039411002401964 13.921499728190991 8.97969294817453
K 4.659797137642549 10.588069393794072 9.130364452727228
K 5.39369085401411 15.081489742806065 9.137029118603833
K 13.50456485508298 2.928724959719928 9.563756283449925
K 16.2141955165956 10.61907361596025 10.075433538026873
K 1.102486386649732 5.067339841091536 10.23332484194837
K 1.308362982145545 13.22260351644433 10.606819969334522
K 9.951529376476289 5.764641379146571 10.834956998188805
K 9.171483936985036 1.2732951510869572 10.994176484161667
K 5.404342151254621 6.523099054635528 11.174976344233428
K 4.6079269792515305 2.0484797992250634 11.328598030223509
K 8.381641648081095 9.89553725672816 11.726178801381806
K 9.281159523842524 14.36736151444799 11.758171235642076
K 14.289798750115763 6.900617284802535 12.098920194346778
K 2.0338821299056566 9.143570011176829 12.72361258101223
K 12.648450890637895 11.339560141266821 12.899099065759687
K 5.061858719572161 12.675173776973539 13.224847132995636
K 12.084517060257944 3.2783016079295257 13.984683807356388
K 7.475532849655326 4.048679199514793 14.36234914316453
K 2.8321945894854723 5.0136347309050855 14.5608660703474
K 10.595885618187223 7.623333286080348 15.048246812925314
K 5.881852005838416 8.419977009350015 15.35126076644454
K 8.966964050178076 11.934964584611164 15.760579464244534
