54
Energy = -39.28450285 eV
K 6.975762235025818 7.79443772680834 16.7313586032417
K 11.1203036561231 9.37265848409738 0.8131749964919794
K 10.434588443106978 5.278839186519474 1.9069866095313879
K 8.618438353083057 12.62519074286189 2.3171328680250998
K 2.132293280689165 2.7685784642901416 2.155928462347915
K 6.252260454154997 3.9544366144262884 2.243440464223378
K 13.579232078343372 12.482790987201305 2.7515614234898935
K 3.2070300284795246 7.202238287172538 2.6157354253144627
K 4.047635325132597 11.631335745283774 3.372700294287824
K 7.438057447782646 8.27908114609653 3.8458453692601955
K 6.178953460621864 15.731204424016026 4.400296780228761
K 13.908414900969918 3.173661240711066 4.134543222226976
K 14.427688753721737 7.942883077270674 4.031230875813573
K 9.439714986275153 1.7697334441531938 4.856960238963399
K 11.067353783938767 10.238230166966202 5.3063471949060945
K 10.821902878457571 14.698776359467267 5.836813565997962
K 4.776075283910268 0.9484390937025212 5.519107020778833
K 16.933415600478533 8.658220498678704 5.580282178258949
K 7.173159380770153 12.224372812945193 6.475180104549217
K 1.8380188401604882 4.505671642138651 6.036497826345868
K 11.052342049761831 5.646556357545133 6.196120655978671
K 3.960464138843394 8.749197347997153 6.8889426744982645
K 3.4295746033632213 14.0671582621697 7.5453417280978
K 6.458276355131862 4.759469033839459 6.774086627816122
K 14.683891164576684 11.911888818904485 7.173463619050959
K 15.652402680087325 5.467685547475028 7.597961840261861
K 8.310634155349188 8.465085698395187 8.238147067589026
K 12.571918727638064 2.067772739207881 8.378774786367803
K 7.943494184074954 1.2673073367272865 9.190567021654198
K 0.7697989541845432 11.029587408678378 9.431323089987405
K 10.635630474994942 12.101206022863916 9.549061888558818
K 12.771079288883929 8.36642032900922 9.28623613183936
K 3.587794937443068 2.6859647124926 9.747122770394844
K 1.1518972596972636 6.679246332350659 9.817494460170616
K 16.754076347429574 8.734824864272465 10.614376673428465
K 5.349268098637053 11.026288882691357 10.37275015003613
K 9.795857359503604 5.030169404652256 10.511066293997851
K 12.042907397023676 15.978306730859147 10.336316332715995
K 14.722446400177857 12.655051889130975 11.532046021762204
K 5.451583462822364 6.523661535352251 11.007933083904039
K 7.344032399528159 14.897401483224783 10.4298912862938
K 14.026849658128455 5.008339610948751 11.887366592627021
K 8.977031589211354 9.124481596691194 12.536132993217464
K 2.8715999434966557 13.973826560771386 12.133670095179394
K 11.064881843615714 1.510244075166599 12.644501254888194
K 2.631492690578284 9.435860551582616 13.338996256998215
K 6.809378600987778 3.0008019564846653 13.330179560010084
K 13.202494806636873 9.18771395453616 13.719927436141424
K 10.731434432821786 13.278001021994692 13.82168461710685
K 2.6379324162396913 4.805299762815169 13.840775522670386
K 6.283089820540969 12.027977700058154 14.548018394935246
K 10.487085279479468 5.586492660876303 14.8352436017681
K 6.168523027216376 7.257494512804741 15.499653201119004
K 9.716192139259084 9.861464376910078 16.73135860324169
