54
Energy = -45.86532291 eV
K 9.97350945645022 3.9349562054255305 16.774226804069915
K 5.60917938402566 8.529997407011237 17.55727337630193
K 9.941505833510702 7.758578854804679 0.9151641941179552
K 8.467406545382007 12.173203484468086 1.4783059878434974
K 6.537326563140013 4.662997156456193 2.0388902108125557
K 13.997476588392527 5.823083924942974 1.7833065356503568
K 2.7841221388727955 7.323646579089029 3.281036356115417
K 3.9945320941071083 11.890145690787886 2.8820289682448745
K 12.992951093272593 10.529393983142313 2.463922381504017
K 10.752104526602956 2.894975986102111 3.2247660367476714
K 6.9901541434937045 0.5913574860401768 4.333574464784161
K 11.729415409358163 14.868635712125386 3.199384145307247
K 6.9674068662531425 8.748495773254398 4.1402060525344355
K 3.308553707160736 3.298497565641255 5.514174833443046
K 7.320069404693377 15.202780583772572 5.051550549979846
K 11.382966050242537 7.214194722910128 5.152316634130657
K 10.039253820154643 11.76083804012182 5.802452114457572
K 15.627095672017948 8.099940399782358 5.8032656025652525
K 7.719725467923446 4.557107340746405 6.310763064912454
K 17.61952181990214 6.216376782892596 6.931596016358104
K 1.1090682553756357 10.677440054143343 6.345822692048812
K 14.393881251860924 3.661686375369219 6.180051358728204
K 2.810124565430222 15.10638607935682 6.21603639848677
K 14.497696706764696 12.564483846155902 6.207581586320964
K 10.655657950599476 0.9444008409438638 7.346325045257269
K 4.102915989093662 7.3407690078094925 7.673090473502676
K 5.468540675526198 11.784998482152314 7.288442341295987
K 8.423127528000173 8.533210287057909 8.36939219640761
K 11.183522654849677 5.085253152899904 9.290592974080486
K 5.798692942436425 15.613544529868102 9.667428683505749
K 15.564092287786195 6.161309877076968 10.024685692928848
K 12.653676836598837 9.586227424021637 9.15260849004602
K 2.826327903226243 15.923961658192729 13.325498407048553
K 5.934584634546167 1.2960017117733782 8.86003886505701
K 17.016313525549556 10.35915945339282 9.596329759552567
K 9.534221323715103 1.8046597346974627 11.860460366209297
K 14.040476414098915 1.805982257479593 10.351578618583993
K 2.058899083049398 12.937948117714749 10.262962758129406
K 2.2860325931973438 4.028971002991265 10.293512669308383
K 5.409386824268397 9.954902810860403 11.489250464068604
K 0.9932199658167686 8.511935985961927 10.751739360019346
K 6.647798430090924 5.348766208730951 10.924185097547474
K 9.218718355962633 12.613850399171787 10.354732229729684
K 9.6544390933441 8.4345678218574 12.609462990781067
K 12.583004478280012 5.042147529860161 13.61743916585719
K 6.540846149620722 13.707597273286526 13.941992479951487
K 14.132525427181365 9.506073196399754 13.322248710929076
K 5.092905476540792 2.0733778763742667 13.366857306493035
K 2.4588546897545944 11.241953417491912 14.490867784826753
K 8.070567232456604 5.073883910541987 15.218271886742468
K 3.6197960183478597 6.585004985498902 14.07849509591947
K 10.645886931506851 12.176028813142922 14.83597827993567
K 6.69473559074639 9.569343397274338 15.972072491571513
K 11.09546391736501 8.10706152199522 16.774226804069915
