54
Energy = -45.73566037 eV
K 6.65615881489045 10.90966863760431 1.235037806049363
K 8.88175649391178 11.387108480381027 5.043393190347506
K 8.389578568036706 6.606417639736212 0.9431086504436346
K 3.769378754523661 7.412628431673526 0.5656095712336856
K 10.037213978247506 2.8107722135584465 3.437377700657414
K 11.270748424261065 10.138955555717686 1.5226059383359223
K 5.555001853519778 14.286190696655018 4.2809441507754995
K 13.156976355298823 5.718338019208727 1.5585321163656431
K 14.592885486134852 8.958808328661197 4.2014620913357374
K 6.733943934409155 0.18059049231482788 5.358243286709796
K 5.76238945247831 7.910523459936898 4.410198461178933
K 13.045958523631464 13.009737196858676 4.996646372851489
K 2.5761999721853974 10.81213443803115 3.3815685169196708
K 5.096354348087175 3.7882296867174734 2.928896791561386
K 7.96844240060159 8.326414420386406 8.230917674995151
K 7.352310295737511 4.233671623564869 6.780657015773232
K 1.5426299525212468 6.368609136087635 4.455887862875987
K 1.5889748806979442 14.079604424364302 6.4803788911957145
K 13.761547503265795 3.877811946275124 5.719949650185502
K 9.501161883287601 15.563560750280717 6.530796972667054
K 10.534592555351379 7.054761257983076 4.814425673889987
K 17.45466921488414 6.070652892265771 5.227697624796251
K 4.730841733775567 11.221920836412426 7.351680790422122
K 3.0723901348267533 2.666426369733919 6.95443606784567
K 16.350633001928188 11.018293185374132 7.673074586664197
K 0.42059827770007785 9.696701115418584 7.510099875815947
K 10.562938342934551 1.1440169932793796 7.778171830684947
K 12.184975901610823 9.821798127252146 8.056185132345302
K 17.45466921488414 5.268823522930579 8.493410326080257
K 3.7160846362313147 6.786269582681243 8.420518124980841
K 11.14780913865207 5.3047878655546405 9.224531134745856
K 5.437360398157239 15.470360812194883 8.619025748159682
K 6.407782469747985 1.11942532325762 9.872365936674772
K 14.356628883933972 2.44208692843714 9.990203264210605
K 8.64126392256418 12.437452301578194 9.555057335631508
K 12.938287183327635 13.985011870111046 9.327125562703419
K 15.423059178800127 6.771590654896819 9.049178597378651
K 2.038979677918152 12.532297081707624 10.74454443772734
K 7.020229767991386 5.2573822402785355 11.257489317703063
K 2.6637625509744205 3.60384524423798 11.400434199160573
K 9.287404648663221 16.41982733226879 11.018248302531466
K 0.9555199344230647 8.001162513446147 11.857741723216472
K 5.488247714099681 9.588222560164967 11.72599038672963
K 10.394993775575058 2.1484186332194573 12.251381164788933
K 10.163524751756679 8.754012035909291 12.073914325882805
K 14.480169607898059 10.152977912705062 11.888826066383091
K 5.92116010857064 13.841184184626984 12.86030153721389
K 13.41228361294685 5.63783363642589 13.106115786579664
K 11.023539459510907 12.868885394851795 13.367090022729805
K 6.175191529471898 2.391039526989826 14.286447635164244
K 4.19576145668226 6.446401351076466 14.55914369340468
K 2.681529152060918 10.903853878802654 14.79197734883032
K 9.332663098433823 5.609036851448378 15.028524490309648
K 12.44920192612437 9.117210822947062 15.736175654638762
