54
Energy = -45.17177329 eV
K 6.176825583090424 9.918065756329094 16.386372888329312
K 7.888169224309294 5.729663865857758 17.01576381561303
K 10.611227326337533 9.538371321660435 0.2828555387079675
K 7.4790470500294575 13.04634142498934 1.6599590381999083
K 3.4686831080614713 6.513078539550985 0.42557168507065357
K 6.389341370633724 3.993823200892725 3.1357299855975254
K 3.2719567115152457 11.148029422769952 1.8914677611412951
K 12.117544741234424 13.347866918506728 2.706383569171631
K 4.483126482069541 15.162878853479544 4.717025762739446
K 6.984973586190206 8.359026431304287 2.249039089462788
K 9.269321826964513 2.9273093779982604 6.509699034775403
K 10.812473989308678 5.861452963498929 3.4500772856213993
K 8.8443211695309 14.479971272228736 5.866290816198353
K 14.05318930754485 9.145224444938316 3.932347682147637
K 4.582421873027995 4.218254886553377 7.589510681501051
K 17.780046989852774 7.794239237880535 3.3138155778533336
K 1.8978460629419533 3.665014358241368 4.042397077353244
K 10.033332214877174 10.306124691341514 4.571902865142453
K 5.889959122716188 11.150161211515751 5.495597950249445
K 1.5214254217599188 11.214100216978174 6.170029171173121
K 5.383478797592755 0.48470091552696143 5.983276744079149
K 3.6836042856457873 7.538938129858509 4.833479959082538
K 12.902902999700004 12.318319207775913 7.069115946881247
K 6.453761771077947 17.210489022792693 8.634384677535966
K 13.979361625644723 4.008795382160286 7.328895498259096
K 7.744877205315454 7.040402834062345 6.525403222570341
K 16.168004212372896 8.724469157080023 7.9480535176215374
K 11.401241522750603 0.0336319318803584 9.191473942470052
K 8.882369753744968 10.605767424156491 8.794407803925889
K 11.966825171948377 7.681346738443484 7.83165297391362
K 4.033167390877351 8.805362962291277 9.276666866733244
K 5.0234110422256775 13.267754528305433 9.080590305638657
K 7.063549940499489 6.257634048382316 10.751951522588941
K 6.942579512272256 1.5691960585641587 10.369320440782898
K 3.1430128695759385 4.399466095872011 11.598578918739452
K 9.849993850521448 14.349751661516203 10.416593905697866
K 10.826887344974978 4.100665871038305 10.548324519164996
K 13.574631186909162 10.954794421116905 11.23247771685781
K 0.6064499637282421 6.4127005570848725 7.6756897827716495
K 14.715976843906464 6.499020958101172 11.377484244745848
K 14.407913771359802 2.1128297366889877 11.987771089064516
K 6.842821199798583 10.525379715273834 12.397522882820207
K 10.595171159853011 8.119440347318356 12.279837682679883
K 2.6985223964744947 11.571574018717307 12.702095882868635
K 10.360926204822164 0.7104622607678482 13.438080249286191
K 4.4632305911227155 7.629372766216541 14.40671959048516
K 7.376203010634871 3.966528355389947 14.325794583719773
K 6.344743732660872 14.75424376876902 13.059356484512348
K 10.204365711417196 12.099645116831942 14.530220283789964
K 11.75817904336115 4.654741329616887 15.01293681564691
K 16.122514987014878 4.93523244810858 15.14041607208795
K 13.526505134539827 8.796293715246438 15.407406037288073
K 5.914331529564157 11.620438174769209 16.38637288832932
K 8.70174968590722 8.02257928446054 16.181839554235157
