54
Energy = -46.08998724 eV
K 12.359807285926625 8.991739910136118 10.136253970134051
K 8.379196017389042 12.77823461926875 4.34907758784446
K 11.999617972889546 10.807130879129867 5.908225503793828
K 4.330017391696569 14.18170928743429 3.317539170232402
K 8.963926219397727 8.554834927759918 12.776296623793735
K 5.233003499188219 12.38748571689669 7.727374633880971
K 12.333844062084108 6.28860227781032 6.889770050760384
K 10.477542220177282 4.773780627374133 11.07354691676354
K 13.518774262437315 7.4569328148452465 2.803494616656702
K 5.147636852107909 10.394776260643072 11.993950173034202
K 8.874989477017621 3.78343375112618 7.057572698374787
K 5.108980840530572 9.643470284370116 4.308033375805138
K 12.26384604182421 3.1935352160745483 3.635929968715585
K 5.843824923474789 6.264879904346911 14.95180510120262
K 2.145716198424292 10.435991552736885 1.3126916853132549
K 6.704236955709649 10.83818082259533 0.2862433255608147
K 7.872496928457998 3.245014507582628 2.5078848470892967
K 3.3609994532196485 8.462541177518524 8.18508928642352
K 13.411426155854466 1.9758922417681508 8.15030765552067
K 13.082864067918687 2.2029231618752734 13.117090210806731
K 9.652263182323695 7.024740628019917 16.864334897394123
K 0.9629434811520264 11.592987900454245 5.599870942151757
K 11.231848665663135 15.331112848611895 6.644276152494457
K 9.002106143132652 7.495066835075753 3.8191993579926917
K 11.14064923679551 11.10512677918645 1.348014065580726
K 16.14339766024713 4.73323142100814 5.573765910964816
K 5.060082124846406 6.643105276796669 1.0254733803857312
K 1.0896380939378874 7.051855354762093 4.373242458963866
K 4.986631977791093 5.085211241696229 5.518488113219825
K 13.852564595360265 13.130220993744803 9.690007544803413
K 9.264294057984587 12.3824588261218 9.698123411525406
K 2.458470257236367 15.655782127194266 7.414466930619628
K 10.036190617052288 0.12176525603339122 10.346443967015583
K 9.695282315898902 16.39729899781282 10.853776072609174
K 5.641994174400674 1.324758154581243 8.95204386854859
K 9.70167132335846 16.98189143090692 5.870463902415323
K 1.6987259472779395 4.355069405559902 8.56452690223983
K 16.027402902180835 8.959890491840454 7.395304284575883
K 1.3183297172059507 11.996969322520615 10.308829131632606
K 8.130558734761681 8.509373284120308 7.998594443478929
K 5.905458675249796 5.552688278507121 10.472432886099115
K 16.20982588429551 8.20567225160811 8.517549727868953
K 6.964355919578795 16.47461964437536 7.033275654995523
K 16.209825884295512 9.73060569031903 11.957719076245256
K 7.59721737326457 2.147068393119314 13.290458482385882
K 12.401265782937605 11.630122691533842 13.790679998487416
K 3.208777429060328 2.907187719247391 12.715013835625733
K 5.157170726496927 15.028308107530394 11.20453776866414
K 15.403674023321278 5.430382813689123 10.394800387979862
K 10.042001311235806 9.226507416354329 16.862012000462403
K 1.774595847247224 7.375730390590135 12.253759676962007
K 8.185838233169964 13.05980817332865 14.165991805517242
K 10.070341517582952 4.762990397668139 15.806540827154492
K 13.45434007731527 7.021782234173448 14.280285450617017
