54
Energy = -42.54652525 eV
K 7.8215777458836335 7.432966781954235 16.71573042768923
K 9.761903617682119 11.664325431784048 0.6425440784575822
K 5.346301471530589 10.936582049554886 1.4542714321280892
K 11.288099471539216 5.4765469168121514 2.283045468214761
K 13.179620075595183 9.632036781760911 3.0225078719903378
K 4.646166425402201 6.5360409218247595 2.9641284358837603
K 7.308820303381411 3.1458740163900627 1.6408974805691687
K 7.89612701271793 13.66488430459438 4.231848221827393
K 12.315110599746946 14.150653134140688 3.6368046132406535
K 3.379491815921843 13.885090440566604 4.333663247814919
K 8.676644259676971 8.980743945666948 3.950017386298715
K 15.434129645414343 5.806253101010921 4.283845693625305
K 1.4737593557457558 9.665283371708897 3.4471964032056706
K 12.364126430359029 2.757039254962861 5.880439989301675
K 11.209943054995273 11.404055865375417 6.870912374871819
K 11.849820748707803 7.075973586108986 6.31732402048801
K 0.9855420247061168 5.478866031180157 5.356056495169576
K 5.06535120763564 10.220143968326715 5.981886007663585
K 4.304934921705833 2.3629712562452676 4.984873219909552
K 8.395687462345723 0.3889535906708139 5.332755817853359
K 15.43440834746802 9.478497041375276 7.067800984271731
K 10.515367424034665 15.89444832903316 7.432134380218052
K 4.5999939201781475 6.042029593073665 7.732752354687647
K 6.01742652234596 16.432630069006397 7.194837898489769
K 8.16289971649735 4.764653595608329 5.627973673206222
K 1.0916653948782675 9.280498197515536 8.03683495950751
K 14.636930491955829 13.991352944482372 7.762725802123518
K 2.0654665279665547 2.604716662305358 8.913170008219112
K 10.345136367330504 4.622327220752396 9.643121221461051
K 6.477725506551054 1.8942052895746337 9.112104844807911
K 14.916230070032329 5.241822168663609 8.830755308959658
K 10.65812675594967 0.23799748385569985 9.384391297245871
K 3.0630442347598725 13.355738243183758 8.959805874639306
K 4.798427647408626 9.588479269371685 10.331315317000067
K 2.047765400023883 6.410640481255206 11.533461055111516
K 12.245625458704108 8.69107554174672 10.402088047148306
K 15.686509214565822 11.23036621706266 11.361320590750763
K 8.231624808321165 16.203569707852292 11.363516073179731
K 7.600207590919504 12.663251453193782 8.89614455911652
K 13.235663484524546 2.766861723843385 12.386591179141309
K 8.65096186235822 9.984970511657632 12.431247908605568
K 11.752120387890415 13.393778264073054 11.161060249654168
K 6.777346657111236 5.904284044063896 11.723848367242804
K 1.2164215544378 10.869553544701063 12.36563496856614
K 4.272870597049558 2.5807493975322777 12.997516747147612
K 8.796531873320037 2.043120046199519 13.126543704463309
K 15.17965922647845 6.906165671469268 13.15144863260459
K 5.260094985070241 13.008974082767168 13.016671849036369
K 4.6124040946641935 8.714614895754645 14.61732853129009
K 12.657874634474515 10.386462610623171 14.654781704290254
K 10.866711107794417 6.119219005961912 14.189505130914137
K 9.403680618580491 13.526098170589945 14.977571768431755
K 8.755060729323562 9.201622001067806 16.71573042768923
K 6.950411920522855 4.985494554328438 16.040523428098197
