54
Energy = -45.75409361 eV
K 7.989973757718987 12.85151716550861 17.40672381933667
K 11.819471823832478 10.432576953892818 16.722951063622833
K 4.074773143074747 13.96743145983968 17.432831966455918
K 13.618575610734394 8.893508536283166 12.997154522590225
K 16.288643984750443 3.4200559136228303 15.606216688729855
K 8.056183139249033 13.272702682407864 21.65360953166998
K 10.272259258183636 9.536044014352253 20.50049260949326
K 9.943176073741792 12.139361424013373 12.929008799828361
K 8.425051613257136 13.612907482226843 8.85397241681218
K 11.830714595296453 12.112009407733535 1.1443066256231138
K 14.373415879504948 7.187034059715346 17.42772512019189
K 6.246254127159826 13.619368401529297 13.352081741752908
K 7.2693085418766525 17.267465778878464 15.920869398718864
K 11.110132802982132 15.667668300689066 15.599552934920826
K 14.455638970772611 13.262052198044572 14.091405465790452
K 17.77439179377407 7.630093836508392 13.750774362881732
K 10.254208269152842 17.64295996138433 8.161488052510707
K 8.965350795853528 16.99423707944802 19.56823249975947
K 14.667733038387283 9.873597848526847 20.802276902533574
K 12.200522657949017 11.035026378450981 8.832953535594816
K 11.0895452034774 16.38117649940652 0.39787431929499023
K 18.826842745600338 7.630093836508392 18.22693656597741
K 16.66498333486936 10.994624227281713 10.420571840309174
K 12.22391373936214 13.647131028141219 19.69190486350751
K 8.613049033228991 16.96314905722577 11.90273263055006
K 11.447926329764028 14.355132038495578 5.374322652704361
K 16.410334978405476 10.571243988092274 17.101194626018334
K 10.663921783498315 19.843020098804818 15.635233005540352
K 15.335564077196876 14.72412896708408 22.332856240847338
K 13.32226654388719 18.081627204080323 19.336296951375367
K 18.561781443589545 11.753627553150052 20.786775806028835
K 12.605266939679215 15.106067854541129 10.423118947700955
K 21.208989484808733 10.815769495858875 18.061540830666253
K 15.516072229134673 13.635026692818485 7.413594705752323
K 21.81311891444857 8.042785351496144 14.845434544870253
K 16.593379879463935 14.907659011038657 17.853315835749758
K 19.155300721446217 12.551204638886956 14.343235035307186
K 21.033105031276023 10.411376954094486 11.135138825178656
K 16.98050716078384 15.46386629824229 11.123827005144395
K 19.83762907538553 12.894733820830854 8.387477266567092
K 14.816165471313775 18.35651395835413 14.870831978125194
K 14.054944378583187 22.79393111480929 13.435801838781588
K 12.361447072266005 19.236534673201152 11.248619293248838
K 14.413724254374468 22.101519290874837 17.815983075147916
K 19.454974739715055 16.055363830615978 21.07448173193989
K 21.201545405321568 15.11547751651572 17.424713932863582
K 0.8265606330535503 12.497286793599281 14.498137311937896
K 14.768899616550275 18.04688939716392 8.042566856320555
K 17.00635780195994 19.69786420112712 11.13034470656253
K 21.21688448757585 15.095369395032446 11.470302262914528
K 17.757273583037904 19.236534673201156 18.567177561516072
K 19.224512490793778 17.333008693631673 8.517085770432587
K 19.253633488666424 17.692342518426 14.481087941355515
K 18.10905219417325 21.9051355938689 15.206513604749125
