54
Energy = -45.5811889 eV
K 10.371198825341231 9.449377590638438 0.7342968912720051
K 5.7445663307409855 9.500662106302986 16.54772408547352
K 9.044181789383629 5.486717124675463 0.8691197528376992
K 2.4566655037689755 8.272365487766221 3.2416206018596365
K 4.991573862828486 5.220633958978704 1.4860275568711034
K 8.422109555756991 12.975834114728647 1.9592667087461964
K 6.996112685478698 1.394291877368968 3.173672049230837
K 13.95208224928231 6.570269500923426 1.894906351353371
K 4.110289674158819 12.411642917644295 3.400230694479724
K 13.371510838004093 11.224524779052288 3.094270073646709
K 6.952965730038698 8.877191153973834 3.931941360387088
K 11.385580282238188 2.882932537070065 3.018387590479778
K 7.2173382798819645 15.237167636177295 5.547016761338922
K 4.192945148560881 7.387540791039561 7.346568195080486
K 7.641669285031622 4.814084044406994 5.536030579317864
K 16.472497607179488 6.468469681042395 6.566331030930412
K 11.629193723092786 15.172873867677362 4.028645377068243
K 3.151474105896524 3.724227498418574 5.014178582752163
K 14.204219340336829 4.150515472911941 6.033200683284267
K 1.2274410031145384 10.837908123183599 6.7783537179456665
K 5.593528339173228 11.56961823318443 7.561709101045376
K 15.473806817961806 8.415216621267454 6.047302405938162
K 10.272509019786357 1.1685676681507111 6.721832860454732
K 11.179415678094745 7.403847845004523 4.910464627354291
K 14.171501706329385 12.795567341178723 7.125885631463387
K 2.9099608254321145 15.052063404162162 6.959726330153522
K 9.908259970067991 11.598524031766457 5.99266242308794
K 5.8127281453049084 1.3717160582941363 7.9622844357247065
K 12.26258464081799 9.2303090091157 9.112784690621973
K 10.79978414036741 5.060609645398567 8.913361563793071
K 16.442337026945545 10.299180436903065 10.129504857676094
K 15.162658565069334 5.946446192103172 10.064072729940799
K 13.540938158709142 1.6600476112936464 9.80324109238694
K 5.919840845546037 15.313716599288252 10.383505112145128
K 8.911032109449197 11.959643462391828 10.628502958484024
K 2.2017553351311743 3.9772036295050457 9.7079574373765
K 13.093948692755127 12.780497203411867 12.023645211271122
K 6.536568740528558 5.033722102525369 10.374690596720562
K 2.444124913628845 12.566066311689891 10.812576086444954
K 9.180003753192473 1.510950804845753 11.349471439119672
K 1.0121922036324846 8.273016156651394 10.602985836458886
K 5.305634162132957 9.212851160508418 11.431264317721384
K 9.466372979238601 7.767226435037038 12.385651553100297
K 9.479629020484355 15.39770977102781 13.370613661758549
K 13.716516854929651 8.617674259920776 13.451137361303875
K 12.220951988783344 4.347732584356383 13.227003665600686
K 4.794576979708394 1.4967445580216479 12.464169971874263
K 5.928916442582272 12.803267442420005 14.133372536471425
K 3.527341182997528 5.70072325455492 13.730112746610152
K 10.110733987436324 11.331050843836564 15.101333075019536
K 7.685483362814436 4.246476437982792 14.693361871028179
K 2.3235184534905833 10.035406580269413 14.578820467536941
K 6.533630863104189 8.606239118974866 15.732733004891333
K 10.778852664664512 7.057445938434145 16.54772408547352
