54
Energy = -45.32632699 eV
K 0.7795953502888872 7.2259009302267865 5.403585841475892
K 12.822810005288432 11.492065267702598 16.865419983985564
K 14.887999749015593 5.24544477911226 7.988830622344259
K 8.583791024329413 4.512462701654543 12.563188869269593
K 1.7987870990827293 0.5677876885071257 1.5778190039705513
K 11.219724480824304 12.722034758282716 3.6179909569706568
K 9.141955577796994 9.288352322984458 5.521236638943838
K 6.386683453841001 1.77075587979159 1.3743357866506285
K 7.939171854034411 6.235605568122153 8.608977042580719
K 3.0300320289221694 9.057067225287874 1.7347745305051783
K 0.5584686488660152 5.515882125475443 9.709372538179506
K 8.723899508015574 17.330619754290893 9.349595027311793
K 11.280949725821863 8.39301276349508 1.8476245873477148
K 2.118971611411077 10.277337041853622 8.578495804345666
K 10.819410701508938 7.7161738443720145 15.235332992950395
K 7.333187340477774 4.035846502250776 4.9734928221911145
K 12.114549002937228 16.0973699045559 6.440390368330413
K 7.1325547000309095 6.6688536551865 1.6052070317641116
K 4.410553300807873 0.4764062885535955 5.190282525946318
K 8.229199482128289 11.742460660774967 15.587020587095285
K 7.1220742330872016 11.32464837274256 2.2776518645529276
K 11.24789737380085 5.669070342488792 5.610766696845163
K 11.88123577893556 8.058197892974112 9.634209444249493
K 6.276980097257103 15.960019778717001 14.048182626266053
K 6.4860531365181275 10.9100646426283 8.404937453026175
K 4.646757423634693 11.642480644911712 12.643950797336572
K 13.02397058094024 4.83305359140167 12.383721668391807
K 13.660376833521534 9.411528742520257 5.755613797309835
K 0.36345783661442577 2.55910719759402 5.499918164777952
K 13.296062798216658 1.8014197671103633 5.09640155419741
K 9.093376814859939 0.23959961363285673 5.007858596213822
K 11.820715167442149 11.653058581891301 12.720019687874574
K 5.03954387998836 8.044223020242699 5.425381837699001
K 3.857444641729017 4.445631610266163 7.485346456047753
K 6.1799870479336025 7.272913193634896 15.102501956927197
K 11.032056696653997 2.8801930448429225 8.901983487907106
K 7.713532375664101 14.559152659178524 5.679078726404654
K 4.476685006793893 7.516082848666573 10.843956193096366
K 12.607386168819446 15.696340634132856 10.83205943104882
K 6.8103671509455115 1.5945351136183574 8.942321122204337
K 10.851709580804078 15.406992917673044 14.938302879865274
K 3.2534706377223417 4.580068402808777 2.7719439354025295
K 8.38096434629316 9.168131595838375 11.866570137854675
K 14.94435807485414 11.929206584496361 9.7366654000905
K 15.181521599140712 13.969710341964795 14.153182901993157
K 10.868989602979685 12.31992294124632 8.199608648799162
K 8.398128679912043 13.700590025598098 11.393915604377222
K 14.657164410961476 5.560923806877527 3.082524281241891
K 2.170303200545204 0.7632445624241082 9.191851972161595
K 4.225471472215561 3.4997900502232167 12.181909800296058
K 10.64696748852576 3.4342949504552562 1.7727587271631846
K 4.757614805385767 14.789015988370377 9.118303157022963
K 14.901414528410855 8.993395963800042 13.48515878346477
K 3.794669039996103 12.422954069078678 5.019471802262805
