55
Energy = -46.73012614 eV
K 14.017659307225406 5.5289443101110916 6.49011192304676
K 15.642400387961123 12.444599886557585 14.600653613234368
K 7.917956557895383 8.39326340570706 15.023579859426382
K 3.4051099043144504 12.137319483588183 14.945871800087652
K 6.844269314030691 7.347999668518397 1.6866899441201255
K 14.764499214711657 9.474960153375473 4.8917887935898
K 16.600533532544123 8.069735800105558 13.089425170020407
K 10.245890781661734 9.82522846261376 1.834422757354807
K 9.153531114126814 14.092601698120761 0.504312067010598
K 7.248192825736704 7.547591129716527 7.253585191625547
K 13.282952209996719 16.356380255711436 7.655889022900993
K 8.324779488520106 0.18840094565760582 15.006997385932488
K 9.958152207806021 15.185634395034134 4.381727140794188
K 7.245092333663013 1.6717844839659008 12.0076397864817
K 3.9549415849448906 7.338243584768927 8.524149354799633
K 14.110467705060156 8.74379403821836 16.91705388575572
K 4.784134638374153 13.626637914110187 10.512069261478684
K 7.958312389047175 6.503651624719623 11.170705863706884
K 11.397082386532292 11.78674789307765 7.108030549435064
K 9.516542123872595 4.397265639540421 5.788953214889768
K 15.950213651341478 12.850205562971285 7.891260160767087
K 4.468423984014332 5.096063654859285 12.352673875222049
K 13.354050334488617 12.929815797310969 0.9257911987640445
K 12.2203041569091 15.606362053731974 14.683441534335719
K 6.858994633905854 17.43099918566698 10.783587755393787
K 4.107644388553665 7.39547476648546 16.06321863618448
K 11.420020398570879 7.441235820737901 8.355004569591612
K 10.656001118271913 3.2293671358650347 9.2499541025383
K 7.242092152321622 14.399937431314113 7.882274763059492
K 4.866882045208852 10.89662787181579 7.646894437145004
K 7.633838983959292 11.229553291047274 4.5455733411193044
K 11.979240188036666 7.347999668518397 13.01880315560974
K 6.348166201886171 10.99392027848497 0.5383559553653454
K 6.673048273128581 3.721818514663768 8.180371285040327
K 4.37639278483002 16.664172058623596 13.805840882868434
K 6.847495638953204 4.423202693684288 15.697839854847915
K 11.092290510106999 11.366893778046606 14.742099734596472
K 14.481121769849652 5.131380256003892 10.674467698802053
K 0.5932398945420816 11.754560727439772 10.885934440097067
K 10.883535514193618 6.273039423704221 17.363613457503003
K 13.388149361094184 11.111119276716064 10.830950384760204
K 14.838057480050361 5.140366810225288 15.334352856427156
K 10.541125147438006 14.646026783139005 10.484753024834957
K 9.484072797462131 0.8367205433164889 7.9718812640072345
K 11.40878511328421 1.3979427057757656 11.536344113269905
K 5.579260823635146 15.443432205621265 0.15940262826220647
K 7.180390296765118 13.299256872762564 13.849710512373981
K 10.980467538710313 3.558669617045949 13.75324277005338
K 15.991846088175036 8.309898262414631 8.491574096708835
K 11.396227322942574 11.394313758389494 1.834422757354807
K 5.157092915769468 9.195582260259103 11.962210016688658
K 14.407021754682765 14.014472695872287 3.8756473320708285
K 10.684150380904669 7.670408357286455 4.163314801321951
K 8.36024832985888 10.601410266183896 10.075343431674634
K 15.137608024107605 15.498235411095834 11.139927679963725
