55
Energy = -47.02447019 eV
K 14.399119795632002 5.543720260489082 5.060504207455223
K 16.380063340278245 12.742350809703083 14.043760156136994
K 8.539555067834067 9.233319301132475 14.237197369705894
K 4.297203513691096 12.241188918439217 14.702967236164925
K 7.812810067951056 7.221019307172882 18.354877036175157
K 15.765769456673976 9.362034245840551 3.5917085537865105
K 16.894740622579512 8.838128986053118 12.140602528798835
K 10.753693971136688 10.037801521197633 18.084514353844675
K 10.079196131846631 14.897933276248935 18.181737631042715
K 8.451557451978667 8.265358209362825 5.887637447742509
K 12.575319846417417 15.782267564005261 7.178338361668366
K 8.929967804735597 18.043281711506104 14.383486343995223
K 10.036747385108567 15.956953303042775 3.240561987196135
K 9.010316052137664 19.33933770842748 9.897641648509394
K 4.717321474406075 6.904257529414437 7.848904833655276
K 14.926981204250781 9.233319301132475 16.178330082732035
K 6.127735046251306 13.672947135534264 10.575058711751497
K 8.37184420989272 7.120109290245073 10.459499658893966
K 11.703333310442305 11.136940744356112 6.481749200573705
K 10.026511431646098 4.4944776972068015 4.336360279913108
K 16.02931955248556 12.987358104565773 6.519998522789895
K 4.6786699136296805 4.891607062429262 11.39474651481781
K 14.042528546847587 12.968687887781726 18.267226776938124
K 12.960285967913554 16.004325081199614 14.638998019892426
K 7.758305312134814 17.968117971335985 10.045232721669683
K 4.618018998582391 7.93628896507205 15.280201753619716
K 11.545285294352647 7.064604423743804 8.05535923249049
K 12.14725614775626 2.1061184635554793 7.608311593390199
K 8.635609785660437 14.643103793209313 7.19773209396327
K 5.7736185907283755 11.038201015909488 7.206580459156399
K 8.70026409720817 11.755623827969025 3.530081017130745
K 12.309350209761924 8.235640816351873 11.926106809011298
K 6.899000167368106 11.320722343375024 18.316372709742343
K 8.17044244346084 3.7607612905382215 8.23426301591846
K 5.00966241061408 16.77799375736232 13.52392631638304
K 7.89488451256962 4.722604516580893 14.369086212730808
K 12.015956478511084 11.69997574022075 14.187617862795731
K 15.127847448369339 4.982939137318908 9.407433172864932
K 18.312750784875075 12.183612183728425 9.97215458166751
K 11.195648101110596 6.475885184946585 15.939966124880932
K 13.735982231634408 11.58504148271015 10.065271417718058
K 14.931458329123432 5.069825005457654 13.951691391491872
K 10.588247510505095 14.812811741033675 10.822237592170001
K 9.697380438413354 19.339337708427482 6.82131082765464
K 11.906771907933681 19.038589717484474 10.525629701429349
K 6.13647525657851 15.797806296193365 17.647168230413307
K 8.499748741862149 13.653331915086646 14.403183363875748
K 11.074054056197811 3.830991849604934 11.46882195685699
K 15.822513230699087 9.021323836794664 7.987790401650309
K 10.384803975165283 12.25426280514106 18.838684102377673
K 4.844657352464158 9.331329813029829 11.113517394612467
K 13.284791831150063 12.958499274773839 2.6894586875725213
K 11.465455513723573 8.75865525333331 2.865646035808422
K 9.092638721030351 10.777581057098189 9.707962456470772
K 15.272758868759057 15.6564724968672 10.492880068008956
