55
Energy = -46.99927262 eV
K 12.985838153612763 12.985838153612763 12.985838153612763
K 12.985838153612763 0.9977743595947988 2.549487234569077
K 12.985838153612763 0.9977743595947988 9.113546880830128
K 12.985838153612763 10.665260755804294 2.549487234569077
K 12.985838153612763 10.665260755804294 9.113546880830128
K 0.9977743595947988 2.549487234569077 12.985838153612763
K 10.665260755804294 2.549487234569077 12.985838153612763
K 0.9977743595947988 9.113546880830128 12.985838153612763
K 10.665260755804294 9.113546880830128 12.985838153612763
K 2.549487234569077 12.985838153612763 0.9977743595947988
K 2.549487234569077 12.985838153612763 10.665260755804294
K 9.113546880830128 12.985838153612763 0.9977743595947988
K 9.113546880830128 12.985838153612763 10.665260755804294
K 6.859797809831815 12.985838153612763 8.343073483654038
K 12.985838153612763 3.319962631745338 6.366616963407721
K 12.985838153612763 3.319962631745338 6.859797809831815
K 12.985838153612763 8.343073483654038 6.366616963407721
K 12.985838153612763 8.343073483654038 6.859797809831815
K 3.319962631745338 6.366616963407721 12.985838153612763
K 8.343073483654038 6.366616963407721 12.985838153612763
K 3.319962631745338 6.859797809831815 12.985838153612763
K 8.343073483654038 6.859797809831815 12.985838153612763
K 6.366616963407721 12.985838153612763 3.319962631745338
K 6.366616963407721 12.985838153612763 8.343073483654038
K 6.859797809831815 12.985838153612763 3.319962631745338
K 12.985838153612763 6.61320738661967 12.985838153612763
K 12.985838153612763 6.61320738661967 12.985838153612763
K 6.61320738661967 12.985838153612763 12.985838153612763
K 6.61320738661967 12.985838153612763 12.985838153612763
K 12.985838153612763 12.985838153612763 6.61320738661967
K 12.985838153612763 12.985838153612763 6.61320738661967
K 1.2100104766035413 8.343073483654038 2.5432735089330953
K 10.453024638795947 8.343073483654038 2.5432735089330953
K 1.2100104766035413 8.343073483654038 9.119761606465996
K 10.453024638795947 8.343073483654038 9.119761606465996
K 4.883340289585021 9.119761606465996 10.453024638795947
K 4.883340289585021 9.119761606465996 1.2100104766035413
K 8.343073483654038 9.119761606465996 10.453024638795947
K 8.343073483654038 9.119761606465996 1.2100104766035413
K 1.2100104766035413 4.883340289585021 9.119761606465996
K 1.2100104766035413 4.883340289585021 2.5432735089330953
K 10.453024638795947 4.883340289585021 9.119761606465996
K 10.453024638795947 4.883340289585021 2.5432735089330953
K 9.119761606465996 1.2100104766035413 8.343073483654038
K 2.5432735089330953 1.2100104766035413 8.343073483654038
K 9.119761606465996 10.453024638795947 8.343073483654038
K 2.5432735089330953 10.453024638795947 8.343073483654038
K 8.343073483654038 2.5432735089330953 1.2100104766035413
K 8.343073483654038 2.5432735089330953 10.453024638795947
K 9.119761606465996 10.453024638795947 4.883340289585021
K 2.5432735089330953 10.453024638795947 4.883340289585021
K 2.5432735089330953 1.2100104766035413 4.883340289585021
K 9.119761606465996 1.2100104766035413 4.883340289585021
K 4.883340289585021 2.5432735089330953 10.453024638795947
K 4.883340289585021 2.5432735089330953 1.2100104766035413
