55
Energy = -45.89683248 eV
K 14.438992403233776 14.666479007966236 14.534320108978354
K 6.988038032622902 7.70010771663987 13.045596884906923
K 14.251838523298408 7.590399044993594 18.639614345645235
K 6.831005112902495 14.618972521474708 17.003587703065218
K 14.63193737865579 12.276481665504807 10.64722445654354
K 14.378570849894109 12.292310124169331 18.5320771652481
K 14.415195860004133 19.323344562856708 14.55565296847611
K 14.647619905936372 17.063706489804993 10.560537033548565
K 17.975439170778557 19.185513114926763 17.42922322816801
K 14.453448509442236 9.897982861309199 14.552029934040467
K 14.664621818498162 7.531931887150947 10.583354646138948
K 10.496111635855568 14.5993853998904 19.7841380393237
K 6.843981704293949 9.929219239607534 17.014855102253307
K 18.427297967237067 14.628840742009821 9.42783504440846
K 6.870621219825393 12.281186083700788 1.0349841241602122
K 14.45098612896287 5.279288383595614 14.598434701219674
K 18.438133363908882 9.934061995533009 9.433090958724256
K 18.20464367251883 9.9579513306507 17.444629430729293
K 10.577763275485637 12.278023784380618 15.699726556191207
K 7.047688740966483 14.597033147717775 9.027489386821681
K 18.025079826873608 5.440755478033494 17.461386888154678
K 10.545495120523725 17.058664855732196 15.802095047963677
K 7.071974973953442 9.9347953307496 9.048574920504613
K 14.201295332885316 17.038228559798288 18.612991340007724
K 10.57602445717853 7.538094252743056 15.836093616789842
K 10.851735014883348 12.266918493343177 7.800910634031473
K 18.190068223884694 14.62499055047928 17.4388740808167
K 18.36269536049233 12.290719558365309 13.4148754380491
K 18.43110939522358 12.275262578911292 5.471550592056409
K 7.237337134230669 12.251832869524849 4.9368295738115755
K 18.281271762356255 16.914546505615352 13.399391575481703
K 10.956470624217568 17.040600677237986 7.761818623406686
K 7.33133652046543 16.84889749347758 5.121995774814231
K 18.297809908494273 7.6937113600648726 13.411394251274654
K 7.208336459718316 19.146312206660337 9.044589874370397
K 7.354484258299589 7.705750258674402 5.156033906949147
K 10.755488313186621 14.648603430091388 11.788139987738717
K 10.98195815773035 7.5444409299561785 7.7903415091513075
K 10.983147578616526 14.562426566944104 3.7579400282681026
K 10.766713441312007 19.30490992144624 11.805618762857879
K 7.258626270668417 5.42556217690694 9.048574920504615
K 10.991509388027477 9.962290440442766 3.768117114812156
K 10.774117817662002 9.901966746163987 11.809225212076413
K 14.703641287972768 14.648504616453282 6.623644780050157
K 14.871905263879322 12.273214707787481 2.642459621542688
K 10.798429341241986 5.2908548648550875 11.847224190518245
K 14.715494517398596 9.903052688305099 6.632471025419801
K 17.971687785999404 12.312514893321813 1.5982182793877788
K 6.83426855470584 12.26582123714658 13.051422701669145
K 10.507366043825916 9.96124813914785 19.791070946647807
K 17.848351319139216 16.88764461303591 1.419357082423722
K 6.958366637519636 16.8781697018004 13.020209564647002
K 14.13812590804081 14.578484671070276 2.6341281604835185
K 17.88969730204946 7.775268381086011 1.442377676887719
K 14.148174502630091 10.016764309647384 2.642459621542688
