55
Energy = -46.67611388 eV
K 4.71029717323815 7.198594910311472 16.51479863713778
K 15.487078524947384 11.432303494889899 9.441453078340203
K 12.110888437078462 5.40961967106869 17.432934028234797
K 8.854615718243153 8.226537859835265 6.602892190096712
K 15.589926366015534 12.005788234329463 13.983548232392979
K 13.703896711053195 12.861050485108239 2.7466146236417877
K 7.89260731260545 8.116652825186327 12.795668478263977
K 4.894543191905585 8.293729617495874 9.250876948065457
K 11.585946839203505 12.476573469450601 7.221657253324938
K 12.131591485603337 9.363464852288802 20.14364477609706
K 8.70655872524671 8.620333858360137 17.481258041456737
K 11.747918140097644 12.806690548816103 11.814526193563752
K 7.676782097948948 15.012114497305419 7.215295882873663
K 4.11542503358547 13.151861343328338 9.953665941937999
K 11.880055768485057 12.440957555057231 16.64451120829682
K 7.767857348808838 15.738740499682208 11.829408217744874
K 13.043947769550813 8.892222998531484 5.148025380487079
K 19.99090874983379 9.616947041235203 8.148025899836458
K 16.23495319831823 7.18625884715485 7.777098014778278
K 11.836060171989734 8.520647524826233 9.909086172640636
K 19.894339941575417 10.740986049645452 12.281997689517947
K 15.760851229284128 7.916450990637155 12.220597052076695
K 11.91746898234894 8.620333858360137 14.41081730058028
K 5.624400487529954 11.26279929186585 5.892143283006744
K 15.480712455420306 8.635311396959406 17.238606966108225
K 11.093253027412043 16.067654287413596 4.4628976433048795
K 4.978926197310436 11.545037029128665 17.62186374512217
K 15.104855508811621 15.308249562568381 6.753486474648387
K 11.383680123215928 16.633187327360925 9.312074746332515
K 8.792998587168121 12.488022101065816 19.975672037468843
K 15.30873730017995 15.853345286511171 11.351857333817591
K 11.610427160646191 16.432897485502124 14.310906178970518
K 11.820697666080157 12.847207455274559 2.7466146236417877
K 8.303656648413773 4.866983005951737 10.039684400629325
K 19.549012814989716 6.1548065618066286 11.066116284191867
K 18.83936704096132 12.025006640969002 16.89635322529657
K 8.245343908022093 4.4610227255561945 15.080600701752664
K 19.35883336855015 7.685746356964752 15.347210054263332
K 15.180310069916274 12.65933085693397 19.789257348368885
K 9.421526195768976 11.792640740507345 3.345231675492153
K 19.020972344455483 14.07390331104198 9.030115327619198
K 4.126827896966415 14.501322564108975 14.270031048943723
K 8.125735406497823 11.381058754418513 9.848594888594222
K 4.386702023435562 5.354639049277349 12.523418381635361
K 7.848083029098125 15.676740951931924 16.809683507164745
K 8.026168072780607 12.059794834888935 14.407305367557095
K 3.6482337912193197 10.045009335412885 13.26233245845506
K 11.83667031864452 15.88942133923821 19.29927040933472
K 15.767501140490573 3.617394091553947 10.457815505312363
K 12.210162650142069 4.749424654345963 7.704571042109646
K 15.630589527356785 15.679445527266472 16.386113506861797
K 15.942358668308792 4.598951848935232 15.010687969255683
K 11.964857490664647 4.489048441338765 12.587622734159778
K 19.20904512104174 15.010479790569802 13.457739170293296
K 17.044310000140964 11.301999731168486 5.296676385931357
