55
Energy = -46.63350216 eV
K 4.403085698209066 9.514453737600302 14.050682833192173
K 15.900667552797199 13.414004514133433 8.745110246623199
K 12.337197075935462 6.628763162853965 16.250262340553164
K 8.10353813640655 9.698903410516722 6.5395988415315776
K 15.972180723585012 13.733505500058303 13.335659204440528
K 11.93785189147136 12.699499452550805 0.5759514521548446
K 8.005847043976333 9.863580555589367 11.455594720264553
K 4.353573718425243 9.435562940111735 9.074126830703186
K 11.939306663975271 13.289455628153952 6.51119007091512
K 12.125761057091387 10.496097972178958 18.773045076408547
K 8.35624985379067 10.133501542079864 16.34439928058161
K 12.079262142323667 13.934893084705024 11.074973191836438
K 8.178375868289804 16.891198563307235 6.021431137898682
K 4.756208473959487 16.841833015672034 8.993331005993738
K 12.157349957055228 13.801614310948533 15.832701488588068
K 8.671285800566762 17.74048916443769 10.962620577615773
K 11.903759748711835 9.688860904909104 4.097058332269963
K 19.26023519683988 12.689960058589442 6.184959652686569
K 15.734216177438661 9.403344925205404 6.538208846350525
K 11.740024086271324 9.760741595557631 9.07766405927223
K 20.135263359192294 13.02973059193378 10.95360959158562
K 15.576910442621392 9.81793555123492 11.204644082033697
K 11.866625473402863 10.03019889063265 13.652700312975401
K 4.780408788368749 13.038450808022464 6.3688827530655425
K 15.788405834426632 10.079856056113957 16.083471469676798
K 11.936880767321588 16.345504414601915 3.45760089708978
K 4.953200458085048 13.406571605325773 16.222906274373518
K 15.926029211008347 16.714549914873523 5.870812740436782
K 12.072210969018398 17.413303624509858 8.183202960062804
K 8.796845394925848 13.817423202813616 18.77934117209624
K 15.761060724828363 17.58407520047461 10.75087824254261
K 12.197526550531478 17.749078138337072 13.571326317252737
K 12.30214305487266 14.112185475149548 0.5759514521548398
K 8.433605244745918 6.050622970230005 9.08684997552955
K 19.44330379558142 9.14164323555541 9.086849975529553
K 19.45631102358691 13.403698112209792 15.859447311411346
K 8.4331633354268 6.237867584681655 14.02370476738725
K 19.43039054361953 9.499388743410918 13.470884174065697
K 15.752634859684928 13.789388454503202 18.57538725200751
K 8.560567868546553 13.047671988246904 3.6504424066353067
K 19.550656977001697 16.666750843078095 8.520308553096317
K 4.874769994478777 17.037128207982917 13.354142027830068
K 8.219513882335008 13.554650626290726 8.972936462092248
K 4.766601202403193 5.86849516743376 11.543055901813881
K 8.416566621465002 17.417968899162577 16.038499662891752
K 8.374915461450767 13.780563940952295 13.53809294158925
K 4.186885442159738 13.063727690095593 11.351254641148131
K 12.278190796134503 17.30413700807279 18.33712247906299
K 16.29032301951914 5.863558074544839 9.295327245201216
K 12.337198382776231 6.043397679378352 6.915652233857835
K 16.160233078108746 17.386019153250164 15.78142849567419
K 16.27796500887607 6.223374107160363 13.7521205309734
K 12.275993467178646 5.800936951759746 11.547596642187573
K 19.605583926497175 17.007668874665296 12.985530943765491
K 15.411656096720309 12.842527486498275 3.6361155368582394
