55
Energy = -44.66747231 eV
K 7.693142501078267 6.237334589688909 4.009608398712121
K 14.11512933710279 4.22641825294057 9.134305898571128
K 9.908292871177643 3.635545898281154 10.239092624278381
K 9.501919695122611 9.674515116109657 7.184325697718417
K 7.191630557480254 13.132853202327007 6.278968381892956
K 10.53634587116997 12.545794223968871 3.74528473439271
K 7.548014579873049 10.117776927639643 2.9324525669051464
K 4.395269274140085 10.423253711642353 13.469069827656051
K 12.325100499363423 8.687245571845061 13.297085881660133
K 12.846676733203507 12.228397663028682 8.056733453102467
K 0.22060027291805429 10.590566267801526 10.994106307915079
K 12.934374806684218 4.47119926266382 13.371710826960536
K 5.617845690730945 8.816255609194592 6.545468450113345
K 7.638921523479962 6.126575494675875 2.860634324743316
K 5.09403601626913 6.61979144419432 14.57071758242378
K 3.9749054084665434 11.006688621392371 9.139459026733984
K 0.23116278471792945 1.1815690270072363 12.131826069566918
K 2.9837290931892415 9.148118987997723 5.66269243274266
K 8.325846920804867 11.838595003459012 10.290624396466669
K 4.791408963092806 14.592966079311715 12.563416962092246
K 6.95555281797648 5.054230126456445 7.605747310005548
K 12.248741656631196 1.9235901263722572 14.87023543492385
K 11.112376653854538 8.041461361923508 3.5721447988377624
K 3.3576792468779266 8.505190568305448 12.8504890692501
K 1.9480586690679094 13.24152520421496 6.420782654809637
K 3.401819030988035 0.16022128268810243 9.546650685773631
K 10.510728728025947 0.459539136418788 6.884463210659042
K 11.930984144322572 12.89178941996687 12.28947690290264
K 8.371395075629449 10.062245909199516 14.025354418218178
K 2.251501551038602 10.614878706929105 1.2382662971126512
K 1.850996197235581 4.785467068528691 12.243396628460316
K 4.816841813111736 7.465459540552145 10.311226787116524
K 9.055431961414637 9.840689044476935 2.9324525669051433
K 6.666668790912551 13.065667763509975 1.105417016116529
K 8.89323565122185 7.572021601433708 10.637778029964398
K 14.736354225589308 6.61979144419432 5.606901696758235
K 4.5687454861559935 11.667823470123496 9.310523459392464
K 14.414056996859044 10.729520779545982 4.320719140417953
K 3.047275828742718 12.99639645377203 13.035866462883721
K 6.007018979133362 3.80238867120567 11.511660377306775
K 0.38074515041707885 6.806408666114512 0.3642507071708844
K 8.77773356155653 4.995833416302106 14.204310322930937
K 11.506666504242139 6.455464232687371 1.8502510187716952
K 14.624766685427772 0.9896519065310314 7.9558101392386895
K 11.30444479991218 1.659883189508418 10.691226390004811
K 7.592128745572239 0.56127129402188 9.431304250181363
K 13.288484715499271 10.109910041826145 2.101558491815551
K 8.28764447713397 0.7233257907850943 13.72942994135252
K 13.924935167677404 15.035415825122442 4.177678026761865
K 10.666394803533096 13.537380384733511 1.4084190542853574
K 10.8972463936273 5.1889021061456955 6.634416775116424
K 2.3778185709630364 6.8287666204304385 8.811204681160552
K 12.985960020510708 7.92775548969026 8.898194331048407
K 14.84638577019785 13.848722043261569 0.45800782344424545
K 5.056913775663537 9.261707377422963 2.4227776253049176
