55
Energy = -46.59308439 eV
K 3.7514755051446285 7.783697794090516 7.260335124347587
K 18.033075769268038 12.264570566256399 9.670801762949738
K 13.626309901185635 7.157448608629983 13.949600327883134
K 8.105303531471924 3.0918995286097197 10.062890890437647
K 14.94312238970615 11.763804573683084 13.601828750193379
K 8.15640309112592 7.400414736301426 17.832132208602637
K 10.933939531197924 10.156809815038256 6.692146848555204
K 10.10934977572766 14.307613923468248 17.972931476427064
K 15.007618074789942 5.143263612944322 9.909837343885163
K 7.64249968156011 8.98127554038226 8.883491056239134
K 7.241941430584658 9.164002507445153 4.520674219394033
K 8.932350017403577 7.169817498568438 12.93929228056144
K 3.6632102113987157 12.216109036494634 14.693061003702717
K 3.475219614285744 10.05940291207509 10.785173085435066
K 5.1885768227153815 7.831016117881801 14.840511080467058
K 11.115155988304117 16.77185584586221 7.710999467971504
K 6.790152805796424 16.541698247324234 7.624475313256366
K 16.774277743333478 12.480826061796568 5.93183734224503
K 8.449033981728554 17.32378489852715 11.112640461002007
K 11.48225282642754 3.345812937337081 12.051400980930516
K 13.503889140056398 13.264501528810843 9.138629246215581
K 11.048709893486773 4.398114454324087 16.3695861150613
K 7.268529556211507 3.8543228438100137 14.53138174023406
K 10.81710471988861 13.97441355477853 13.185105395721799
K 17.35109161608355 8.175359525104325 11.796447394098939
K 15.100459867044385 8.961540685547671 8.414406667044442
K 7.176494729036968 15.176503886018542 15.009217409383355
K 10.873965367226964 10.110497745556284 15.804131852300799
K 11.670090578147535 9.779291064042313 11.102174484794638
K 12.941771944730196 7.783697794090514 18.6627941514168
K 7.101452221067936 11.251778932086031 17.569908153911946
K 7.700905005917362 11.093895564817416 12.926140532485853
K 0.682799141833307 11.468355135159623 13.691289105816265
K 17.156112888947643 15.600863400068018 12.56361312268529
K 16.043965481664717 16.433064863113977 8.359543356350493
K 13.972011384322158 11.914030787851253 18.726667334875618
K 14.023315134926582 15.761243344200212 15.987813561619223
K 13.181664652024995 17.492231980280216 11.453281368179253
K 8.346110458414147 13.549838218322932 4.894704897220854
K 10.876205488086908 6.667065692779243 8.667268988446935
K 10.381545740779059 18.12242920957998 15.126607791850567
K 10.443811946344495 6.773457042366957 4.166674207685979
K 5.12563754352577 6.156507549238114 10.778287423868035
K 16.783280737664253 8.970348865099457 16.540251193694644
K 14.345341789437244 5.767212653373942 5.95005156179762
K 12.822309484270326 13.826942535109078 4.745669716974435
K 10.037901665265663 10.38545382264059 1.7495020612193788
K 10.360606818769782 10.573591621995947 1.7495020612193788
K 8.830520235044022 13.215538956613395 9.050634724793504
K 17.745749509086565 13.593908279687177 16.9404193042405
K 14.247964877941468 9.329633399425461 3.77012104858546
K 5.1714556625579515 14.366900180271141 10.906430425833989
K 7.400326506776387 5.5050069654228215 6.8129214090883545
K 11.15392873799652 2.8011838837502814 7.521626215867236
K 5.02173467601153 12.205131515287128 7.287686706985684
