55
Energy = -46.71262069 eV
K 4.054023755503162 7.661186924032082 13.821116201994677
K 15.613599845790825 11.821124934405358 8.763208801779676
K 11.755866106361 5.441241676540304 16.187408466046907
K 7.875792552367433 8.008097720045587 6.593077186307272
K 15.647137700589287 12.214246850737943 13.182509675926987
K 11.95993129805314 11.718399524361907 1.1083818939242132
K 7.764780391984609 8.046321718557047 11.345112877269512
K 4.002171973674181 7.521589022256185 9.067602033309416
K 11.632812622914855 12.401768933216983 6.596740445248224
K 11.65007419921242 9.394396896588464 18.57479643284137
K 7.929888302879192 8.443264823272607 16.181847967295358
K 11.653166088398345 12.836797389443898 11.002227310984622
K 7.639048463199033 15.407153664816857 6.3711247658700705
K 4.024755359948947 14.949231427476665 9.052181912560814
K 11.741998725857167 12.770778704600698 15.589922401969181
K 8.012421538198968 15.94844881043537 11.014667499889102
K 11.774189549648446 8.648676872950555 4.380837306212633
K 19.30933417330119 10.249397780128314 6.6648705611543155
K 15.547740967319589 7.700087583206776 6.796610972739477
K 11.574667571500424 8.737083430505056 9.085458581282921
K 19.85061325821486 10.949888977360551 11.048877922467794
K 15.483950994894084 8.258361354439883 11.282445438139208
K 11.546794454662836 8.860833416351406 13.544448567236158
K 4.306623149809678 11.225301620449855 6.464696207141169
K 15.391314211500767 8.740258486016764 16.023926211821884
K 11.282228177663722 15.467997132729392 3.642523113277126
K 4.275133218181506 11.49301813526155 16.12224102538829
K 15.272705374431446 15.566653069798805 6.077401598817832
K 11.511066009018855 16.55072483586033 8.415381850196296
K 8.207154544536284 12.462158609204348 18.342873684696933
K 15.596587355066003 16.081517422380056 10.5596909851342
K 11.9447791513541 16.72073290382941 13.204349517004788
K 11.620405318658026 13.141349461076818 1.1083818939242132
K 7.837831468274286 4.200803310091929 9.085458581282921
K 19.24107885640272 6.701427123367259 9.492994345857332
K 19.119025049423595 11.831660140153929 15.777361170120477
K 7.864213648799395 4.4629319771250655 14.026653647636106
K 19.24460916852187 7.684768716340815 13.892785500212241
K 15.277516650237079 12.561748198183858 18.3971966162027
K 8.21545435117336 11.634363381492776 3.8785829116689654
K 19.2076790261097 14.54235410016145 8.21630229353506
K 4.22988655792285 15.15255927293139 13.509020722604786
K 7.794223571760092 11.80331618511641 8.988350656937826
K 4.1708032428069926 3.879039335270068 11.542285684019163
K 8.153226883441729 16.007351229694418 15.617772820085987
K 7.787374975721623 12.009728780973651 13.486472664747584
K 3.394586252828766 11.225924704813261 11.28886245197302
K 12.059345410329904 16.301105155576334 17.941223257102575
K 15.498697474199183 4.045436046402406 9.311577247257489
K 11.638944271025776 4.817095548579779 6.989391027878094
K 15.980197271158305 16.000266110543947 15.381919209001902
K 15.743393127723895 4.688857410865346 13.865917420267929
K 11.629228208847866 4.694837321676627 11.559328008571304
K 19.496512655855348 15.13290555654487 12.644336895094943
K 15.510682657622482 11.456852395212383 4.162687671547052
