55
Energy = -42.66639094 eV
K 4.430291526094224 7.448833895186086 15.513927921547433
K 6.633582396746653 3.9518107411452372 9.100553022614978
K 4.543584775283889 7.4050488502316965 10.550156561102694
K 6.966372172793494 5.0046896203032185 13.561187939421272
K 3.631421151687586 11.247141775096187 12.835671089991648
K 10.666159996709622 4.000878950476921 0.29017725793513416
K 6.613394647872953 7.36838136561377 6.566544648666354
K 10.66471001272156 3.5257839174510064 11.37501837015383
K 8.331896579345802 7.3949733683056555 1.7676559745557536
K 7.164781766369657 9.211300948377541 13.397849961184267
K 6.320300158185615 11.248490157777319 1.35485768207089
K 8.538603600862583 7.173961571978493 10.086371824604766
K 10.66875573927978 4.89509259406803 7.083909299645418
K 4.423690770590596 15.030730960426482 15.442038875138252
K 6.320300158185616 11.242131144044114 8.880919770531808
K 10.670896342320209 7.127635453997341 13.780176518210208
K 4.532679215136256 15.100401873041434 10.513035418499364
K 7.161928471078974 13.254797272972604 13.32840907712607
K 10.678596690099466 7.235111733613057 3.91688036325158
K 14.700611505975106 3.9575051487719555 9.115122588385681
K 8.019184234646913 11.246587943436882 4.6482703061111605
K 14.373686040661863 5.0166576529489255 13.564223786277854
K 12.998324058566837 7.409262135510212 1.7487790256366587
K 10.667336236228286 11.247977556150378 3.861180921411581
K 10.655073587282557 9.20821281297692 7.153005752535157
K 12.767108672980195 7.171465789242395 10.094876292280246
K 10.662382563056218 11.24584939259464 15.617570117014209
K 6.631287597513275 15.109859481906712 6.582214328221662
K 8.326986196011662 15.077606886411468 1.7350813167708965
K 10.671925347273282 11.247067281474376 11.124355388656818
K 6.965661713017856 2.0239069249035984 13.545034017661573
K 8.563118402917597 15.328677520918744 10.062248843958184
K 14.726191457863392 7.4402677775194315 6.648118317369321
K 14.176046507617366 9.23065513814061 13.37378453115118
K 10.696790124426977 13.28658753473468 7.141627949283153
K 6.639137580361612 3.102203761083656 9.109170786560378
K 10.658170251534226 15.360108358186249 13.767567612768579
K 13.30141889017275 11.25167194033174 4.608395654185637
K 1.3526248953188804 7.39071358161275 10.547334603336749
K 15.320646752682237 11.249840400221858 1.4000581301948205
K 1.459731576389532 7.470544242076092 15.496981016050979
K 15.020133443031455 11.26095319348585 8.904617973441699
K 10.669798583150206 15.27493617959645 3.915285099318301
K 12.994263567016073 15.102404214201623 1.7662826439307788
K 14.164148324471455 13.271862591027267 13.412599448535753
K 10.670916070699692 3.026431234901127 0.29868635713678027
K 12.799499560741424 15.31864613120003 10.094213946516627
K 14.734666666393501 15.111556941724388 6.574695622698658
K 10.684392653039675 2.1660266091686995 7.0862151816548815
K 14.373005389383884 2.014769780781501 13.57127127310097
K 2.2455346293310594 11.245835686751093 12.849957644687459
K 1.4662433076987924 15.03148697913848 15.522842428746367
K 10.670338545858554 3.525783917451003 11.387724838810223
K 14.70155391569876 3.0984582484124807 9.12029512692168
K 1.3409726410679113 15.08497873576553 10.552402139008931
