55
Energy = -46.27177076 eV
K 8.011421258724162 7.284379985706732 4.783049273597182
K 14.550691457015958 6.095582804185301 10.882816922888187
K 10.494288191797999 3.9651100907267183 11.458859220375023
K 9.109960080582395 10.327689413559657 8.185617342332762
K 7.775049707858685 14.30633591235474 6.667714796131807
K 11.290150320119062 14.300220256684524 3.4243370315333506
K 7.827851403202841 11.355940531064665 3.344514340805614
K 4.470722646067086 11.906747010630715 14.599634459122596
K 13.319751227798657 9.339619082408912 15.143631431476141
K 11.303039938572761 14.489495985193903 9.609885681677557
K 16.641319414113777 11.748318825956368 13.493235107600356
K 13.19902281243635 5.06197342398479 14.997296997289254
K 5.219810000546301 9.925146249200512 6.820324931670798
K 7.391861587324148 7.127640965071584 2.4025776994636034
K 5.588815991846746 7.680087652479425 15.722353623486747
K 3.0159336914043116 12.572937912934902 10.157929704472199
K 16.160680542924247 17.04901899861353 12.932551402292216
K 0.4244428080290462 12.108404087454751 6.486813547050484
K 8.320900291555258 12.672667498276487 12.420713727776146
K 5.035108047831728 16.128962424985215 13.522203182381423
K 7.421787348819706 6.154894397099655 8.736058252837973
K 13.132584547271671 0.5017068905705784 16.07767258044085
K 11.75814592140146 9.193593314119049 3.716154654431847
K 3.331401152848908 10.081518319758656 13.84585674097247
K 15.73295859228324 13.929056548449402 9.786373125449918
K 1.539440220336124 16.54665175326744 9.048929838813505
K 11.06998628464366 0.03643256997812468 6.776163020393783
K 12.60586031433389 13.919463385343597 13.85975972656726
K 9.06553847968865 10.572801919512363 16.416759422914073
K 0.6557404630970086 10.666043046677387 17.52065923869855
K 17.387254051544996 7.304715005285254 14.218198545654984
K 5.26414104459726 8.958678589318005 11.262968954582506
K 9.307540585890994 11.015543419577325 3.344514340805614
K 7.0553481601889 14.347078378287614 0.0032574811195605967
K 9.551806246004942 7.960457215469613 12.500999703690708
K 15.384250858271242 8.237561715143011 6.647777846047906
K 4.910373713843394 13.251113866998258 9.835832373987756
K 13.153037895672533 12.05449369511303 6.649333419628345
K 2.2515540405508823 14.680634175032827 14.144542415885802
K 6.159694084111376 4.7189965589549745 12.719130277136745
K 15.747324683317261 7.1277141341699535 0.7784487301376974
K 8.89424103020452 5.060778560849734 16.047231834304874
K 11.37052205296368 7.304715005285255 1.3376311371100582
K 15.032623802907006 1.033424112292619 8.72560132349556
K 11.863498851754192 0.8839345420395297 11.642096137456786
K 7.664516165239911 17.060973351127796 10.138607795296469
K 13.931327227300462 11.022532314678047 1.9015144718324049
K 9.079265798200296 16.76096112469671 14.60834317676665
K 15.358380329240873 15.788846158027882 5.554591896064115
K 11.310931636186778 14.338187110847732 0.6435766466229886
K 11.492855504167874 6.7627294502508795 7.7838619299898335
K 0.2677513011790809 9.143229649248726 10.083076644573675
K 13.135527714329214 10.115836533583863 10.560876780709792
K 15.958926755104207 14.631723159161368 17.102309180250973
K 5.223555152936569 10.652959700272959 1.5124872985447315
