6
Energy = -3.57285488 eV
K 8.562845143025783 12.25254550538406 7.2748058572763314
K 11.593400012235449 9.601960344991818 5.257686940450297
K 8.989469329887006 8.131479373213367 8.255852273876284
K 6.256629667157961 6.106374867372979 10.829078727744356
K 9.618047956267556 3.9797063035159077 8.849341125413723
K 5.525539450066742 10.47386516416223 10.079166633879087
