6
Energy = -3.15211977 eV
K 12.937588844619622 8.636991686743151 7.888719930245945
K 12.293546102992922 12.238445133979905 10.460318548784192
K 11.756013140331781 7.866361396325814 12.24299146064485
K 9.05842589010516 9.5688883229283 9.364780314126289
K 5.9692188328209115 8.134769184285943 6.812518767323795
K 5.124037397681371 10.659832077578589 10.316599933023278
