6
Energy = -3.6180869 eV
K 5.8214603571286565 8.105021396470164 7.781242103177757
K 2.2048910477467074 5.6396909290790544 5.301931605920955
K 5.546043499584271 3.704647654605095 7.600643742355351
K 9.09473427810292 5.780106378824118 5.997830530805714
K 4.829885953972231 2.931973448865629 3.3020643379620327
K 5.902482170099708 7.238057498790306 3.415784986412942
