6
Energy = -3.72266511 eV
K 6.877237804526098 10.378199836795378 5.600391107690952
K 10.059872869065552 7.2629241564062665 5.201005887320248
K 7.317266245420683 7.307174434158018 8.645657985012082
K 11.412209722614147 6.153580583697108 9.384132836035569
K 6.3684515312535 11.35117398155954 10.015130245888715
K 9.154037469910474 8.736022650174135 12.34275758084315
