6
Energy = -3.42709327 eV
K 13.08296022760422 6.785125743045282 8.236135685288927
K 8.760675359202331 7.062717528602896 8.139342126258613
K 11.125453386241226 10.487373316076203 9.419843425372829
K 7.134706246259382 11.209072109580008 7.470537604270683
K 5.620645178972749 8.559954438219613 10.914356347209464
K 7.813706596173242 12.008997088915132 11.950576111795044
