6
Energy = -3.63048494 eV
K 7.5624760392665324 5.253414978416476 6.0012421380422865
K 5.253414978416476 1.5281129568329503 6.90992442651292
K 5.253414978416476 3.013145643531278 2.849078370694218
K 2.944353917566417 5.253414978416476 6.0012421380422865
K 5.253414978416476 7.493684313301673 2.849078370694218
K 5.253414978416476 8.978716999999996 6.90992442651292
