6
Energy = -3.63878167 eV
K 7.214448715262998 6.703646180138169 4.097219859939117
K 10.294405705345337 7.549501472779257 6.876591470772405
K 5.980693647676335 8.421244806759868 7.764018060677106
K 13.162349389115324 8.387242881983477 9.894971327699746
K 5.058148940401767 10.311657588986122 11.471367711883701
K 9.149289625020128 9.486043092175136 10.755167591849954
