7
Energy = -4.18081691 eV
K 5.918621423649534 11.683879041876837 12.68427662350454
K 9.908159640611576 10.587193326673157 11.579224592126609
K 13.360358981666323 10.946748231098331 8.94183101235469
K 12.368217315014551 6.8804077549894505 11.345756337007982
K 6.519551508695997 9.831427705758333 8.757215285668755
K 10.402358950726033 7.872374148906602 7.565144008196981
K 7.028417195053312 7.836365373307542 4.8789567773106866
