7
Energy = -4.45072136 eV
K 1.5225843209659475 4.624435690578512 4.0389564391175385
K 4.806284374259733 7.086049808136414 2.6207657410981384
K 4.233495578295464 1.4414653207872428 5.166781952455343
K 7.667632501584421 3.710076890174563 3.793799803755307
K 3.524122847426115 7.428864305669025 6.715505103565005
K 7.882118466794147 7.690601084678854 5.80608190705327
K 6.405028213857714 4.0597732031589375 7.8993774153919025
