7
Energy = -3.9555879 eV
K 11.994691101043053 8.02578969703964 8.388823744286125
K 13.251049328595547 12.017116400626465 8.609781777175728
K 10.423400672306103 4.2157294461375345 7.94990759909334
K 5.59278541347933 12.350751754963808 11.444908651377494
K 9.192080543672645 13.359698834039675 9.56789305849256
K 7.9222119756175475 9.251774199716003 9.516995597290641
K 6.359863532860048 5.402802635426775 9.146620285346929
