7
Energy = -3.68604581 eV
K 7.273881928158386 3.8139652337955736 8.6945013
K 5.079616118496676 7.606023189674802 8.693244632492878
K 2.88535030883497 3.8139652337955736 8.6945013
K 2.88535030883497 6.345267003197781 1.4647309369933526
K 5.079616118496676 5.079616118496676 5.079616118496676
K 7.273881928158386 6.345267003197781 1.4647309369933526
K 5.079616118496676 2.553209047318556 1.4659876045004767
