7
Energy = -4.28006246 eV
K 12.210433157560265 9.835295279204388 10.263472558233374
K 10.501275784872867 5.846087504702272 10.228109295442474
K 12.117851937273555 13.50006676735013 7.9934447673087075
K 8.862145606714973 10.911368184462754 7.28414154114815
K 8.876005391163567 8.868793921313632 12.918973950860977
K 5.642769975541828 9.519675950268773 9.886198274029766
K 7.466196344686473 6.836274605464979 7.066847639945906
