7
Energy = -4.33582227 eV
K 10.484075312047718 11.311086704639214 5.53127874197692
K 10.11478631367583 12.656514125096141 9.761714130683496
K 6.540314417994814 10.126263907216718 7.2407323666885475
K 10.446682338804408 8.2973516501401 8.682402920291594
K 9.736926074776633 9.793993529648617 12.847284592817878
K 6.314081045258444 7.2410837865707744 10.299737437927648
K 10.096275021146488 5.456611741768933 11.952454491993135
