7
Energy = -4.50508133 eV
K 7.175434197139257 11.031807562678752 5.303088812134372
K 6.5218274876334545 6.971994347164469 6.621952124899338
K 10.634695287070413 8.677953127484185 6.4119137488192175
K 7.794566731821989 10.132392354209895 9.555650974749254
K 9.471075939005383 5.977107037919456 9.82983278456516
K 12.000208442848681 9.403880457964538 10.452051715649633
K 5.316994842241178 6.719668040338799 10.740312766942994
