7
Energy = -4.49521316 eV
K 11.079566749184812 5.777563781431899 6.557878934736924
K 11.939854554502565 9.614800851285878 8.473127143174308
K 8.860241051656832 12.811337895182362 8.276628377326707
K 10.243772004780478 10.508936009922206 12.447909682323013
K 9.710763411145463 6.485774824303809 10.697387350713521
K 8.190052223765438 9.103472291975264 6.061838533762616
K 6.59225153676572 9.622553182722308 10.209469337164407
