7
Energy = -4.39923344 eV
K 8.529813235415823 4.096877390270145 6.29484655798224
K 4.201963011890956 5.220732981816242 6.619469046684518
K 9.999625931100606 6.248077938484479 6.971882116291541
K 9.999625931100606 7.407341248238996 8.708543220105208
K 7.319278021348181 8.383410355316808 5.368622171145397
K 14.316878562162431 6.601163245132743 6.493200943000881
K 2.9649715929419114 9.203856133102652 5.369255900056703
