7
Energy = -4.41042556 eV
K 10.357952850551527 5.05864297575202 7.775819657153137
K 12.228588323870708 8.460379460437252 9.590877237643642
K 12.932710662414395 12.048540095953756 11.875293133637328
K 10.17001061278496 12.39325415946644 8.488326658705391
K 9.031928660708337 9.950924622503559 12.492156181972385
K 7.785256997390321 8.492003419602906 8.302826000895541
K 5.959649961603181 12.009830789699931 9.986511374805149
