8
Energy = -5.49183832 eV
K 11.615434985731538 9.49672128391901 6.409975502283336
K 7.1942166865269765 9.825192610640292 5.444460174037607
K 9.11823784182835 5.949900534915358 6.3867677094373825
K 5.041914502445709 7.028992582488711 7.942369862320891
K 8.718846330658858 12.058306891591778 8.844401638896292
K 8.291587780448776 5.178933181550944 10.566658410876387
K 10.920026055792308 8.540795680900981 10.539692826252438
K 6.515149847886801 9.336571265312225 11.281087907215118
