8
Energy = -5.41856092 eV
K 12.055356800960483 11.78671662793442 11.051090231119142
K 12.739789401726954 8.185112945276616 8.819380070151661
K 8.941400830531077 8.378711193004815 11.431830845374106
K 8.127012023393329 12.24359853260701 13.046656490101476
K 9.99900494783156 4.711459627178092 9.506612209797678
K 10.777092953093733 11.583590995419847 6.76059400507591
K 8.2816500372768 7.9056002493635855 6.878678401039664
K 6.857385516938519 11.483287997391109 8.804579157128167
