8
Energy = -5.58750244 eV
K 3.331905791921889 5.611349035257022 8.984636826440298
K 6.906498544838685 7.274762048615583 3.273290634859733
K 5.067202686170616 9.334285170516294 6.592572903994411
K 4.7063695032616115 2.507645864999428 6.237193953460654
K 4.702798419329907 3.6037365928978207 1.8962912066804887
K 2.599519971334645 6.1990132875435355 4.64945197528729
K 7.618813977302882 5.817540874232807 7.627210208512266
K 8.65528022266065 3.2400570510384172 4.32774181172563
