8
Energy = -4.67777531 eV
K 10.707497015171509 13.329630910341077 12.72056745715402
K 9.596779358595532 9.542725324343053 12.079956558081516
K 10.269068260948389 5.640696340406693 10.795813999222316
K 10.543609247127291 12.19230790634807 8.845547217287443
K 6.415086656821936 7.229128606381718 10.797449019808274
K 10.270318510763376 11.102739279000073 4.851188370955368
K 7.428590590434219 9.505696071173938 7.49692846945088
K 11.14828893595508 8.056975945690613 7.573846029235616
