8
Energy = -5.10538114 eV
K 12.053876148555455 5.609221979336533 8.941382986624953
K 13.360666259714463 9.302739146490536 10.394111092606792
K 8.86451459431349 7.1065681116976185 6.1511615121023455
K 8.30967739593797 7.825895878430259 10.462391911970984
K 9.893903872238495 11.052588026063912 7.941930658919708
K 5.494918692526987 9.960749754664722 7.073107890895275
K 10.061647701779297 11.461080084043152 12.424198210216346
K 5.980731537257078 11.86658674560176 10.766860726657118
