8
Energy = -5.33097669 eV
K 8.012119034396937 7.567257316467695 3.836607231551384
K 4.9884643796709405 7.194775475192806 6.826808930833141
K 3.784888506950669 7.87225847412004 2.671997475402693
K 9.121281031753574 7.38740987650647 8.203385217693032
K 4.197795655824236 2.687587182814656 6.756942463754819
K 1.5276173490618319 5.6658901422462025 8.607549858256688
K 8.392405683976174 3.4960062012548447 6.094753346337129
K 5.669649653977975 3.8230366270097695 2.69617677178359
