8
Energy = -5.15230425 eV
K 9.726436717384944 6.420589549916146 9.301498658574872
K 5.260861559291837 5.580915536734293 9.318882871705679
K 11.374526208447094 9.647332926717288 6.5502786735358125
K 7.082833957168143 8.60017349566388 6.547567639084996
K 8.632625277124383 11.881254972561008 9.097744144864668
K 7.082632406188152 8.679574888005202 11.897948829422898
K 13.124327569086828 12.735466454765914 9.129756684894046
K 11.373386195036321 9.711025810375734 11.84842685389954
