9
Energy = -5.93097417 eV
K 11.540235323826193 12.651494678111815 12.254826590311447
K 10.300999772101965 10.746895954824382 8.57003939585586
K 10.428315547084232 12.287352655884677 4.051889277462201
K 11.838746802333345 8.187289573419216 12.223075049257467
K 7.550730276711491 10.67866100799215 12.425123613757512
K 8.816896347924525 8.509465201573896 5.17869458892739
K 10.751628934809911 6.217697326690837 8.557535149437232
K 6.087841747699094 8.901894787150063 8.783207514735782
K 7.81551375781588 6.302132694067632 11.919387075132065
