9
Energy = -3.55428096 eV
K 4.593609529230234 9.397361239816723 7.3613262764667065
K 11.61390750642215 7.787454913268498 6.2180459542030855
K 7.397819269908282 6.763841579628578 5.484161165301454
K 8.707629728680613 10.790269900580487 6.980441097328338
K 9.432424817275903 4.020324624968765 8.081220616307595
K 6.288468009692278 6.226437143155786 9.90115639954939
K 10.304225208390283 7.90483691939466 10.303696768191223
K 10.637085072711834 12.640618759888255 10.512141526616892
K 6.9582618291819776 10.4022858907918 11.091241167529017
