9
Energy = -5.97129995 eV
K 12.006928184766764 9.46016026783241 7.370682826988914
K 11.419417479682448 5.965271179978113 9.91886774010814
K 10.003708116726807 12.785318167583638 5.203250646924536
K 11.882463508023077 10.164433663196021 11.8171589250071
K 8.864356308138161 12.21397184178149 9.597955496948313
K 7.734454136097919 9.02703591614334 12.410844263404858
K 6.100810321360728 11.080051754147135 6.374822429917542
K 7.829516959941498 7.580593320134334 8.137543025230345
K 7.559237241116123 4.6320215506811655 11.626614397834203
