9
Energy = -5.65375851 eV
K 12.318100152539024 11.069743001377551 8.260570526593217
K 9.983980906931183 9.98667276784397 4.733591263448139
K 10.376770266125465 3.646401599157103 10.468056497692924
K 12.355222222398172 13.05442018812997 12.219662825095725
K 11.392245106158043 6.817806192068118 7.523566731074571
K 8.68679347112413 11.363379167638328 10.84252065626954
K 7.693070678163255 6.972599307495776 10.035739000678527
K 6.422393857723509 10.284094778699533 7.089139471414909
K 4.509295890682191 9.79396974848979 11.368995215129921
