9
Energy = -5.89947821 eV
K 5.289118485380464 11.55759044388127 7.228576272867535
K 6.311586330726163 9.754551455665217 3.059314397556901
K 6.684243849693022 8.1210992845565 15.419225353324132
K 6.637178467465587 9.665606075112334 11.046818799745864
K 6.333919880975819 7.390930467852962 6.868235854547117
K 5.996066377572562 5.19600863008072 2.449748096226327
K 7.068965538423208 7.067220164865856 11.046818799745866
K 7.785266824749832 5.161668786688679 10.48813267813628
K 7.085135795245306 3.210823252788508 6.315886366806517
