9
Energy = -5.88025079 eV
K 12.653737480589847 6.027479306524896 8.588250824994766
K 10.82671041292981 10.37045233777602 9.31027557653853
K 12.182529657368864 7.369188638840669 12.916078355631987
K 9.300216100755579 7.878105704702224 6.065281521044798
K 8.566500479445033 10.070146926297868 12.987247025379403
K 8.768629146843026 6.218390719047322 10.442119014684234
K 7.915582993713221 12.225429489865398 5.8538184058546445
K 7.430595933673933 13.617430155533647 10.249852626061438
K 6.2126082680489745 9.702412735122955 8.976433828865778
