9
Energy = -3.61509401 eV
K 4.5732039867522865 7.496778346090442 4.593082936589997
K 1.6923897337857663 4.5732039867522865 2.9649334416171373
K 7.454018239719091 4.5732039867522865 2.9649334416171373
K 4.5732039867522865 6.747048644781767 0.25006529761754753
K 4.5732039867522865 4.5732039867522865 11.012439324112973
K 6.7951222236870565 4.5732039867522865 7.2651163236821255
K 4.5732039867522865 1.6496296274141289 4.593082936589997
K 2.351285749817515 4.5732039867522865 7.2651163236821255
K 4.5732039867522865 2.3993593287228068 0.25006529761754753
