9
Energy = -6.13360768 eV
K 7.87711661898955 9.599018429879033 5.369782628717726
K 10.711912354588897 6.115457197212233 5.413182343468585
K 6.897820179308701 5.788191832162114 7.568881557325919
K 12.337450559974492 10.243140746444453 6.152599797966873
K 5.098420572016216 9.609627517195493 8.744199349331387
K 9.11860102104663 11.758899111307208 9.004451288207383
K 10.628457348231358 7.428534752987173 9.519026181675592
K 4.974692471587951 5.964390180928945 11.475743014510044
K 7.955817914388753 9.093029272015754 12.352422878928895
