9
Energy = -6.0649082 eV
K 6.623999765579198 6.6657410854528925 6.628042676557076
K 11.400763957700068 10.200982557730127 10.51693403470347
K 9.22611822961223 8.623489663009922 3.7079897978592413
K 7.462799537183386 12.08831051902765 11.645544146338887
K 4.612894932878353 9.549835772345427 9.255489810253122
K 8.931818759054627 3.4809896183556535 8.520889350508376
K 11.02659359280132 7.143802180121192 7.404232583293623
K 8.387209225046474 10.682467675200206 7.438599586325901
K 8.10545230503236 7.342031233645092 10.65992831904847
