19
Energy = -23.32871359 eV
Li 7.327230011774857 11.30998177322723 5.963090899821519
Li 9.283538211554648 6.817456295096923 4.605291873560256
Li 6.267696877938439 6.7340955116954495 10.989250427676794
Li 4.281385290809624 7.6064348341881045 8.78655285146179
Li 10.635003784591053 8.530306638226987 8.33894481507663
Li 6.830583023988619 8.679264638702733 9.045391531037218
Li 8.977601525713045 7.1453609766934285 9.967539749268974
Li 8.205527152470838 4.483466525762405 9.755138598433126
Li 9.067045355208178 5.930657965829345 7.39511277931679
Li 8.374545787344868 8.704316047740233 6.517600655956653
Li 8.738328837751242 10.685354626340418 8.434483618088503
Li 6.611575149574728 6.1470146822217675 4.3395335571737546
Li 7.215747030895313 3.7372557299873965 7.0522486283430625
Li 7.144481260226675 8.896020848196438 4.0086062830929405
Li 5.506187192850158 9.22076714605668 6.47504694545322
Li 6.309761113282977 6.484262731590327 6.990175350854041
Li 5.551528134379415 4.87684937832686 9.073287141028633
Li 8.593660317022579 4.119693425142778 4.789174383011858
Li 5.886233495100556 11.29748096233446 8.424646318411128
