19
Energy = -23.85501013 eV
Li 6.340721235370213 8.289099920445297 3.6135754727468354
Li 7.363566438505353 5.696296439724436 3.528386536917997
Li 4.503300999482381 6.238897223884988 3.7748013655842994
Li 5.541262058743407 3.9911188235869717 4.873470841680863
Li 8.63233641753958 7.991791693114878 4.992734080697172
Li 6.045987817078907 9.90541338465427 5.838107881115056
Li 3.8861183171148164 8.358848410972204 5.405407507764875
Li 8.25063545418251 4.573608314476581 5.850783884569296
Li 6.492566812514338 6.687757377513188 6.509253878921517
Li 3.7797524396482642 5.716420487180707 6.622244376762166
Li 8.041822018417157 9.329019640552284 7.606920573621985
Li 5.713512954858898 3.6719890973985603 7.490080005529431
Li 9.553892385796017 6.910322106582086 7.427863923044797
Li 4.925370543616517 8.450206089730033 8.017436889041539
Li 7.916863410133151 4.836806216161572 8.692226227914041
Li 4.9996960418259 5.6918102530467065 9.145888504275069
Li 7.216082691908918 7.422283902323746 9.611745464739506
Li 9.889126008037396 6.314787500067472 10.150220338105122
Li 9.767477328779213 8.783614492136827 9.708943620520682
