11
Energy = -14.06956784 eV
Li 4.063643966303633 9.752692262605262 6.163157927569613
Li 6.170989106706186 7.815346059817235 5.30935462590317
Li 7.0247374649404914 10.277748957738055 6.742922867476171
Li 8.362942689971469 7.570868509926539 7.1974209536339275
Li 3.586491805969676 6.720509318723291 6.275455602606559
Li 8.607811008549763 5.62230545435844 5.15399592282449
Li 5.613505277282705 7.999780223574462 8.026001888434381
Li 6.289202222130362 5.3850683970913575 6.91749834609815
Li 7.735936562043278 5.905852806592534 9.40321862872101
Li 8.510205008342405 3.600923651946023 7.491816875600802
Li 10.460219385148347 5.678767861465612 7.75177043817473
