18
Energy = -24.68316179 eV
Li 10.022830636706475 4.649452640669401 5.564827335496078
Li 11.06473580764954 6.731052808074211 7.494003246063351
Li 8.628407274989025 5.2550254592896986 8.454655574400501
Li 5.6610233145019535 4.64287930226579 8.931802300627039
Li 8.814304619189933 8.218992581129177 8.765019711395837
Li 6.942097717806348 6.941579970652629 10.601465290464176
Li 6.773946738732783 4.721989421866741 5.9075131138786245
Li 10.770491673270962 7.452037218838521 4.580288100555242
Li 6.199598743718955 7.084713660133294 7.661013604196301
Li 3.845012766268745 7.233260724449592 9.221510499672915
Li 8.266119084873354 6.053264676369731 3.506645019491258
Li 8.55995122711731 6.913332778574164 6.122818083874834
Li 5.972529770247189 9.299465256509388 9.331739382197478
Li 8.161675938861055 10.111641106511565 10.824216593893109
Li 5.935821722387973 7.59338625161667 4.930952990801073
Li 4.501494945314811 9.589190955383016 6.998276044491316
Li 7.473486302203722 9.549344550928458 6.598935958464885
Li 6.562733589656155 11.73636836198597 8.403094848961688
