10
Energy = -11.93248807 eV
Li 8.581349200377707 5.631885593356108 5.797148437109309
Li 8.81658844554994 8.274100836087122 4.168998054451606
Li 8.231813237605463 7.989050454571839 7.230633132625635
Li 6.405795992825275 6.282810578064569 4.128314644796854
Li 7.494839819761142 5.269425945374517 8.776604505470509
Li 6.047101427240931 8.638105545681373 5.562513513240459
Li 5.931904712615307 4.691555790218105 6.515798963847464
Li 4.158964613996767 4.697362285944273 8.860054392399915
Li 3.773614412104711 6.397606220957725 5.971489910832792
Li 5.562439575836402 7.13250818765788 7.992855883139228
