14
Energy = -16.6337634 eV
Li 4.911060993340425 6.797534126419271 9.00266532914501
Li 7.799450353845357 6.055214045162708 8.413746954382761
Li 5.707112507560801 3.8823683374967377 8.841050435696785
Li 9.283156774902452 8.478126029914348 6.9222183127754775
Li 6.084874829534733 8.759992111079123 6.966150071447559
Li 3.1776676706421485 7.848675657934303 6.78352826339721
Li 2.82143595148974 4.982647689467576 8.091045364716264
Li 7.513808345330019 6.792856397264368 5.844145886456529
Li 9.956274395072722 5.9520132814628255 5.261910729290857
Li 5.138411622794819 5.636076834392579 6.551627412439563
Li 7.7371020906261005 4.007058314790371 6.3744366796761005
Li 8.254322305065374 8.521226838038586 3.995668134809779
Li 5.247473164890782 7.762208081034492 4.396745214014812
Li 7.3817503951620305 5.537903655799636 3.5689626120085127
