13
Energy = -17.3649662 eV
Li 4.840773634321118 2.732610054510352 4.081464194934748
Li 2.3995194973036624 6.006879277565347 6.993787653174552
Li 6.02697128512003 4.8378985970367605 2.1247494644230693
Li 6.782124151055114 8.15372000862193 8.74132308778322
Li 7.060157872947566 5.291543559661376 7.931405869974424
Li 4.488386475241767 6.031545323715379 9.295739247957725
Li 8.77106587641398 5.994923615524604 3.21418746745283
Li 6.167050432657366 7.339287006320323 3.77763545294192
Li 8.102363893953545 7.286242177897444 6.0147261029433094
Li 6.6740932905862325 4.876081607952791 4.913741213616941
Li 5.191703605924926 6.872570588846908 6.650727805863005
Li 4.535287040826467 4.066002388335659 6.881803852679193
Li 3.9042563506726955 5.45444862005251 4.322461993279918
