13
Energy = -17.00701873 eV
Li 7.044735165647141 8.980378763098376 5.4158403927934025
Li 9.857006770709239 7.579135134282688 6.066603683858054
Li 6.647406565276377 6.157492258955398 6.301080285056205
Li 9.001872103100917 4.880964596357334 7.258496872395178
Li 9.192945065701897 10.600626717291137 6.314180979165478
Li 5.139108193885141 8.3842403421885 7.6228127866253885
Li 7.989190330113468 8.04698005956024 8.010303996229165
Li 7.080327115013425 5.896009535506837 9.457609571584612
Li 10.403399603686353 9.513036923437097 8.648820342724514
Li 10.222493098565572 6.570759430984285 9.191399539236322
Li 7.239387555038597 10.578472235028736 8.67262064505667
Li 5.768533934793131 8.488767426780713 10.391815200477838
Li 8.587146293913992 8.49668837197367 10.821967500242808
