19
Energy = -27.51188323
Li 5.995820518938043 5.995820518938043 7.6292008108267035
Li 4.616987268896159 5.995820518938043 5.3689556633133435
Li 7.374653768979927 5.995820518938043 5.3689556633133435
Li 2.654970397429592 7.635380041559234 4.677519614478278
Li 4.568444810924293 8.459167214279507 6.952159997360265
Li 4.42198637247131 5.995820518938043 2.712734380850491
Li 5.995820518938043 8.222209161665306 4.228121805589416
Li 5.995820518938043 7.666834660790372 9.635757742974404
Li 7.423196226951795 3.5324738235965834 6.952159997360265
Li 8.751849881008406 5.995820518938043 7.940765708093389
Li 9.336670640446496 4.356260996316852 4.677519614478278
Li 3.239791156867682 5.995820518938043 7.940765708093389
Li 5.995820518938043 4.3248063770857135 9.635757742974404
Li 5.995820518938043 3.7694318762107817 4.228121805589416
Li 7.423196226951795 8.459167214279507 6.952159997360265
Li 4.568444810924293 3.5324738235965834 6.952159997360265
Li 2.654970397429592 4.356260996316852 4.677519614478278
Li 9.336670640446496 7.635380041559234 4.677519614478278
Li 7.569654665404777 5.995820518938043 2.712734380850491
