14
Energy = -18.91466431 eV
Li 9.844529870513613 7.763912085412635 5.291058646722985
Li 8.749467977761922 9.671846634582261 7.636877972457035
Li 8.519415632766544 6.772088842020947 7.455458150385384
Li 10.110116234247673 4.672462313027264 6.224186660481878
Li 6.20970834596464 7.950434424131673 8.613448620107173
Li 6.847604162127004 8.511354759085055 5.7757596442667305
Li 7.661147648499323 5.5679769729745265 4.936540883710947
Li 3.7853079700828807 8.306632809033609 6.839832878954984
Li 7.198002827086907 4.255306214525944 7.54722876217174
Li 5.458007206985114 6.197540171012384 6.550071763181456
Li 4.728484394676795 6.721053736692064 4.100618212989251
Li 4.169886273015868 5.293304625902463 8.571918117947313
Li 5.050336752102042 3.7476302760318054 5.506746037283115
Li 2.7131328655920672 5.613604296990044 5.995401810762392
