14
Energy = -16.53988417 eV
Li 3.7392913936786507 4.771325478265218 2.78813763196871
Li 3.753374131327689 7.396720759041783 2.778573609912001
Li 4.194005468546258 4.818713024518003 5.556573088172769
Li 4.208098449530865 7.36600656871657 5.548699597764756
Li 4.816772621593254 4.818216440362091 8.482392391235152
Li 4.831274882875603 7.380459699451654 8.47121821657531
Li 6.329023377488588 4.738215931615161 3.701541038609796
Li 6.342657716632361 7.404959124637987 3.6922438739896553
Li 6.872004768796851 4.745525464878871 6.608713764185688
Li 6.885262935850911 7.4154726572635665 6.5990449916484515
Li 7.5123422470358285 4.766209805882102 9.375430742955647
Li 7.526423417739211 7.405724950151734 9.366295933787978
Li 9.32074168405633 6.0674089135223355 7.457992544712844
Li 8.824516973542083 6.060831250387265 4.728932933220371
