19
Energy = -27.24170625 eV
Li 10.108103950477675 8.398442084140687 6.510786082727499
Li 7.886040188046402 9.176131696112837 4.378249173412191
Li 9.353215241770327 6.314431734908712 4.232964106739076
Li 8.8140341253098 7.513028600740556 9.269303403715886
Li 9.915870868492348 5.299763208332094 7.220132949450415
Li 6.43879608415119 6.647998895226556 3.8624268827754467
Li 7.5379493774482444 9.929632968997433 7.515567416767807
Li 5.369126359077319 8.868955289258148 5.848916312863262
Li 7.785527652570949 7.165243989056244 6.535249198556208
Li 3.274622072200634 7.801999904614034 7.596550659612886
Li 5.932775781432635 7.853777337558056 8.834692274197025
Li 3.5671569785877097 7.018526943935809 4.46830316817237
Li 5.2908227935122065 5.927489032278136 6.589278110165147
Li 7.340245697753076 5.0236243302252594 8.650418928121532
Li 4.9662197738628535 4.125084722948558 4.319524766367784
Li 7.651924256801333 4.2918959706984685 5.591363353892002
Li 4.487081608046744 5.3587594013831605 9.355339746067251
Li 2.9217621190212877 4.807428612202411 6.650266884321807
Li 5.5290821071905825 3.1095793244552192 7.310457415875125
