11
Energy = -13.46454813 eV
Li 8.075352924975526 2.957008871169682 7.808354837389713
Li 5.8235882348683665 4.030643047396902 5.836316057052148
Li 8.371861238762236 5.262532227945209 5.991073248366166
Li 5.904107371719126 6.6022119685185 3.86651180345884
Li 6.283981099178454 5.22826592021731 8.366528881102584
Li 3.8232831874216475 6.539146131869648 6.276255952601473
Li 6.324956454416787 6.986337351629832 6.332899675882539
Li 8.490100470294436 7.0982852425186325 8.241665870095318
Li 4.86423294858798 9.201577359832775 5.159804565874986
Li 7.85614811393207 8.890480025228173 5.633050826819867
Li 5.740616210036782 8.761740107866887 8.045766535549506
