16
Energy = -22.43401806
Li 8.678791614635653 6.1848196832762 5.159738119429957
Li 6.1848196832762 7.507608579425309 6.15670109740356
Li 6.1848196832762 2.5683401265523993 7.472986071248162
Li 8.556016152407377 7.841134583980406 7.558571029029914
Li 7.767322332094685 9.115731426393012 4.721087320268011
Li 3.813623214145024 4.528504782571994 7.558571029029914
Li 6.1848196832762 9.801299239999999 7.472986071248162
Li 3.813623214145024 7.841134583980406 7.558571029029914
Li 4.602317034457716 9.115731426393012 4.721087320268011
Li 6.1848196832762 6.1848196832762 3.6103141897716506
Li 6.1848196832762 4.862030787127092 6.15670109740356
Li 7.767322332094685 3.253907940159389 4.721087320268011
Li 4.602317034457716 3.253907940159389 4.721087320268011
Li 6.1848196832762 6.1848196832762 8.649316769292627
Li 8.556016152407377 4.528504782571994 7.558571029029914
Li 3.6908477519167486 6.1848196832762 5.159738119429957
