10
Energy = -12.74164 eV
Li 7.3949582995794225 3.955854013999044 5.577070568637856
Li 7.911603128239491 6.753423068217503 4.05269469662845
Li 8.236303576595223 4.699206089470353 8.372668481153903
Li 5.0580724052985735 5.789632750128075 4.725072530749052
Li 6.911875880733507 6.531955851341366 6.569247054943035
Li 6.563789863403909 7.002199211487759 9.306559404685908
Li 7.310497457139385 9.16730563791684 7.009973972021806
Li 5.714571110400356 8.683177201843682 4.542268435575901
Li 5.364325492595137 4.671872212083798 7.743733775702718
Li 4.552516364955353 7.763887542451806 7.119224658841725
