12
Energy = -15.48916687 eV
Li 5.353284783924708 5.683950294891068 4.981891924943332
Li 7.407895046484904 3.398085406006819 5.722155994348466
Li 3.650329799079974 8.29560781790836 5.221533272859429
Li 6.700016550158047 8.41783791258899 4.763701848990083
Li 6.301023382324801 4.751851587340639 7.945557413073495
Li 7.947172994295465 6.150215393445015 6.200725958803446
Li 3.387289852669724 5.532137350630361 7.00067856339139
Li 9.438231745189947 4.6449648548469975 8.013421251285857
Li 9.394300478554028 8.487208554581933 6.700854961960317
Li 5.497606504958349 7.434271744375429 7.139291843576484
Li 7.912539823188577 7.183941716354772 8.841313406004472
Li 6.8454234443068955 9.893168879002932 7.277745853095213
