11
Energy = -10.38050414 eV
Li 4.339308981386445 4.8809664087255715 6.823723340760477
Li 6.847045436695957 5.944606522287548 8.150835057737538
Li 9.035077622739411 5.468056080454508 6.384424448090331
Li 6.414931785963227 6.023687449622959 5.356282543499798
Li 4.132309347878639 5.547599396810251 3.9345728194680274
Li 6.526377460984289 8.64668000776282 9.229736917504496
Li 9.34807345895565 7.3832536102631785 9.024694067866747
Li 4.771403868628491 7.768882422320631 6.673698079225154
Li 7.729873886078961 8.189430289009756 6.680230345059423
Li 5.944502289269412 8.270659479123553 3.9619256637046436
Li 6.421734328168701 3.3868168003685377 5.2905151838330715
