13
Energy = -17.40293183 eV
Li 4.137505156201685 7.254822036036167 7.688661157172054
Li 7.120228598735472 8.679228458950533 7.725243464734756
Li 7.120228598735472 8.679228458950533 4.278683033275068
Li 7.356578148878715 3.487703763640813 6.001963249004913
Li 5.423777500511893 2.323659243225949 7.765436018197256
Li 6.5178566990624285 5.244374860289238 3.8299883901568585
Li 5.423777500511893 2.323659243225949 4.238490479812568
Li 4.137505156201685 7.254822036036167 4.315265340837771
Li 4.769021677505737 4.512341935991125 6.001963249004913
Li 6.068598139483412 7.0700063930156745 6.001963249004913
Li 6.5178566990624285 5.244374860289238 8.173938107852967
Li 8.57610746481454 6.309621482195384 6.001963249004913
Li 4.856480897358637 9.641679465216125 6.001963249004913
