12
Energy = -15.73203986 eV
Li 6.141029803535466 6.462965980215084 2.9021486816323705
Li 3.856194726339205 4.734153535657065 4.287438722281866
Li 7.691242321682128 8.079809040916086 5.002545544907904
Li 4.766746820800987 8.81394267538576 4.502630660696671
Li 6.654580561688016 3.8885060428409255 4.742620831360321
Li 4.59310529103013 1.833498877233545 5.318499535541503
Li 6.900805327400011 2.197536417004649 7.132548178278749
Li 5.767042843516124 8.360368089757277 7.368223126773825
Li 5.637332588883586 6.468193936811675 5.503226225671441
Li 3.2066706518415646 6.923756539088028 6.490424354106628
Li 7.523592915734804 5.528357134729765 7.189362243255955
Li 4.7652199203800025 4.21247550319245 7.063895668324934
