15
Energy = -19.70441581 eV
Li 6.336641563977105 6.336702154827092 6.3365807568427375
Li 9.128839756365053 6.034370193253663 6.37655303866134
Li 3.5441012129655984 6.638730010479378 6.296560613310033
Li 7.5227412015954105 8.882093738181254 6.293511657542779
Li 4.744675384091978 9.156602815590457 6.288824211445295
Li 7.9284461324341065 3.5164422245473888 6.384249976726936
Li 5.150519605561242 3.791226291370139 6.379543543946643
Li 5.5451220471187295 7.742443952896878 8.636201370015113
Li 8.321589583275378 7.459288754305804 8.636154411865201
Li 7.146370333477528 4.906013041353024 8.702711535235588
Li 4.351488613001397 5.221739463894849 8.639403807181585
Li 5.526869201916137 7.767042879246111 3.9706460154315573
Li 8.321690904811046 7.4514645638366535 4.0336111328143085
Li 7.127971718957663 4.930651207995239 4.037082835229987
Li 4.351575807628889 5.213831898106315 4.037008099574481
