17
Energy = -23.58454742 eV
Li 5.242358626537721 9.172404084601556 8.712738460968378
Li 3.3856703241385335 6.8149718799198515 9.539174162142292
Li 6.4402846365823025 6.688017744577642 10.008316845366213
Li 7.871240683082993 8.083541841703726 7.518826578492173
Li 5.735979130921228 8.94188873224687 5.746927338200056
Li 2.889649570485814 5.124971834839141 6.9690950113938746
Li 5.027312471457961 4.256289036706759 8.965893908677968
Li 5.29102937100163 6.5917976928098945 7.483648394252468
Li 8.541225628159937 8.998891770759943 4.653330147487082
Li 7.827348021982157 5.064544880492309 7.616231258784131
Li 7.24838594234903 6.48484803101279 5.080703998021657
Li 4.3217230467851975 6.484756519404538 4.686495693873785
Li 9.96035230950238 6.506957830112781 5.688930672995245
Li 5.580286181730038 4.128174616856596 5.824509053556325
Li 8.877341741762333 6.520099994863434 2.7948339478984847
Li 8.550190489605752 4.0700306954007415 4.649612449469328
Li 6.204482501625715 4.932420570965707 2.9130613638571017
