14
Energy = -18.7774619 eV
Li 6.493765747131511 9.591880777838796 4.557793826116288
Li 3.5188957770252567 7.086060857329162 3.640227759698729
Li 6.248874381433632 6.648441260501012 4.008964294303426
Li 7.457364130557906 7.090689836629042 6.6383049781073495
Li 4.816748772769133 8.160320109175867 6.1256439897200865
Li 7.130677049709543 9.732778860306626 7.658633749582876
Li 7.373305422358482 4.442342351964003 5.395699838292613
Li 8.46375193761924 7.139117069299871 9.303131801034503
Li 4.975709483369564 3.934411676911238 3.6248616196170045
Li 9.153524882267067 4.431044438299885 7.8171053443859195
Li 5.545652306981598 7.465348845813697 8.783526140368442
Li 4.742896190776537 5.327959073000117 6.0414889992956
Li 6.505578498042987 4.852006629337343 8.210942646276402
Li 5.900863322742305 2.3960288094739473 6.589814227632444
