11
Energy = -14.32120519
Li 7.0181886187506235 2.2058693906067406 6.07990564102113
Li 6.297262056378082 4.91405798239667 6.993132478274588
Li 4.15631141416438 2.9881468925478547 6.889367609067129
Li 8.250858245248734 7.196957464091994 7.0993580832205065
Li 5.461648144087149 4.171940613757485 4.543513539529506
Li 4.148589123005212 9.013275490257008 5.120745211778391
Li 8.253506973410508 4.8227189040472815 4.911967845701364
Li 6.295103091311264 7.097633059897238 5.020718409836378
Li 5.459872507804461 7.843334764146531 7.4700418445105194
Li 3.7135135269693236 6.00263054577588 6.011698026798242
Li 7.009979671134936 9.80826826474041 5.924384682527051
