15
Energy = -19.7314471 eV
Li 5.6984724975637 4.468131534110613 6.964194526950719
Li 8.73895786078015 4.605206799526946 6.757652908154835
Li 2.652796244384536 4.6104891117048385 6.754079073966038
Li 7.179676699698963 7.149063646970874 6.655571154266351
Li 4.214741041187778 7.152031570968436 6.650781835821322
Li 5.695619170973348 9.74453395055278 6.971497834323861
Li 7.24299145208257 1.9937244920027613 7.073969689258317
Li 4.145495481589608 1.9938910535628973 7.0741813245150365
Li 5.696445032143421 6.28544398555229 4.2855250477834606
Li 8.655575444295039 6.206705750190637 4.125298802917381
Li 2.738784388147185 6.207257190308857 4.119823829750304
Li 7.190307810068465 8.901259728192459 4.42826373571288
Li 4.199270644232235 8.90399039676997 4.425663860304812
Li 7.218961296636236 3.611132077608241 4.580299937861827
Li 4.17545626991241 3.6106905000311915 4.576748226467086
