12
Energy = -15.67342902 eV
Li 6.717322658190726 7.7404755042397815 5.110160454355245
Li 6.958138396882461 4.948791674399506 6.04386529600452
Li 9.294101769150899 3.510468361110045 6.549081928896574
Li 3.6452274768429827 8.113060973840243 5.033963284805919
Li 4.625055034556254 9.455637743360574 7.498974809289924
Li 4.928919956719619 6.609118927965972 7.067961542358812
Li 5.183845805690679 5.5460041477157995 4.016493064333803
Li 7.300595673085379 5.199681079930671 8.725318567657643
Li 7.102544238011945 8.013793818048352 8.037862761746293
Li 9.10684976710418 6.420198956033519 6.458511759009312
Li 8.426796155993703 5.177230079867833 3.7686544902339163
Li 4.842527895893913 7.397463561610721 9.821076869430916
