11
Energy = -12.83223433 eV
Li 9.12822260100565 6.951762285877299 5.683587071472952
Li 7.761270298639277 9.419195948192112 7.764650330937621
Li 7.853656750812061 6.368860525562489 8.381661467621289
Li 6.562723535441143 7.476941842438734 6.211541000410304
Li 8.174269551287244 4.0494783540426385 6.314099261918141
Li 5.141735145067842 7.818749818836755 8.40088998819985
Li 6.405766269666226 5.288175238128211 4.458733329908505
Li 5.85791567660188 2.428095250034494 5.316107459839992
Li 3.9683116585293767 6.966727378430663 5.633665143130451
Li 5.54237704166154 4.869604583753547 7.1406457701838715
Li 5.120288899319702 9.878946202734852 6.210956604408375
