15
Energy = -20.55335887 eV
Li 5.805387910543938 4.1818733975325495 7.027288803033527
Li 10.192612442861181 5.575677868756897 5.7153312740114295
Li 3.5921366704485496 5.710270864005067 8.928285058665379
Li 5.756418757319687 7.507210325685778 10.129795479760121
Li 8.273212769959194 6.472228027618437 8.241596429367252
Li 8.129913829165403 3.5103002649820776 4.7702756435025755
Li 7.493749173243778 5.965013582066837 5.660294106823855
Li 5.59595063543422 6.880706846547425 7.512044874929139
Li 5.637995263482018 4.957509557114691 3.9994238612012416
Li 8.893876149269794 8.253939781550521 5.722273558755073
Li 3.495182887796148 6.120761557379825 6.004056024033363
Li 6.866782787263088 9.220519655929962 7.898738551725319
Li 8.287563203117408 6.418540973668897 3.215775021461784
Li 3.7591110610874274 8.715356168992908 7.763746416767195
Li 5.80495278732814 8.094937456487537 4.995921224282874
