15
Energy = -20.19953539 eV
Li 9.24073752369298 5.53408769120871 6.014411394393688
Li 7.531171794781112 5.447088665051259 3.663741823391428
Li 8.199246286532473 8.122657321033655 4.781181755264197
Li 8.07713442278967 7.7438328953941955 7.849422867801574
Li 7.433992774922375 4.819313271002092 8.168172829106762
Li 6.615850129581854 3.4661825137174476 5.650665273863794
Li 6.631187540536247 6.284013638621206 10.475064335418029
Li 6.272450806408024 6.3642255410473485 6.084277869383783
Li 5.714870408242444 9.251110460005435 5.913703248841482
Li 5.191869016348383 7.679428450825063 8.392638183266351
Li 5.14185763869851 4.092575477702648 2.7662204622452213
Li 4.603674604218063 4.8796730668481345 8.168120354271027
Li 5.0812433212761725 7.185938629400953 3.663191001327183
Li 3.3329107058356877 7.424408039660279 6.199599630129838
Li 4.056058644580417 4.7852082350486365 5.29758188793192
