15
Energy = -19.56532539 eV
Li 8.466665482069402 8.271704919262877 6.087587498728583
Li 5.954734811374996 8.320963024932016 8.417534376292554
Li 8.311981672147178 3.0571029022577085 6.082695633374509
Li 4.413306818078392 5.707329403620059 4.330149149416362
Li 6.03546432878824 3.0449855660208924 3.7086307266514327
Li 3.6002626505150435 3.1331348745214753 5.916413787208142
Li 7.697003707488289 5.6565652242212465 4.446300226714691
Li 3.6051583273936827 8.349492212944476 5.91751598544287
Li 6.124050515952789 8.319717290697088 3.5898731134881112
Li 5.974351592355662 4.325156294639173 5.9991994998056155
Li 6.0654871850536685 10.078894083178513 6.00408058754143
Li 6.0211221426500385 7.357271514460639 6.001434133081852
Li 4.29944572515688 5.708163253987864 7.559864921309723
Li 7.586010243353172 5.655675117532515 7.674466317567455
Li 5.874038326993983 3.042927847094739 8.293337572748213
