15
Energy = -20.34157897 eV
Li 5.695177018277038 7.948220512390136 8.884471108352857
Li 5.352561042646831 8.797037259571642 5.959544688787813
Li 3.895150264612183 6.264133461026701 7.071043240216752
Li 8.097171017809483 9.023477509760147 7.2056200029864845
Li 8.320597756157351 6.510603829252406 9.251057542714616
Li 5.754181986854821 4.975264605788186 9.116815079204382
Li 7.428557251587994 10.776283589734009 5.008397567559567
Li 7.760090798047651 7.857035861616623 4.522972494853157
Li 6.804830931908443 6.3602962131053715 6.827392692047743
Li 2.8443023803823335 4.360609172503221 4.945797037079713
Li 9.644496946398926 6.432024590775323 6.460265606762912
Li 8.273355985364887 4.040016450436506 7.596223389385082
Li 5.35087444016822 3.8165940183732197 6.278957356109928
Li 5.1643229099066 6.239663304344646 4.374278745580871
Li 7.8210796278466805 4.8054899792906065 4.703913806327145
