13
Energy = -12.53230544 eV
Li 4.390548372725492 4.817440735268264 3.4725946841526114
Li 4.559989448841584 4.847468883892402 6.1645406717080595
Li 4.69157032312097 4.826283072106637 8.86652006859513
Li 7.107646279970769 4.816368079031356 3.320174228212068
Li 7.26354533041243 4.8529165543393535 5.991425821331699
Li 7.42642390835789 4.806902998391806 8.75413219182974
Li 4.392386694604088 7.553617111611776 3.4706907738139265
Li 4.561619598200196 7.527181795633661 6.162834893527375
Li 4.693371753006382 7.55208122096755 8.864479450214247
Li 7.1094835405264885 7.550967509598801 3.318146770597685
Li 7.265335612558856 7.517758731150108 5.989511153247258
Li 7.428287416559884 7.567449143172345 8.752017497497382
Li 9.53107903836493 6.1848513549694095 7.294218858289549
