12
Energy = -14.69062564 eV
Li 9.218893476537316 9.009028372763447 7.574504110603739
Li 6.533583871908959 9.35504005476386 7.806245600655341
Li 10.384757819386861 6.786833800105104 6.524854760071487
Li 7.675384582397146 6.301078598862967 7.913171506580182
Li 7.554992323098993 7.810209429674925 5.457978304586105
Li 5.414870986960874 7.494856717837004 9.465056528544089
Li 4.504363384469798 9.450293661268503 5.905333859425317
Li 8.650654141098357 5.023359390750913 5.445687978241805
Li 4.970670470854291 4.809952724115478 8.970385395817727
Li 6.210113316989956 5.533693983536407 4.192431280578324
Li 5.113603276838768 6.754569346367217 6.573821521010944
Li 6.35254824387467 4.034042851371095 6.689761419507127
