12
Energy = -15.79627185 eV
Li 7.836518436346387 5.677131167385652 4.226220701185896
Li 4.931051705386979 4.415478093262268 3.013421459493411
Li 5.350603029796138 7.671305572341958 3.5859644654215987
Li 2.7517312098060076 6.235481569894138 3.8703866522754296
Li 6.454806818408398 3.2890175217128093 5.831513312430991
Li 5.340635798651941 5.684660954481887 5.271314632458583
Li 3.340375333924219 4.176378217950946 5.954830143736139
Li 3.7869142399999225 7.384137152112821 6.4652763369833535
Li 8.542734830278935 5.086691577963081 7.123716111312638
Li 5.829862113942316 5.324938723536005 8.055616024269348
Li 7.091843706946517 7.517299594999729 6.568079545430302
Li 8.100622294630515 6.895179372476569 9.391360133120438
