11
Energy = -13.87600296 eV
Li 3.8042991765471026 5.005753382378689 4.262218838052319
Li 6.611605571918976 5.802126828670222 4.969965504216265
Li 6.457596459323988 5.139857072019798 7.650163684615704
Li 4.757045631665935 7.792155695079822 3.3534974980464916
Li 8.730582391335988 6.823629663054419 6.84082916967563
Li 8.583776723320835 3.7789264936133296 6.387976684073069
Li 5.657997664340582 3.053023969029213 5.736383482334816
Li 6.368018179840339 7.983509894945897 8.157624798407674
Li 4.504118093394511 7.192959579016053 6.094942895648433
Li 6.873138008177106 8.772520896452104 5.365060316787607
Li 3.6505408721918293 4.654255424914177 7.180055773082664
