14
Energy = -18.83125929 eV
Li 3.4112171240079374 2.4964225105920326 7.893125728708219
Li 4.288185274197007 5.148432412396855 7.19106505825029
Li 7.869264086570992 7.323025247109044 4.3998156126771715
Li 5.714223410208029 5.574450908317507 4.5798941465922045
Li 5.916226617404131 2.8967306406782147 6.160348057736676
Li 5.595160996509282 3.128563333554786 3.2523913279176306
Li 5.18758599710543 8.136088824354399 3.2488045579465603
Li 1.4457638124587828 4.96292936872934 7.13356142557414
Li 2.9471659467635396 6.556366894560052 4.921109754473065
Li 5.281857127157856 7.887244455500607 6.14866231970492
Li 7.308404645794732 5.546122614853389 6.8850406355845415
Li 3.2152018085573517 3.58108984905449 5.19733348883381
Li 8.224366839394024 4.215295679293523 4.219724751257373
Li 6.842512652229534 5.7943735993638255 2.0162594731016514
