12
Energy = -15.55954142 eV
Li 4.718993309482951 9.316427663523697 6.592342326565137
Li 4.474247812360004 6.463751636716529 5.095456866786807
Li 4.784237973684302 9.35181833636966 9.59020741132107
Li 5.155637762208356 3.919654588863001 7.009388214846225
Li 5.563069905938287 6.981350905131397 7.958002510678604
Li 7.134497547485396 8.122489157672566 5.188040462722741
Li 8.126756348748348 3.324591448319056 6.505351640541188
Li 6.3064406452931765 3.8755570843118687 4.054643250679357
Li 7.26530541544446 9.249359387551655 7.9396799865885574
Li 6.836279132606479 5.5968777980852815 5.937168456719515
Li 8.627137203729411 6.326890670132161 7.659725525794117
Li 9.008437111502982 5.472271491806739 4.47103351524084
