13
Energy = -17.36125543 eV
Li 10.06176499074176 7.092115760852913 7.684658879816287
Li 8.87340157212488 5.150357315880551 5.588542633587581
Li 9.285437824722282 10.052226530691447 6.929300123224047
Li 7.685069813715817 7.784802582105616 6.170635147164564
Li 7.600081465785442 8.37425598878849 8.771933587942575
Li 7.116165713623802 2.8176305480238364 6.598903576987236
Li 7.455551439171204 5.429589710071786 8.00611546069746
Li 5.9060012737474565 5.341653656745588 5.559259278984281
Li 6.135574916414233 10.14656579039184 6.8734626659239755
Li 5.093835480201653 8.098348930618751 4.803001630502332
Li 5.046019512754395 7.306437634837428 7.5055201122612125
Li 4.621876435381505 4.281788230107767 7.772870496493191
Li 3.0019441675522645 6.029549729775865 5.746750245327765
