17
Energy = -23.57694612 eV
Li 4.902219609966181 7.37552753471633 10.636085679684816
Li 9.08047056030508 6.516851739225522 4.604399210724978
Li 6.620733611365041 9.731755804751995 9.578438073833464
Li 7.936430692459973 7.636109164686879 11.94006146879104
Li 4.641514568088825 8.324926131815548 7.755800970033134
Li 9.959585001628662 5.900106214175579 9.53242966805651
Li 5.357710531614392 5.586978845628426 7.683017929829611
Li 8.260092983853008 5.536424917872683 7.059316033805905
Li 5.883905115098272 10.557293503014828 6.2130126210739105
Li 5.944829068453091 7.352750036518791 5.110134207964079
Li 10.117199210508568 7.797018318549642 7.025467922579108
Li 9.42013906273648 8.803533523758393 9.644963915005038
Li 7.377308348643111 8.361118864224911 7.084269761559794
Li 11.09675086440407 5.036380586299252 6.6266930261428145
Li 7.277264487515679 6.90482955069607 9.3822902283482
Li 8.312792350029591 9.427028465341287 4.7636448984665005
Li 8.753630858841188 10.758840560834761 7.490985603074426
