14
Energy = -18.81125441 eV
Li 4.649650901873128 2.8225148051526032 7.230844736490798
Li 8.258600384940143 5.4777950587266195 8.294954220579957
Li 3.4321288117180506 5.6866512540879 7.413054720708577
Li 8.818061988919037 8.538297616305037 8.393444910721904
Li 5.9270391956709085 5.107102016141065 6.736042206865094
Li 5.4851537109592625 4.815661038252993 9.541935079187073
Li 7.804445124085414 7.192679446142108 6.091594631228119
Li 7.058734726584614 9.73706324097023 6.164139037780376
Li 7.440037521536471 8.26342204352688 3.4815400313708063
Li 9.905958248746343 8.695977514791247 5.4258871509146696
Li 5.951133013133532 7.529825373964775 8.236539097205018
Li 7.085900755506168 5.255751159057746 4.166644934405372
Li 4.101272248575282 4.541514059927668 4.63334364711088
Li 5.103816035815487 7.35767804101753 5.211968263495199
