13
Energy = -16.69753426 eV
Li 5.546785039554858 4.33964571829347 8.773336813232953
Li 7.962242225393714 3.6595454346083454 7.011285051771266
Li 7.786510825149778 6.434890882806803 8.021313949192686
Li 5.389340888150377 4.2218107982559845 5.91647060206553
Li 5.123731113774907 6.804904508094509 7.274897479704144
Li 7.0694552923574685 3.34095141240947 3.8034690630922015
Li 6.349989082973152 8.71052051960652 5.5733367164423715
Li 7.580608238298108 5.996502491410402 5.1315822033375005
Li 6.4551344242709785 5.8431536864098526 2.389850821277256
Li 2.7626701897014736 5.425875424266587 6.280284250030762
Li 3.243283467238869 8.554546155178617 6.029178882250946
Li 4.629055080359821 6.658036626467118 4.41820649209642
Li 4.098721630537645 4.007694009270399 3.3577787675406445
