18
Energy = -25.17965627 eV
Li 7.926724577141807 7.512753139028503 9.444610230722764
Li 5.516672366229642 5.902839356090162 10.257875828509677
Li 5.783928544986203 9.098262532789482 10.506953313694698
Li 8.690553473108062 10.254151040350747 10.514071566570111
Li 6.968633494886379 5.04844518872807 7.765015961051744
Li 5.362886702947856 7.539969119274624 7.937396863701675
Li 7.194064192925656 9.980235081185805 8.001513050912887
Li 10.036824724765811 8.951977632781905 7.95678500826741
Li 9.914397407918624 5.831537108380905 7.853460299288461
Li 7.971819788252267 7.530885329712415 6.465765235123303
Li 7.778342124729255 7.562998768777065 3.667657871501811
Li 5.656759807301084 6.021002245068604 5.302958668195525
Li 8.475780146843887 4.942228425910425 5.224787301997372
Li 5.743295478935465 9.129873611873641 5.386210952084069
Li 8.718261515838895 9.976403862486666 5.312062417078046
Li 10.45022801181801 7.367156368098646 5.292022727336786
Li 4.112772044144402 4.801366484396252 7.578599871872161
Li 5.922930317206208 3.1177896803064025 5.666921731179819
