12
Energy = -12.74613087 eV
Li 5.018808576748344 5.753433778172166 7.310326984537908
Li 6.989813706942367 5.057307972914851 5.662285065619665
Li 4.653384897772177 6.236878189373516 4.516213093344368
Li 7.818673113691097 6.435325837257385 3.8440344861085247
Li 8.499837263564094 7.794182422721702 6.258390612540178
Li 6.539264242989777 8.49474809270984 7.907294074770569
Li 5.703945381280977 7.117879229370924 9.723307695510497
Li 8.875439835997344 7.313559013640583 9.049462958414711
Li 6.0217406026427955 8.066496259711837 5.34660048118695
Li 3.8436205270871855 7.880807640196501 7.188674965650327
Li 9.682182595542649 5.674008832453918 6.375520400455568
Li 7.506247972233188 5.4895634524585075 8.222138132245053
