13
Energy = -14.74924444 eV
Li 4.1006778394783385 4.757706779309785 2.8292478062480413
Li 4.5260062291303145 4.788344026046033 5.569628044872872
Li 4.952925861696922 4.775243630505071 8.51039395977352
Li 6.747650629919576 4.7564382191096986 3.8530038220402125
Li 7.138990674523539 4.7765257339824485 6.732044631518054
Li 7.527787940492269 4.774512056853072 9.524162752497945
Li 4.084094474104912 7.3811135498427465 2.8345131988681924
Li 4.510020194548092 7.346317844474045 5.574681375301772
Li 4.937254867539862 7.352512183245492 8.515519374559249
Li 6.7310188170015754 7.41191594698854 3.8581112313370505
Li 7.122775173159142 7.385442930541458 6.737008507134082
Li 7.512119362807095 7.3820138095633325 9.529280527078438
Li 9.093566395223045 6.096801894184954 4.917292793328473
