18
Energy = -24.79410556 eV
Li 9.943844398874838 5.94499429676093 7.0997167210423875
Li 7.964384494665155 5.703607153453115 9.239511053435836
Li 7.3529048860715465 4.236030532086926 6.66132380962156
Li 8.707401389571924 5.6497509123481136 4.282909371140047
Li 9.470246864320085 8.269871914721172 5.2647814879714145
Li 8.658302513268518 8.541628234980045 8.393182391268466
Li 5.227864894183848 6.322015780019579 9.184451987698285
Li 5.682311717306859 3.491530978151713 9.067040325129035
Li 7.152493396071231 7.0007501819927755 6.634922585897807
Li 5.743769638637901 5.353607767968829 4.244733646301357
Li 7.108566702680434 9.955156135096761 6.011121784253125
Li 5.659520850337813 8.974392735110891 8.352269340086531
Li 2.813219509886999 4.675170880997066 9.392810578550824
Li 9.70055845142742 7.623864653360631 2.259037156006638
Li 2.8775054201229096 7.467978770283948 7.997517699411328
Li 4.419260028065623 5.141546276099898 6.910137302140638
Li 7.073229051974426 7.9513505587212805 3.6543355562168394
Li 4.733420973933404 7.934635645665945 5.652896000514804
