15
Energy = -18.84919954 eV
Li 7.869562228770892 4.63269509477784 3.8635821985443837
Li 4.365343294687422 4.726150110198941 6.115057778586254
Li 7.723976826448408 4.629890867508385 8.578070752798272
Li 5.402100126910225 6.182351506336228 3.733391766344087
Li 7.092719342477424 6.161088493209488 6.199742726107069
Li 5.254273467495302 6.179892933954025 8.557595664931066
Li 7.759016122773067 7.672065853315069 8.580637943785282
Li 4.399350489868361 7.657319524506106 6.118146867835514
Li 7.903650217980739 7.6752486128141 3.865811264670141
Li 5.352924997327287 9.055084211995656 3.812014914199067
Li 6.935234225354643 9.056515925235827 6.196182281086368
Li 5.210032265131887 9.052497099130276 8.479202505695133
Li 5.144287419920777 3.3089341241551096 8.473485817003139
Li 6.8699868886968005 3.269447855661811 6.191021846827714
Li 5.28829406435126 3.3115697653961407 3.8068076497809944
