14
Energy = -18.82032788 eV
Li 5.367672221048105 4.845769777914472 6.2233438165318695
Li 7.789017116809964 4.4738081292119105 7.44146989876206
Li 2.949129327188171 4.029258445068804 7.31302783883712
Li 6.946399727347532 7.225233525670795 6.400184160146858
Li 4.318719588177406 7.1266343293453 7.590841447525146
Li 6.186753052256122 9.87281994110407 7.122383351542779
Li 5.599649227887576 2.251255591097435 7.108969346887827
Li 6.179676463529806 6.069943073418785 3.827899538026291
Li 9.006903327604723 5.962652475414922 4.898114216922636
Li 3.1635413444853304 5.983952661128259 5.039746697203551
Li 7.751548850598059 8.88354131605449 4.333650545912867
Li 4.846710257102426 8.473098650737747 5.006975243698497
Li 7.300560945124869 3.329163444945664 4.833111732871407
Li 4.2500540095102375 3.1292036431994354 4.516616487905407
