11
Energy = -14.24401897 eV
Li 5.123741020607324 8.098390455479866 5.5516285453020355
Li 6.316670083720182 8.638456969557163 2.8668053772867905
Li 4.34789002964606 5.26619213241266 5.332663931653795
Li 6.494350990502304 6.208488867445306 6.938327322596872
Li 4.468240879808617 5.763769936092564 8.456397634133696
Li 6.976697774852999 6.074828892053737 4.271972811273724
Li 7.962972436455101 8.461019371670279 5.512510926100847
Li 7.220500160682689 5.160181857003483 9.587161197076906
Li 7.045087973201843 8.086160197039066 8.586467812697727
Li 6.451917501673697 3.638201286150596 7.063535281441687
Li 9.014557072877851 5.934835155435052 7.202470942141091
