15
Energy = -20.41750733 eV
Li 9.435197187218973 6.018761719890816 8.555519252249502
Li 9.443696798397827 7.279378187898999 5.784613809302504
Li 5.784174370152254 4.316677087349008 4.118483867639511
Li 6.52479644053729 5.0779127224241405 9.031387057251687
Li 7.45090772665456 7.673172407759121 10.334685408060023
Li 9.352381131701843 9.047902432682607 8.29933731653322
Li 8.754007232529789 5.19713650193203 3.533476338618577
Li 6.668811197159995 6.995864662901909 4.627669905127882
Li 7.816048640702598 4.847097133911406 6.287707237471584
Li 6.307720077195241 9.986169651458724 8.611737532700696
Li 4.60591526455508 7.508409341743423 9.030513545911997
Li 7.113006474671886 7.441883728055431 7.617022051838756
Li 4.854606241629123 5.766977388671316 6.585080254493972
Li 3.775002074777028 6.74439476623999 4.048931266453754
Li 4.812720018355046 8.725091073876253 6.243154719771938
