16
Energy = -22.2376839 eV
Li 3.798927433697623 7.746784861159903 5.34133493830456
Li 5.543226170145969 10.444055535744107 5.556723541624635
Li 8.375308769344983 9.517380510333483 6.649129155965754
Li 5.807101533860352 8.269019416294025 7.641073339652464
Li 6.799777773102903 5.102809535688931 8.679603471366006
Li 3.6544409371489275 5.764092532095754 8.187329883593506
Li 8.730798696512693 7.663150547533337 9.315471017424013
Li 9.853140390188424 4.997314565984382 7.962497581942854
Li 5.312927284246398 4.981566093616426 3.749839767951713
Li 6.812423870575646 7.802992381999343 4.744902255866908
Li 8.019030724610865 6.765071358138989 6.996043565839348
Li 7.906479354668479 4.522817103706371 5.575850433172559
Li 2.925506297068407 4.765865087921232 5.48755171344137
Li 5.419612954209508 5.75243851986581 6.250811373341024
Li 5.213388414876678 3.154197600661508 6.670160038378839
Li 10.074041030898437 6.996575984411968 5.4378095572904375
