16
Energy = -22.09669359 eV
Li 5.971245232840552 5.101711623217835 2.216817493128409
Li 3.975211385529058 7.527213814187657 2.859936246154915
Li 3.451644973515019 4.429171976298606 3.5227146465426817
Li 7.013528993736968 7.812699475891805 3.4312399824642434
Li 5.593110137394992 2.260456979378467 3.8185802778326576
Li 5.363134734039789 6.247888585177789 4.825077187365103
Li 7.445004446832481 4.352336032584504 4.624767129701888
Li 4.662609634711659 3.8696808244532055 6.172209839757825
Li 7.14177613866255 4.97856563096238 7.37368460669859
Li 4.816877458579138 8.962923212029052 5.500260999782115
Li 6.804474781593957 2.0767602987332645 6.737918491258478
Li 2.758900938937816 6.602229243628813 5.562352073443605
Li 7.366417431720867 7.6856447044923435 6.491391146076352
Li 5.29172412010816 4.030678725617012 9.163144726504612
Li 6.983594015540547 6.919155511520334 9.558917837066756
Li 4.860779381088992 6.642917166659302 7.641021121053989
