12
Energy = -15.64038382 eV
Li 7.6337406360496685 6.537532943271286 9.134757611491509
Li 5.130453238785232 5.206059874745891 8.139272994018736
Li 6.5926117241741355 6.980924184001215 6.452840007217132
Li 7.532099734769105 4.395355075153297 6.921596274448525
Li 5.337640495972928 2.3200037524127124 7.304519508719032
Li 4.8797456540964195 7.395843799461046 4.081062455436065
Li 4.586667822851908 8.428398462528529 7.057069694979399
Li 5.088715398056757 4.645677547277743 5.290954540891075
Li 7.491821875178022 6.219350880495216 4.05032497517646
Li 7.46324478534576 9.287032288210467 7.982741932613607
Li 9.188712348440843 7.354433060588407 6.634065987282911
Li 7.093040384013483 9.247882229588745 4.969288115459949
