11
Energy = -13.59503197 eV
Li 6.399617436159237 3.799840301634307 5.4939788916316905
Li 8.790956618620076 5.640927902210838 5.2866931293825505
Li 6.467133681816368 6.069612146942266 3.690010215465698
Li 8.833726546886316 7.934204400447146 3.4065108312674934
Li 7.0216064785129255 5.675796159841234 7.728725752783976
Li 7.555470025074625 6.115060540313835 10.633789537151303
Li 6.973501650723097 7.909182042755653 5.7616143577898775
Li 4.627107086761182 6.194048801161972 6.19012133054201
Li 7.294542407621562 8.401627676558682 8.759002917071694
Li 4.960165153871615 6.818984658427459 9.239560412734196
Li 4.690371887452308 9.005745076822782 7.36169346115133
