18
Energy = -25.15348357 eV
Li 9.469707102337177 9.137163483028635 8.16695816414884
Li 10.471269942617749 7.764970522714929 5.543301865009171
Li 8.960438789102582 5.912131585752155 8.132498378079209
Li 7.946715961276899 7.816915313709103 6.343631207748137
Li 8.637872622586633 5.189996490996107 5.227777713828446
Li 6.4914295541598435 9.757245996709132 7.975334984258951
Li 5.2674576207332064 8.282321514932734 5.697139594463474
Li 6.727779280131786 3.6599095908285086 7.038683144868196
Li 6.984794738792101 2.935024594209122 4.045115436716348
Li 5.780009984254251 4.967216372358719 9.796947398972529
Li 8.268900407194415 10.245902647544469 5.3753212564576245
Li 5.871883109867978 5.504552223040258 4.843952776779871
Li 7.1821564400961275 7.697934278741672 9.768740459043697
Li 5.51063404374918 9.865812943325027 10.833131224512636
Li 7.797967581307481 7.67497456528688 3.652461596632472
Li 4.328998233910071 7.765729582454034 8.871535468724986
Li 6.204499064208283 6.309766534504025 7.53041128294364
Li 3.8400290996319146 5.1367147195727645 7.098361505589331
