13
Energy = -17.18031445 eV
Li 6.822980893331234 7.476177581726645 7.952903132359085
Li 7.053102705869301 9.526810548586047 6.134623574340598
Li 9.483108045199536 7.415974699929588 6.624618105796556
Li 4.026012629335369 8.512957510247873 8.489023012379128
Li 7.482445841155742 4.820724390188311 6.713225082282469
Li 4.711532211883683 5.677523136657943 7.773267178603677
Li 2.327358694198217 6.000306242434766 6.3851859513923745
Li 4.6932933481191474 7.792428084723041 5.889233350539903
Li 4.939285380209932 3.0410192359877977 6.500201674754353
Li 7.390523607872762 6.749151951687489 4.800264064746049
Li 9.805308226620824 4.967142323120363 4.818473740967804
Li 4.810151128383371 5.220092785483686 4.831971868694258
Li 7.174127163239585 3.538651852083143 4.181636302027393
