10
Energy = -12.84725537
Li 4.283946917611287 7.729360409554226 7.759475234488877
Li 7.729360409554226 7.729360409554226 4.2538320926766335
Li 5.059011390585201 6.954295936580316 4.8780059419251955
Li 6.006653663582758 6.006653663582758 2.2136092471655138
Li 5.059011390585201 5.059011390585201 7.135301385240319
Li 6.954295936580316 6.954295936580316 7.135301385240319
Li 6.954295936580316 5.059011390585201 4.8780059419251955
Li 4.283946917611287 4.283946917611287 4.2538320926766335
Li 7.729360409554226 4.283946917611287 7.759475234488877
Li 6.006653663582758 6.006653663582758 9.79969808
