11
Energy = -13.91627973 eV
Li 9.335881959502816 8.53268072154115 7.1531474161278314
Li 9.091304549447777 6.228411294780628 4.85919395509168
Li 8.105564566657135 6.038767348509514 7.626251616146506
Li 7.284986933279914 8.022142354315202 9.378274960704637
Li 6.607522940170134 6.327715571793441 3.1033729368905143
Li 6.9303273833493835 7.931190854988618 5.575728343720404
Li 5.8343667312975525 4.966467451081592 9.115761342355968
Li 6.174727263669702 5.112462676690367 5.788114706909942
Li 5.131657960108307 7.2009901493251505 7.60527167013548
Li 4.119300604189521 6.915601141628823 4.79785039017838
Li 3.530364150407446 4.872364044486861 7.1023950357381045
