12
Energy = -15.4810431 eV
Li 3.9411042949967676 8.056544366264378 1.841503454233769
Li 4.437032865048257 5.204035245227976 2.296515933904201
Li 6.739606972233638 6.949827969731696 2.7018288533350927
Li 4.532250349684318 6.987701527837631 4.530190869186518
Li 3.2238845061038384 4.352698799661655 4.978443120012943
Li 6.3304744993766455 4.547872843096839 4.519356319045396
Li 7.5846986032072605 4.422085913465948 7.4406101100930355
Li 5.430501807028453 2.570898648879035 6.611228092908121
Li 7.20509247478675 6.99666428686419 5.888458903719597
Li 5.030206421458587 5.35917246514717 6.973379622443123
Li 5.324594450503638 3.939891803777043 9.407057412506722
Li 6.385084842262744 6.777138216737322 8.975959395302644
