16
Energy = -18.33379231 eV
Li 8.437945109777953 4.130930398408259 7.448408561993628
Li 9.970749750151041 5.926335035026001 8.920889240300248
Li 5.762517501123088 4.482772410889248 6.828025743911142
Li 7.153047988583692 6.3623568595729605 8.511514735708534
Li 4.7462568812214965 8.513671133565653 10.307173514069358
Li 9.113784020460612 5.463352015144047 5.243095453528722
Li 10.488832859082294 7.162110003110215 6.6680223996532035
Li 4.405390775128639 6.229530878138338 8.884409853114247
Li 7.406893065745722 8.349699440628806 10.393392574642622
Li 6.605808634269664 7.093230392714483 5.9140885912298495
Li 7.832925869550302 6.892731490793865 3.266963398078635
Li 7.447361864477571 9.097937999039427 7.747341401564849
Li 4.831616394550441 9.801088220498654 7.999181916437536
Li 9.737833183110103 9.708919846112746 6.338277951794286
Li 4.0646477804225665 7.6394837961863775 6.6704655024024015
Li 7.827191346155465 9.229639194066005 4.473834182734625
