17
Energy = -23.93015778 eV
Li 6.032135674287518 6.622471897438472 3.5417384814290753
Li 5.801294940141834 3.716649591440714 4.514434682497685
Li 8.57597613080869 4.892555820601116 3.756899348639137
Li 8.601060358038602 7.885365687596991 4.622091922161715
Li 3.5351920450579755 8.321709488546388 4.120245199798515
Li 4.215280811557271 5.972274085703556 5.805527884586368
Li 5.89652121608171 8.46282261585802 5.891337561098447
Li 8.229839900490639 7.959824147407252 7.669911662258489
Li 7.25647209583882 5.721850084982052 6.046028530556233
Li 3.358495308557486 8.315807134458614 7.276230643947346
Li 10.000849893626347 5.77018938060566 6.420343879653504
Li 8.246290711556227 3.155359748398445 6.361592259402519
Li 2.950083628644009 5.39841518739155 8.422580368697114
Li 5.8733219441096844 9.710592078170357 8.589278659480808
Li 5.510429890674762 3.92276540357257 7.554970896775597
Li 8.071407192642015 5.111744334452655 8.774736232515272
Li 5.568802890153727 6.783057945642653 8.355506418769632
