11
Energy = -13.77571017 eV
Li 8.083249242366247 6.523075435637456 6.882319149505462
Li 7.008458812127846 7.493237111559019 4.177366114405209
Li 8.548364948060529 9.311639052782525 6.294657605533849
Li 6.670475897858375 4.751818859155371 5.454357103933371
Li 7.242761077215462 3.9649732375076843 8.366581848283653
Li 7.25172084942342 7.4981544714222705 9.319350641127652
Li 5.300168785149708 5.852416794032894 7.883824553341591
Li 5.277883714182496 5.11329889509299 2.949898133852051
Li 4.272650974005407 3.6554598436683086 6.232449330014516
Li 4.340927340345033 6.549370167913273 5.203260287673962
Li 5.887125096944878 8.479399288019124 6.761255742286825
