19
Energy = -26.77841049 eV
Li 1.9628544214185353 6.072614274090259 7.520675784279617
Li 7.085838404139293 5.062313864803667 6.622538764515196
Li 7.567558853374888 5.1606808102920825 9.585272407573733
Li 10.01505689174162 6.995575492176783 10.17890057362231
Li 11.170792978423126 7.8378870887730665 7.26221490765655
Li 3.7338776783857734 8.523270004923683 7.931833725020927
Li 4.793851957068379 5.804137721142607 8.599771994085764
Li 9.396339671474138 6.166958451181826 5.196421535135254
Li 8.660210599857875 7.090667174840999 7.859804842441063
Li 6.679691089266245 8.001989141562298 9.8606027517479
Li 6.887052054956245 7.153376192284456 4.398259371606735
Li 6.232937330099656 7.843605768698639 7.095812012259423
Li 8.432164294324522 9.255232897633013 5.902787447541934
Li 6.254470327065143 10.44262659467186 7.952633282192215
Li 5.152909798392764 9.521332452184815 5.215049725424806
Li 10.095154475328032 4.763147510967212 7.79950159101405
Li 7.146348007808289 4.289422760568983 3.8602473480807724
Li 9.117914051981277 9.615667598198398 8.853880458227067
Li 4.379816401000045 6.240722518734006 5.619298782143872
