18
Energy = -22.35412592 eV
Li 8.879514490867596 11.595511248616214 5.415081620780966
Li 8.44274588526855 5.67608262383173 10.117961632561713
Li 6.438592234672273 4.2206664945528765 4.75144334074881
Li 6.991246784164329 7.511698729709383 11.76992335786928
Li 6.843201446963115 9.061528813473421 9.369742209566978
Li 8.920475669357268 7.475067271497105 7.9718574903966015
Li 7.316659336091108 4.928237088330891 7.435505371493768
Li 6.645018338635363 10.633302660410449 6.89722925541449
Li 9.124367322454637 10.287980088488649 7.978672776554977
Li 9.32091317817118 8.447696925160313 10.606918615349826
Li 8.25432382498754 6.471692804888166 5.208869586181872
Li 7.4297589767884515 9.235755278175448 4.620749862685427
Li 5.818935397379959 6.402242536445845 9.394103021569624
Li 9.903734619933019 8.914666064251655 5.671389348799882
Li 5.573508588781269 6.808988833129931 4.181820739026913
Li 6.2262546357503235 7.745094898636871 6.7966629033359265
Li 4.650292386868941 5.379312663682073 6.594854552627013
Li 5.911041435803127 2.6639927694982135 6.989302039919762
