11
Energy = -12.90630102 eV
Li 8.80224020828584 6.607052970220469 7.389021151877463
Li 8.81254086512413 5.588381190326207 4.2702589407013125
Li 7.673305759797113 8.389655969690768 5.508381150261456
Li 7.120346130904252 4.517959723222079 6.340570876629426
Li 6.963657600944683 9.04296424003802 8.61384769825234
Li 6.0144761834912295 6.275780893094984 4.505074332253842
Li 6.174491789502077 6.270898465220224 8.524337358401809
Li 4.113179873409431 8.124682913811144 9.46129603146961
Li 4.2479694807208155 5.156337433534826 6.573316872783247
Li 5.053129684591553 8.016274935804041 6.686743167406194
Li 6.549048529588462 3.53439737139629 3.6515385263227484
