10
Energy = -12.53685179 eV
Li 7.103205522391472 10.221470910852348 6.880619619937412
Li 8.56687359658654 8.893171610693127 4.392339650365357
Li 5.98490256395168 8.048222515246088 5.350485286508523
Li 8.099403606337681 7.526907688785403 6.873263362796399
Li 5.4682167227700935 7.458641923115165 8.245818703441545
Li 4.912612858835072 5.469677072519724 6.11774108558465
Li 4.448099051993032 4.1333963765397 8.625097024686582
Li 7.0226693247559275 4.961520183247176 7.646868988567237
Li 7.525325076178257 5.548959998449023 4.7394841065138005
Li 5.891659190888814 2.76099923524126 6.151249686286922
