18
Energy = -24.10187547 eV
Li 4.815098977915168 6.509480401876305 2.7813542000157936
Li 6.597433981248548 4.606205811483824 2.9728974385098588
Li 8.396401626373816 2.7476410834962604 3.5881907448161736
Li 3.9536413766731084 4.110982413976222 4.499449051560285
Li 7.3152294913083455 7.414564847520255 4.002408479335163
Li 2.8525226881835515 6.769996912797777 4.830149291397344
Li 4.812424839354756 8.710875561690276 4.305385750086008
Li 6.34844235729105 2.8061816185781865 5.146556132258898
Li 8.475394447509819 4.882512418632516 5.207422672142188
Li 6.609615922831205 8.859368044577877 6.39422109164514
Li 5.5829262031421045 6.099006622409181 5.83183963990932
Li 3.6930712406044974 8.51593027577996 6.8261234765433745
Li 7.495576305813326 3.6660599464534607 7.553974440328874
Li 3.370672437256261 5.732372104377214 7.525269231675482
Li 4.646214924508297 3.227600806410501 7.1723529738831076
Li 7.7943715773139886 6.501986283859356 7.559826378881979
Li 5.404465734434547 7.684224455388233 8.671361339270508
Li 5.734929828712252 5.05344435116709 9.02965162821486
