15
Energy = -18.7900405 eV
Li 10.132197209786725 6.094877520053613 7.990607062853337
Li 8.223508175146371 8.435922128511448 8.008422977300253
Li 7.401721370643557 5.476000479344279 9.258099332666681
Li 9.712305092316504 7.367349558819037 5.307230815058014
Li 8.877186424751713 4.106523235654712 6.132855592278705
Li 7.6339802381206265 6.2930630570039705 6.620980738944329
Li 7.476055498944262 5.9927081458920215 3.812185862347355
Li 6.603284372571403 8.468636932740475 5.247216430657482
Li 5.158397515868934 7.985237504942124 2.7236381662439593
Li 5.56872263129027 4.4045201446995375 7.205913046450764
Li 4.903198487628827 6.188663780873537 5.0129576990335645
Li 5.1935187666377525 7.203669614997819 7.820356168722101
Li 3.573771609001495 8.55050941570508 5.505220245579311
Li 4.2561972906270364 5.1389800632240314 9.796834924363967
Li 2.8065475971841964 5.813930698058283 7.07807321801956
