15
Energy = -20.47010993 eV
Li 4.562575311233718 8.297649897489093 4.611224021869633
Li 6.437464112117782 9.667514407594934 6.851142262949348
Li 7.509040444276665 8.1855242385702 4.6794618232052345
Li 9.651541053119335 8.604608262675 6.839933488024009
Li 5.948405830613058 5.9814338002941225 3.13656926146924
Li 4.28773780803773 7.412982780945911 7.56389250759957
Li 3.34445381254067 5.432507459074119 4.856109041976362
Li 5.787074314391268 6.054937138880355 5.826565800302816
Li 5.8354569792010125 3.4773978664262577 5.067416380407426
Li 7.419462952357514 7.243028144444001 7.641264195774106
Li 4.317298032515045 4.352425485327327 7.596724418772922
Li 8.730374972624857 5.70409517257034 5.691260470532961
Li 6.18556334220524 5.957841998101446 9.723880555218829
Li 9.464189144750287 5.950648456445911 8.901454963132107
Li 7.236017916349101 4.208228347812353 7.740928789088678
