14
Energy = -17.05023664 eV
Li 9.721985182475738 6.056724044006862 4.588290298218102
Li 7.552544758019268 3.890945032332386 4.168128763166811
Li 8.775684784787197 3.6805612682519544 7.013664352207367
Li 5.665206059394901 6.7120649565226005 4.204726482876925
Li 9.544649789610157 6.6412244232615 7.563110824302365
Li 7.573246611703751 5.7735326551959565 6.056338382231097
Li 7.615138830160473 8.522635348066393 5.792511378864513
Li 5.28887848026959 4.366988147938004 6.445483812655443
Li 6.227468655308544 8.940318544491468 8.58994163504868
Li 5.355681391510441 7.171389725065725 6.871082640910959
Li 6.7631538118567125 5.769541273974678 8.78596132328522
Li 4.363419719482816 9.449182430329751 6.1765269531461175
Li 2.905555188368841 6.726145500265955 5.9195732584417184
Li 3.6751701013113554 7.326530014556411 8.8524432589039
