16
Energy = -21.93074844 eV
Li 7.1331602734935995 9.790060530358144 5.682466257121936
Li 7.483536514307454 7.730742874047322 7.590296636035903
Li 4.855805297519083 9.017626335259022 7.590512175628164
Li 6.364278871423264 7.870273230838008 10.109308828394198
Li 9.95114931582564 6.470922017550438 7.187250053804321
Li 4.129492343077087 9.776370414467843 4.8072150304828485
Li 8.477772337730277 6.9611315824079165 4.644441955744045
Li 5.531700139036502 7.3424998452683905 5.245271611397823
Li 2.813156243390953 7.246822730502827 6.229215934576645
Li 7.189639800423524 5.328897831562112 6.309726634992285
Li 9.334619068069788 3.897144194814484 5.7113287955197585
Li 6.954013649049 4.24591081188192 3.829046517959878
Li 7.8578977224064275 4.9981998533912675 8.912316636281261
Li 5.062466307429024 6.042431629044076 8.056834329770759
Li 4.44968954415097 4.6471039997896915 5.515538248245279
Li 6.5637218356513864 2.7859613818003806 6.7313296170288694
