14
Energy = -18.6794647 eV
Li 9.129350225349198 8.28389141604774 8.877512689757149
Li 6.988535194580421 10.277965360940819 7.575619298085414
Li 6.166059076364808 8.524132226028915 9.82011082861819
Li 10.900874335937889 7.110676012260774 6.403108974350375
Li 7.016666759684132 7.258630563333197 7.299271260401155
Li 8.904888022843275 8.974852032994502 5.883640457600664
Li 9.211261083536545 5.390740216603746 7.794098513265772
Li 6.288540349227274 8.703408322204927 4.722631091308465
Li 7.365877316119524 5.820982353001288 9.956529915387941
Li 5.082717962469523 6.084418656918821 5.405106345752124
Li 6.668392987779631 4.245379972228326 7.104279427980594
Li 8.16706445234184 6.109357293545864 4.975820841514275
Li 4.776988720746991 5.998677670527648 8.542197002654143
Li 4.549278089406102 8.675035453261533 7.110747706085349
