15
Energy = -20.61051024 eV
Li 7.403022939024641 3.9488366379119646 6.225402368515818
Li 8.627577965390389 6.621212858151222 5.405658487546553
Li 8.053227585495808 8.680741027907002 7.65573243271877
Li 8.56490672497825 4.459433427031492 3.4306961919915073
Li 8.58314766890621 5.688988088590226 8.371730816424904
Li 6.520581939738329 8.808754552244 5.068677349956002
Li 7.994530423185278 7.5506645659841665 2.6985243909328864
Li 5.061464168825812 9.226990315463572 7.818146788932808
Li 6.1499917802151876 5.895422994520815 4.226008710001399
Li 5.944899578046925 4.327133979915085 8.997117710114138
Li 6.141623923084327 6.601812855967123 7.1906504825215265
Li 6.416961327632069 7.293018016202999 9.885437747049572
Li 4.444081490258043 4.464253389368473 6.352309984899728
Li 3.8941441265754797 7.451163144865432 5.62866951321005
Li 3.712948831903737 6.494684619137645 8.558347498445546
