10
Energy = -10.87560549 eV
Li 8.07206301255747 7.4077537630346475 5.113278182776041
Li 6.014348361782491 8.953122548142957 6.834666349830005
Li 8.279519813053703 7.29390475908529 8.229829306465268
Li 6.141498343242658 9.206671449882922 3.855051129417155
Li 5.415390922535506 6.54240727046505 9.260700811853642
Li 6.287956457039325 6.300663928361007 6.776336317293355
Li 5.25680197872044 6.386087006545167 4.303890765870884
Li 7.384799017967935 4.396138202641278 8.383347244360628
Li 4.737031904883944 4.16223005427948 6.912382964163908
Li 7.425337984039805 4.3657688133854835 5.345264723792406
