12
Energy = -15.26224891 eV
Li 3.7178288768845924 3.7772182073858063 1.0436406837291792
Li 3.4953637949922554 3.4498079357605533 4.174987203423036
Li 3.8790311364438765 3.8881900885103664 7.106332618830359
Li 5.997933713773273 3.9167143152851227 2.781600796943942
Li 6.3783126541336 3.4360175092370633 5.701934440232352
Li 6.178068262844973 3.772397756346148 8.840800455512829
Li 3.94614824451777 5.977977837279552 2.8641472754408372
Li 3.4247752927931376 6.417759738971678 5.757948672582952
Li 3.7877956662401866 6.124229259093508 8.896333908949476
Li 6.117831831368548 6.183525863729391 1.0102953207700058
Li 6.4665787684225995 6.439432753257928 4.135202688192767
Li 5.947004228508782 5.953401206066214 7.023448152081982
