12
Energy = -15.65349085 eV
Li 6.2840583667840075 8.1679090077443 7.288967237008104
Li 7.43209706037934 6.6870914503965535 9.320601648221112
Li 5.932281046207888 6.358641341011767 4.729224994752192
Li 8.333683597569049 6.156348503434609 6.49084595607761
Li 8.125061502847446 8.421610541761206 4.910112713824556
Li 6.861393029266 3.8127829920395016 5.267027494696764
Li 8.594452763203881 5.698780095908917 3.5604133093538395
Li 9.154947078803554 8.711244547787048 7.788311739542785
Li 3.581738337206744 7.088044745289774 6.493209627776399
Li 3.827347558237903 4.301927216921115 5.228694677247936
Li 5.4692916000262155 5.31186731125656 7.48553579059543
Li 4.415902300757217 7.296006487738301 9.449309052193053
