13
Energy = -16.94059518 eV
Li 7.0441553454798544 8.623698471283825 6.191376281556582
Li 6.1224474803304245 5.75062328690173 6.833565702769016
Li 5.008924652180259 8.14874962072335 8.262277939514046
Li 9.846741287455863 9.15654933080326 7.542239775368279
Li 12.202061840695531 9.432233728338105 9.23923882523615
Li 9.561241224506611 9.064555036243453 10.426230663213792
Li 7.774497802932442 7.298290504627705 8.563582349411917
Li 7.321026415664843 10.151492713587887 8.756293641736562
Li 9.189963993485113 6.43789716125654 6.366003881371655
Li 6.562804344118778 7.932753304354249 10.88634747206562
Li 10.642791280895636 6.738385184848285 9.141749027865028
Li 8.244802714698247 11.498584544475136 6.376750570511482
Li 10.127065048987596 11.64449301356881 8.850020112502516
