10
Energy = -11.67234906 eV
Li 5.529577349967684 5.345130706082201 3.0896289520557985
Li 4.584399463084207 7.691966555083542 4.136076367965617
Li 7.1160328802573405 5.260665095575621 5.187977182655483
Li 3.672360824149292 4.862088851640162 5.052947272604349
Li 6.925734896438297 8.40129982350431 5.179573711004822
Li 5.174892050311486 6.580880000018824 6.6039250745261056
Li 8.520292651944422 5.265539010151243 7.375903497855993
Li 4.960465048457331 3.652427289686637 7.017734536315971
Li 7.471552023594261 7.792647416240919 7.692851896734963
Li 6.148611883850582 5.251274324071854 8.767300580336068
