12
Energy = -15.66380875 eV
Li 8.323967994144773 8.548708758387587 5.628611900572994
Li 3.508520222907804 7.4678441559741655 6.372189638358869
Li 4.311956417054941 4.652697235674029 7.237543776368287
Li 7.575575323564804 6.160601593689715 3.8373922825035893
Li 9.087636894951164 5.682966769420712 6.446840477641543
Li 6.799855723956601 3.8301242090316103 5.65446532529999
Li 4.6327159359549865 5.49800086431103 4.311729152465607
Li 7.061217240919553 4.762832738111845 8.555434608385728
Li 6.327263272557711 6.549145004280409 6.405770313695782
Li 5.062933214538332 7.070059153442178 9.00267253657571
Li 5.551167602258898 8.425017913701513 4.287486231163419
Li 8.054470124930537 7.649281806504184 8.557144076892424
