19
Energy = -26.71275231 eV
Li 3.8443683399414175 7.882327202866326 4.288213727676632
Li 4.2376960089116995 4.721727403840124 5.4776222920244555
Li 6.911172447345547 9.374865216218394 4.478670839197637
Li 5.772484697359288 5.51478775165077 8.140279580773024
Li 10.59586806141382 4.7560360473977665 6.770084830520612
Li 7.486177119222044 4.371049672237517 5.9532332881525365
Li 7.247433404644491 8.511153576220714 7.30644607444281
Li 8.939261899263306 7.079871743632025 5.280331078478043
Li 9.192399932487387 10.033395526025972 6.505673512913349
Li 4.875568008600321 9.695600878893643 6.6021543529011
Li 8.849534990243518 8.617039702522094 9.573248257261863
Li 6.989106047571989 11.016748276266537 8.45963563501441
Li 5.974634434518827 6.848036268219562 5.680692653026108
Li 3.560638219656771 7.181731606576392 7.183516474866092
Li 10.841910372774695 7.655657125017642 7.522848604803485
Li 7.4589476722988355 6.126553406882169 10.608481857181832
Li 5.61002256305184 8.277854565769506 9.421397997196449
Li 10.507887758381559 5.749165286795114 9.83447319128448
Li 8.531113011811831 6.168853969330323 7.9572875170476065
