11
Energy = -14.26721582 eV
Li 5.306157758277395 5.433924279652311 4.860701039529471
Li 7.4946376979181055 3.1870326608890096 5.351029763807721
Li 5.898665901012804 4.3879893158142815 7.5462655646521535
Li 5.454425134099986 7.384148655753296 7.124577527692666
Li 7.436929766816124 6.347961822885091 9.10090259802226
Li 5.302648463252968 10.240409275809911 6.355068281729924
Li 3.5545168407781884 8.067416695562839 5.072451672452895
Li 8.736327118483276 3.6991195925145135 8.097580481212967
Li 7.972418654023829 8.78540714571606 7.09588738458868
Li 7.885874045371224 5.893000806952767 6.285672682260066
Li 6.498121551109717 8.114312679593391 4.6505859351948144
