12
Energy = -13.62910192 eV
Li 10.39162832283821 7.010174418103948 5.586702127374497
Li 8.508200306895892 9.475062745992425 5.355916094856847
Li 8.4391869628428 4.55909863590305 5.691745263471439
Li 7.947058260509816 6.990894252020226 3.804666528631591
Li 7.690814197508397 7.055947751510577 6.510016307061609
Li 6.232383679822574 5.116620723324541 7.9372805716185155
Li 5.961355058768545 8.029068744580407 8.593847111549929
Li 4.060975379348649 5.579797528090134 9.794540333019292
Li 5.599222941372094 8.38839018727027 5.294087211455788
Li 3.734666840499085 3.7804397731939554 7.240749264524382
Li 5.557940605428451 5.39486119894196 5.092211540300468
Li 3.898769478205481 6.6418460751084964 7.120439680175218
