14
Energy = -17.90450703 eV
Li 6.156662780942306 6.185493013197977 4.65267361812268
Li 9.063792689546629 6.18508779497072 4.7801440858050395
Li 3.242436276957563 6.219122118487031 4.906421575135917
Li 7.614305702726079 8.69589570211906 4.8320962113995085
Li 4.679389511862729 8.705900271183477 4.884148395897799
Li 7.6089648545304875 3.650117932706095 4.780951623872451
Li 4.728648916395399 3.648351599413766 4.854633375228098
Li 6.167348089794376 7.9312109028179645 7.229352238398051
Li 9.022391007613544 7.796528806188576 7.172148242034156
Li 3.318265414816165 7.823554378363257 7.289349161618244
Li 7.70993441508959 5.263106369929073 7.176766977641339
Li 4.643733560106845 5.273933669432746 7.243889756654847
Li 6.193331839602999 2.8534867683703267 7.188064136294276
Li 6.225716293206641 6.143132153127884 9.38428195508882
