10
Energy = -12.70906234 eV
Li 8.925808436913801 6.356198857194009 7.736475808018572
Li 6.070022321269603 3.8550672731168616 6.322759078692244
Li 8.311343255667342 5.461436876578031 4.824519935484416
Li 6.205123467434315 5.473149132303937 8.963201763933649
Li 6.501591250100464 6.501722046862202 6.5068159724236665
Li 3.873712312188445 5.991444360293399 6.923921537383297
Li 6.6907211715295976 8.452316214738369 8.332740873829485
Li 8.166568838326862 8.4383688498681 5.59443491721119
Li 5.263740246724645 5.922928971981495 4.154423497943649
Li 5.028538571708012 8.584537288926677 5.677876486943176
