18
Energy = -24.66882347 eV
Li 11.445517158283447 10.565991529964972 9.017010438797627
Li 9.22268186722225 11.444134931202719 7.0801852247373445
Li 10.550507492221854 4.418907925165014 10.257968606379201
Li 6.014565773627414 8.063678384296322 4.595567355886902
Li 6.168444256249854 11.167470303860082 5.609225600095783
Li 8.972021708913408 9.126292787356473 9.190747633533057
Li 7.166565481686468 7.159259064975962 8.16167665442636
Li 7.673187651714538 4.3608366905081475 8.517111919199609
Li 4.974378618452892 8.790847094998757 7.325165504496692
Li 6.6989486212999365 10.722532056018705 8.608549398830089
Li 10.632240813675176 8.65964911716602 6.901001087101933
Li 11.36476282308145 7.581236362888736 10.040791434899356
Li 8.493812041969408 6.528528826376249 10.663678303514294
Li 9.813419283696396 6.221139680192576 8.121765712544713
Li 5.544252164558321 5.738462183741384 6.5492022637403045
Li 7.853228768034605 9.06545953545528 6.395274696882919
Li 8.353865566977937 6.261168023029383 5.663450510308658
Li 5.947927799624812 8.373235132276323 10.345076535142447
