10
Energy = -12.0259855 eV
Li 8.932486489046381 5.797260396804693 7.130526459861896
Li 8.480350586460542 7.750824180790981 5.0558602635368555
Li 7.965241386666472 4.88521594865783 4.473996519615308
Li 6.747586329631642 7.783050237964086 7.471349900787841
Li 6.053188927109615 4.892801704614032 6.836889771150404
Li 3.7019771344181067 6.7843134963605545 7.196237833043313
Li 5.615152120497616 6.778392132233645 4.834513821225906
Li 4.923830653076109 3.888728250201307 4.200203806882275
Li 2.7387292772668994 5.871267747597674 4.537473808414605
Li 3.1907760369293174 3.91746484587764 6.612266756584432
