17
Energy = -20.14357647 eV
Li 8.242474999934467 7.865283169097989 9.88300692577606
Li 5.7081461113741865 6.442888943239941 10.477881669455957
Li 5.970766108647941 9.341530024213034 10.764129572669734
Li 7.454405263255318 5.4553609382772805 8.309547230952525
Li 5.444431742818233 8.1429303638932 8.209601562602765
Li 7.419458548185448 10.391327746923256 8.46732065971411
Li 10.264700346091955 9.36346207539759 8.239825823592966
Li 10.200587074645247 6.3999009857320335 8.158854403309912
Li 8.094102866301233 7.976444781582103 7.007704717743415
Li 8.030953737180623 8.111632782070009 4.158810422102702
Li 5.915657968265946 6.6311691287077394 5.6817761133295015
Li 8.699264501353685 5.518675094042498 5.58341037386389
Li 6.067472529350573 9.628532189000246 5.79250055520192
Li 8.954303803651275 10.434296933599912 5.859981579237301
Li 10.563166047442936 7.896316614041492 5.585610810016691
Li 4.628304533541592 5.315621365073635 8.004535595433266
Li 6.368631379809382 3.8632651620494913 6.170469278782904
