14
Energy = -17.09031107 eV
Li 6.7666079895753874 6.174990994616459 7.8761008751779435
Li 6.902985484377771 4.051003067969513 9.559347288669189
Li 4.337365941198985 5.555925327246922 9.17536563313537
Li 8.284807312804672 6.945273697237857 9.984735327079008
Li 5.56756084198939 8.133651393753635 9.53209632790543
Li 7.351892466685489 8.723353729407904 7.093581072096069
Li 6.629769904054364 6.632802119572357 5.137048483205815
Li 5.2575230931766415 4.383031815386789 6.47312691165882
Li 9.138830696733153 7.249915560066945 4.963446217003438
Li 4.469771053068622 7.4545934805140615 6.651607597270983
Li 7.75629475291895 4.372957920901228 4.561012073203795
Li 6.191534314784735 8.863744126894742 3.9518654048033746
Li 7.5811803469047225 6.5482628502935825 2.5195057756030423
Li 4.766561441249341 5.913179555659786 3.5238466527096475
