12
Energy = -15.47064229 eV
Li 8.724137574774053 6.809495710536847 8.874996713499446
Li 6.737850383533737 6.770667777443152 7.059460273875768
Li 6.763261233137418 8.950296946123581 8.638186596240626
Li 7.672825550869915 4.397138599910126 7.606605574130102
Li 8.56284483363543 8.328071245451907 6.144341706925167
Li 7.826433128707379 5.544067394429296 4.923236118058952
Li 5.865668639545635 7.683493192519211 4.680984103370737
Li 4.994236656682913 5.083084839401351 6.208328063786375
Li 5.699156943158833 6.069715569818328 9.30783680501152
Li 4.417610681386877 7.954427497302412 7.207977762127959
Li 6.054703978740626 10.13352210467661 6.136815532921556
Li 10.107253502901509 5.702002500807545 6.6372134501069855
