19
Energy = -26.65567375 eV
Li 4.544270366497852 9.187195160462098 8.600708362289087
Li 7.493812610938336 9.751228886109551 7.455999513490011
Li 8.910172310154572 7.101797495313359 6.883501500874433
Li 7.565315371442389 8.33535789003265 4.581684114212796
Li 3.0865258675665204 7.822690589361266 6.084185903903677
Li 7.88369343718745 11.35950970891362 4.933690795244417
Li 9.159950181116763 5.374191825897697 9.239165773445217
Li 9.645075945236432 8.562039461736841 9.22757893647374
Li 4.303688570356087 5.816157333590529 8.089433201221771
Li 5.256606729022964 6.05094591319675 4.774265510259392
Li 5.807074136812703 7.7066810737192855 6.746620867426202
Li 5.60832177539547 3.3001562365587502 6.280579027667967
Li 6.449983671200682 3.8513296219201254 9.434040493511267
Li 8.531181211983931 3.164016421458913 7.127681226156451
Li 8.026043685182353 5.095860616747477 4.713127636618154
Li 6.867423455969265 7.237149604408163 9.389512884586024
Li 5.146260841956197 10.02104869128749 5.494975143422752
Li 6.969078558859304 5.309034551157496 7.257660104576124
Li 10.103992583738016 9.627782333313935 6.193119276175561
