14
Energy = -18.98764881 eV
Li 9.40252968059546 6.751132938444223 5.950932919843352
Li 8.273410155816102 6.140423007177424 8.711682174598453
Li 7.742026333635781 4.144806006499115 6.426474624948054
Li 8.198517595373376 9.054482721928009 7.606545364803605
Li 7.365032093353834 5.826428810446959 3.8802848647486092
Li 5.604502131029941 2.0911430565923004 6.910487910424341
Li 7.627716000344792 8.848034680520271 4.553338779498019
Li 5.324172149814651 9.540833338943056 6.527779136285984
Li 5.770904046459544 7.819134129343871 9.050737470395005
Li 4.862597730237692 7.521630387261923 4.245881139418453
Li 6.592992842824303 6.974750952043553 6.4616361189838205
Li 5.53791322517585 4.778367773108865 8.29815546534152
Li 4.985394875451815 4.60929454574289 5.39497021938863
Li 3.7286424948387507 6.91588900689958 6.997445166273903
