10
Energy = -12.50300024 eV
Li 7.9657386421073655 7.403923574092265 8.37941629371784
Li 7.377642792629229 6.9731779493357235 5.557832033733566
Li 9.564851042613768 5.174786060360284 6.784559353762874
Li 6.906705062067971 9.828549909876042 6.584534535215536
Li 7.470699592218688 4.049307063345491 4.784790020640923
Li 4.897935598464865 8.468616338569301 4.637282161259165
Li 6.779192702386957 4.899980453868978 7.40090988382063
Li 5.252997956591072 7.596980075521498 7.302078132993426
Li 4.8322236402790795 5.500169487079787 5.363812247477514
Li 3.991264166408339 5.143760283717565 8.24403653314599
