12
Energy = -15.86938685 eV
Li 7.638317394068963 4.595423969819519 7.5263616962378075
Li 4.725205647766732 3.6407123371175083 3.872959156073661
Li 6.404394155037778 2.3452847513333075 6.00355099708898
Li 7.638317394068963 4.595423969819519 4.480740297940154
Li 6.154792797511283 9.689381917155346 4.381115005586557
Li 5.537565513784493 5.063817314261984 6.00355099708898
Li 7.219570413927057 7.420642120217237 6.00355099708898
Li 5.633187712719695 6.7304461228006485 8.423778668915238
Li 4.578074778185226 7.90093908546906 6.00355099708898
Li 4.725205647766732 3.6407123371175083 8.134142838104303
Li 5.633187712719695 6.7304461228006485 3.583323325262724
Li 6.154792797511283 9.689381917155346 7.625986988591403
