10
Energy = -12.77189429 eV
Li 7.251695812847532 2.324181040866609 6.705940510308619
Li 8.444943197228769 5.25552030042226 6.697496869680166
Li 5.999813925193892 4.741099723010627 5.125804788318848
Li 8.542489140545062 8.414452612720298 5.897098940762659
Li 6.467764709905707 7.062287017520869 6.40377384077196
Li 5.929127027041025 4.804515672787904 7.997788842566111
Li 6.921196801852139 7.769754028068642 8.751661033602312
Li 5.755064808116617 7.8433088360759005 4.108191777463353
Li 5.823636046108516 9.77224987278025 6.5642519250721945
Li 4.021910248692945 7.170272613278547 6.905633188985686
