19
Energy = -27.2416004 eV
Li 9.063161473018257 5.231821629214301 5.550869026759724
Li 7.302497597766388 6.730927499313909 3.725993309218992
Li 6.985864728389534 3.070122156255892 5.307302006174103
Li 9.964655968861546 6.794038588005226 8.066949284945947
Li 10.242701804588307 8.011405773347994 4.841084461693393
Li 8.074810451353885 4.184917348752431 8.049030704240346
Li 7.619594084771275 10.113465829228039 4.9043534940534235
Li 7.972876687637894 7.752350196471283 6.210607599397818
Li 6.108487429264168 5.560470898126975 6.280551102454393
Li 8.589813361247057 8.707065324834964 10.013251329760392
Li 9.549068217530909 9.747322837645141 7.290977001336335
Li 5.241282135068763 8.38393350444697 5.396907978462826
Li 5.3788322526080785 4.827024006629233 9.22990221867526
Li 7.141842570154791 6.829065503460994 8.607096846962973
Li 4.365222082829754 7.441398822756549 7.913750934574917
Li 6.498502941148389 9.539288952371932 7.8657655321350255
Li 8.162408097670014 5.744981882186226 10.8071896031335
Li 5.615978042270011 7.978892790417798 10.549143664252044
Li 3.8008367274857893 10.322183562873876 7.22381658468982
