15
Energy = -20.48953325 eV
Li 9.089242523318388 6.3028631079057185 7.03175843888279
Li 6.501245310766626 5.687711413923 7.616041151851772
Li 6.971221765517711 6.871463066293642 5.302710101311118
Li 7.784789204027745 3.3830966524363566 7.139559317495543
Li 6.531998424489713 6.953194966694249 2.7460535050881925
Li 8.689310243623186 5.15835923049047 4.1661063294616225
Li 8.809813723009913 8.396648468911136 4.382002821015878
Li 7.168054492914485 4.692585229495292 9.939132081120135
Li 6.6986099608892555 8.539603363398076 7.519984770982939
Li 5.771839418663612 4.477266133244519 5.105925062148188
Li 5.691030043123501 9.363268105275743 4.862891195348272
Li 4.722909995255547 6.97006732420773 9.386352902860953
Li 4.738883698181468 3.9412760362997563 8.20661784664636
Li 4.368199074786502 7.058557156055394 6.4361744058224915
Li 3.983660203439486 9.724847827375914 7.6794981519710355
