11
Energy = -13.63816122 eV
Li 5.5408142263995055 5.665289678735881 2.152226449806921
Li 2.896553937757281 6.46426385608185 3.0467402693997356
Li 5.013447772164046 7.502514380892102 4.631329952528965
Li 6.758995777850751 5.1428946771280915 4.781765054362703
Li 3.978062857966013 4.259135296990982 4.48279051474777
Li 8.748056112244642 4.430960549195388 6.630086629815416
Li 6.074708959862564 2.8903188533533775 6.612528908969701
Li 2.323153001677813 6.51747243385453 5.892953320483468
Li 7.467522963390726 7.2325808653996235 6.787460978476055
Li 4.9466373647857065 5.633839502862831 6.895718565963875
Li 6.926278963240508 4.934961842844605 8.760631292784222
