12
Energy = -15.62922858 eV
Li 8.58530033780184 3.6248485018041015 7.290583554784381
Li 7.491719012222352 6.000898880414086 8.753160034914696
Li 6.707721722644035 4.334190553929593 4.925263200483863
Li 5.577958015468536 3.9522742305142753 7.428684776495155
Li 8.486051514376854 6.431520996754409 6.1501301100247305
Li 3.76787264029091 5.173431882862739 5.015742399560984
Li 5.858308579521514 7.0485118555504505 3.8850358122714717
Li 5.8940875237469195 8.61834165373944 8.331951465273363
Li 8.919971066210431 8.585527563685385 8.242627303602255
Li 7.020609591745308 9.053022479937164 5.8312602613585875
Li 5.700990516597506 6.559625929931727 6.472250548739861
Li 3.998145776524914 8.626541768027757 5.682046829641773
