12
Energy = -14.77918482 eV
Li 8.440756046794322 6.6860488709641475 7.228680359184943
Li 3.7985620813811614 5.55332020217435 5.010651066584756
Li 4.346204375234986 8.375137325918994 5.4633986670456665
Li 4.883500878660485 3.571816764208914 7.005458087540275
Li 6.324110259511264 3.955479585220376 4.27914059206602
Li 7.355859703650886 8.667521529680979 5.233949755673685
Li 7.89319229309158 3.8642572197007645 6.775990071807235
Li 8.538422167907141 5.913384657094592 4.434679238719066
Li 6.307453154658751 5.348027003281577 8.952695996365753
Li 5.915292776935744 8.283847033782365 7.9601876496435215
Li 3.700915064629412 6.326004581758448 7.804750892915994
Li 5.93195624990857 6.89138027857893 3.2866428588776
