11
Energy = -13.91359778 eV
Li 7.244409722681179 9.79949188367581 6.117633084733312
Li 5.194716007074683 5.5561452790851 4.912543633611337
Li 3.6255144763923193 5.952282515949425 7.307814392272319
Li 6.859296418906682 3.22205524231035 4.254867163348806
Li 5.23114065874995 3.451768962924108 6.884260378186346
Li 6.077301309639151 7.3778707256038345 7.022546035730862
Li 7.651828181404183 4.968318752009531 6.48022372835901
Li 7.607375263353804 7.357230444831632 4.621715479451291
Li 4.680816685780521 8.59294562063212 5.0016080611368325
Li 6.273699149515163 5.319548658917691 8.998295185658144
Li 8.75363064029535 7.608608432244573 7.612614317979637
