13
Energy = -16.06480175 eV
Li 9.37496629613878 6.8193323359203175 8.434865767866272
Li 9.244480357824433 7.592713461470598 5.469018346546968
Li 8.858821799166563 4.99375763004083 6.275505618103442
Li 7.741904594477442 8.920425713597544 7.567322710740174
Li 7.3600040857474935 4.806822785273051 8.694817800151576
Li 6.659109683647704 7.270845181386419 9.703334927092872
Li 6.122698923335708 4.1427004029874075 6.202617683879452
Li 4.622943341903259 5.441113361638982 8.36069400972836
Li 4.902855737935753 8.158150731339719 7.654611015979152
Li 7.259768646763935 5.752071276738934 4.058111507349272
Li 5.69838611837809 10.527447255267552 6.419044967217799
Li 6.5709612737485035 8.35673788203896 4.906647009833889
Li 4.640247581739327 6.350100881052696 5.469892097448334
