17
Energy = -24.13242163 eV
Li 9.552822801034452 6.432815970900373 6.781697143570724
Li 8.3662091359171 4.155756484363903 5.272149410604655
Li 7.778417568666376 7.026078676452394 4.306351577734277
Li 8.688744106173495 9.371169938325401 6.516216160859885
Li 8.381296002266959 7.714669950413576 9.315508638368225
Li 7.348475480189965 4.725894467092566 8.125736405120021
Li 6.1057087501867535 4.340419608994763 3.2016244571312917
Li 6.9189500352941256 7.404868345466562 7.067117621517448
Li 5.7868559553553345 2.6632583828229097 5.983704841473244
Li 5.910991772796873 9.29453349660671 5.230130477336932
Li 5.846525460858777 5.350119868598334 5.696843145680714
Li 5.946989706852802 9.61695795520085 8.272641790575317
Li 5.452160503842466 6.806000010312436 9.403283087415796
Li 4.7319410109993605 7.031545753311133 3.7184079988379364
Li 4.280117380672505 4.52311336652558 7.895379188632075
Li 3.3536337300622607 4.59410557785154 4.969251096472842
Li 4.019005729085799 7.37059417857857 6.716248450715937
