15
Energy = -20.40998094 eV
Li 7.2213270186039304 4.207156716874805 3.2990993067037016
Li 5.431022863902203 6.5272003811339125 3.320397884841779
Li 9.097958788186716 7.158655441980705 6.8176380594514985
Li 7.002046117548949 6.100565577613409 5.387682127988173
Li 8.791718869942338 4.206998860535063 5.77805743186313
Li 4.47985092382079 9.812399095910116 7.610849336721885
Li 6.681689580771887 5.443084144550534 8.160967643897116
Li 3.7998160424402743 4.596771559664142 8.463522893756554
Li 8.088828663769377 7.33923282523724 10.09707005782981
Li 4.885378558329087 7.296598407587067 9.619489896401769
Li 5.3094762636662365 4.02020450287686 5.740977842231419
Li 4.5773562969993895 6.903887087722658 6.67372004483959
Li 8.769557104217887 6.839562410282298 3.6147221338945235
Li 6.648294594549948 8.813518485511674 5.126576127029725
Li 6.7960713322365836 8.314557521505112 7.869622231534923
