17
Energy = -23.24640546 eV
Li 8.033499605102795 4.326229571630514 3.7181144059989775
Li 3.676213690461185 6.124165822288006 5.450808685163113
Li 4.941002750016677 4.592826135355415 3.1602809787030917
Li 2.3457361995905925 6.346912214022042 3.0662829154910343
Li 6.336457799610658 6.794847327042791 4.307310013461906
Li 10.800168006053372 4.173223507009408 5.04568583797271
Li 9.456819222600014 6.834959416593244 4.097526216170977
Li 3.3466289108357685 8.62211005922231 4.899235197312137
Li 5.828763113296455 4.223909030483321 5.821361522716208
Li 8.324722182689797 2.582419188949578 6.089406677249357
Li 0.9874487131516881 6.534219124946339 5.831588855432464
Li 2.9847094132864243 7.663174263114186 7.742927675374698
Li 2.375392302122761 3.9094328148129405 4.972022743873631
Li 8.396159120615087 5.407764623346278 6.2478918640516286
Li 5.858696396143745 6.824336794190043 7.19968689732849
Li 6.817625045865375 4.340018057512584 8.565454164901228
Li 3.5971322414205975 4.806626762345041 7.891590061661748
