22
Energy = -31.95672134 eV
Li 7.929937217892349 9.24733607388447 8.104540833471143
Li 10.13607892582452 9.248051564141104 6.025960811613499
Li 8.018706641647556 4.052099277020153 7.872970796870772
Li 10.144611208146175 5.972764749396421 6.654668256550338
Li 6.023931795912986 6.319021349120514 7.544918054567605
Li 7.164403185225893 5.159274174951233 5.124516850878667
Li 9.643145836868817 11.233165705337306 8.393678928782663
Li 6.345429561293937 8.236708893937948 4.081849018374386
Li 4.241668761277746 6.2658203267270975 5.528994990045751
Li 5.2126998073423225 8.967885994232903 6.879311185592344
Li 6.3867457613728105 11.287892170762852 8.865942549002034
Li 3.478101078832023 6.494369608083161 8.477329453212596
Li 10.146944205665232 5.267329490415521 9.998971753044541
Li 4.947293419438176 3.860656986637551 7.47588863443453
Li 10.74552592438521 8.225549504500682 8.698353838453952
Li 9.31270864318259 7.065093344532058 3.7469445950505427
Li 8.386090175552086 6.694938571902147 8.720066506581325
Li 7.924696454126849 7.610239733754884 6.025695206889703
Li 8.588136960631317 8.581152784200727 10.808183678847344
Li 6.451327000786236 5.231871014634679 10.164761372908295
Li 5.786817263799721 8.259539515225251 9.646002705492334
Li 7.522613480132327 10.78759592676263 5.898066787406259
