24
Energy = -35.14848791 eV
Li 7.384709672241114 8.208910867229912 3.0890408849809954
Li 8.01955325592316 5.231902641781863 3.77759169742264
Li 5.398589704793168 3.662087548423424 4.006559871314815
Li 4.249270729202398 8.547750606523513 2.8698121531530316
Li 8.095737999167184 2.4079724228104937 5.376868611880261
Li 5.792446606229371 9.359253879359509 5.54252089565558
Li 8.068327517496256 7.277829832580726 5.934954776299774
Li 5.521104182474105 6.591998403761135 4.490813449356753
Li 9.72021233695798 4.905307483447565 6.4413883748226715
Li 3.0299257890278875 5.763984569409501 3.3806837241679055
Li 5.564014079867073 6.0616790818218105 1.7542639691818558
Li 7.552314930942726 9.037177651512854 8.204396827563725
Li 4.353900625209196 9.43164931685432 8.192510708331417
Li 5.471018879407586 2.214735115018583 6.90508473961163
Li 3.1930505443289947 7.8832540857866364 5.798409162957608
Li 6.830488689180465 4.6062894503125325 6.408968873583463
Li 10.378206236314826 7.779577428440441 7.61236708219558
Li 3.875887563227411 4.898088906653891 6.307406358330656
Li 8.124392316415065 2.9885735325954252 8.376971461624912
Li 5.520530210577658 7.06292979801729 7.426377270935162
Li 3.111960721893467 6.601093530967633 8.74483534603826
Li 8.149458969735132 6.12709912164319 8.713425575265541
Li 5.522922116667375 4.582908997523767 9.012039988025718
Li 5.823989978060767 7.348673814830813 10.230362178485045
