22
Energy = -30.91348455 eV
Li 5.4229365434010015 4.20803685952338 8.096454865728171
Li 8.58473112424128 6.97355643572285 11.365870270242448
Li 5.843504979846393 5.838016516951394 10.718148694741808
Li 8.075890923011098 5.402834441301779 8.841820818943946
Li 7.585043807221989 3.580406746540039 6.11170294982702
Li 4.9343762819617805 2.404643694454517 5.599854761861617
Li 7.220362146645672 1.8189780170859566 3.693046652082645
Li 9.299676137443091 6.039758962369519 6.175273183080713
Li 9.878078015384997 7.731110132928153 8.723876336008601
Li 4.230483308312227 6.934715992791819 8.28970485911692
Li 6.95988200819019 7.961505083205196 9.020078245236895
Li 8.956853965416007 4.305085144190345 3.61093422725025
Li 6.4258352087994615 6.391223927941207 6.4561797855256895
Li 5.138561764851729 9.170950359624559 6.510793519362576
Li 6.060206724465132 4.590900337329343 3.9938036184764867
Li 3.796725120907548 5.294813382941377 5.839912449197647
Li 2.447175071367752 8.09189436401033 6.01133814448361
Li 8.111242317988975 8.766116617545185 6.370564232663539
Li 7.670711689298984 7.121024331176014 3.925955252699588
Li 3.473549560600263 10.375346889056308 4.298426617051664
Li 4.7258293690453 7.63168558164066 4.21099793010411
Li 6.468812168878534 9.990834103452812 4.018477768963433
