28
Energy = -40.94837598 eV
Li 9.563435764775672 9.23204383254953 7.103748707419959
Li 8.102479763781707 9.734616222372663 4.328164936041983
Li 11.045880808761398 9.179642097899606 4.385061141637297
Li 7.216710008854069 8.788318027369664 9.697600550521255
Li 6.699561584385508 7.164477953256263 3.2670857382659357
Li 9.415357614573209 8.019844210075446 2.0876984901948523
Li 6.945933923919035 8.613038675658695 6.7391903637074675
Li 8.571835100297546 6.3317761950459195 7.890833954348887
Li 4.783199300159002 8.851510230375643 5.0264858161221815
Li 9.075206872781513 7.145858331775322 4.886510108705425
Li 3.8630013849979608 7.086798545260955 7.216623789901178
Li 4.573388540286248 9.63813333678575 8.033916242737225
Li 5.953184290231067 6.713322816304335 8.596112547708863
Li 6.39874310209967 6.151489831812416 5.8028033414724405
Li 8.800604290475265 5.000320456184518 2.738054190506932
Li 8.257739319833409 4.088141889574004 5.50530990006311
Li 1.812191562779152 8.34362463708033 6.035457588806791
Li 4.153755521173826 7.718349813540453 10.414828050664171
Li 6.66647470870236 3.8612125467930514 8.292958218438674
Li 3.6566033690939435 6.163118998368748 4.555052975876083
Li 6.709328203996025 5.758427587981958 10.921138000232467
Li 6.103760647377061 4.083331103955948 3.744562017584451
Li 1.9534429305182928 5.06150846904478 7.151970181749775
Li 8.215796472004898 1.9518892217192083 3.300919714557071
Li 4.661498637567558 4.242255293497486 6.5493682561559705
Li 6.267358726420356 1.9222046812041893 5.851647069502349
Li 4.04843340366624 2.0436750813263 8.162194278411286
Li 4.060945141647898 4.831126169034496 9.410549529439455
