24
Energy = -32.61300755 eV
Li 6.112112491993817 5.991194591427388 2.992359848170198
Li 6.113837860205794 5.985819884625582 9.212730773326651
Li 7.626565774039387 3.9774272916748172 4.5620970943650425
Li 7.617969414517881 3.981390225859574 7.631504140303586
Li 8.531390066102839 6.752518219606661 4.582645113004031
Li 8.53206634201761 6.773051005374327 7.6492154772910705
Li 6.10253464659024 8.515579048319594 4.521780408693892
Li 6.088740743616209 8.49608460635031 7.677549847506877
Li 3.7105111734388214 6.756504986895742 4.561335186792191
Li 3.7060846589511116 6.773335128872871 7.648543713045292
Li 4.65389054842255 3.9846433852720797 4.5153389325237905
Li 4.660886252618702 3.993693903533855 7.592108048174585
Li 6.13250086081466 6.027986974905753 6.0977895631988615
Li 9.101090598738077 1.8860014264423026 6.1195720044510855
Li 10.088561229338833 4.675038607757596 6.134032069465209
Li 11.001476050625481 7.483869106503133 6.154184393811032
Li 8.59060800638462 9.261600202312854 6.006978919429607
Li 6.005309449270669 10.976469449957687 6.107913373966608
Li 3.5880152163267818 9.305224180560232 6.101400762941714
Li 1.2495915333881222 7.502791862267116 6.122212539666604
Li 2.1794200416659635 4.706700799423992 6.107970112634721
Li 3.1842324227388126 1.9436342172735674 6.023698096002891
Li 6.12550638576562 1.908936895396021 6.0721701759956215
Li 7.890770126915675 10.789330456147677 8.375886332700121
