23
Energy = -33.64539645 eV
Li 6.284908904192041 7.940403662021756 10.450616228236294
Li 7.30180480598107 5.2673586028737525 9.421699335186108
Li 8.661903106756336 7.775061632670241 8.541900208197076
Li 4.173210097081203 5.699791770149426 9.547115739986934
Li 6.534219816058666 10.04405901257872 8.061542046655894
Li 3.6893801678377542 8.766950263678266 8.720376299422348
Li 5.836434715187015 7.265621397480371 7.78418959597202
Li 5.3580641193860865 4.412117411810741 7.143783302284133
Li 7.576255319232909 8.487445839259182 5.728093688183532
Li 10.222128540153456 5.055490076363984 8.289402293746274
Li 8.014808739569101 2.9359870799362104 7.48180046356025
Li 10.332302990322862 7.197963965003552 5.959725796906956
Li 4.543103994636007 9.078902748274778 5.807509287241289
Li 8.014171179293658 5.655131432664868 6.599085652457382
Li 3.165997208847692 6.576675152251193 6.680339516407786
Li 9.980126750466873 4.145986053019442 5.416268244263183
Li 5.538279716859095 6.433766343805059 4.958202946164315
Li 6.020713026988211 8.548062773184714 3.0947963333646435
Li 6.8105021094865865 3.7961599532167614 4.6561063913309955
Li 3.6605943031721178 4.303749675707919 4.599425968022604
Li 8.203587690097173 6.347046873982715 3.763105068303513
Li 3.1731612760438788 7.279834102321551 3.6143279416333334
Li 5.348457078733098 5.5969207215131815 2.3426175546350616
