23
Energy = -30.13802936 eV
Li 3.5452096062696 8.66222156267933 6.537490384600517
Li 2.839361081388008 7.503532704090535 3.930782708826229
Li 3.627002781453585 6.7566604754808255 8.662660657404945
Li 4.1666546570008425 5.862489962947438 6.000446443011947
Li 5.985752773281714 10.108947692602099 6.367164913113489
Li 5.855073965241558 6.30880697908974 10.233515607712263
Li 5.544313949859585 8.104934130692808 4.409385719345589
Li 5.280235890623319 4.325191629747152 8.167673601790217
Li 5.447187465162999 9.102246094679039 9.138489401750062
Li 4.870447864265693 5.485575336649084 3.2733156033730566
Li 6.148134505408865 3.817029117664759 5.469279505846711
Li 6.490001217765827 7.08234972388347 7.252700910305133
Li 7.304829783510633 2.333142644645365 7.640571578733556
Li 8.241733412640933 7.636933493463086 9.950020938092868
Li 7.568626869088846 5.989278096737601 4.172917981057905
Li 8.272504779869063 9.678365303908537 7.919236009971189
Li 8.002655864391228 4.795442360463864 8.93920578510679
Li 8.17568937597052 8.566629143598016 5.255153823712618
Li 8.933690565233562 4.274904898789794 6.2275034126248325
Li 9.439582136751735 6.793997833505934 7.498431027918905
Li 10.786030449121226 8.846234822409059 9.270649889956921
Li 10.306719601245844 6.448789833342275 4.8031982065363605
Li 10.725198936798199 9.07582249260855 6.330032851865984
