21
Energy = -29.73541849 eV
Li 10.385450918357863 5.94374565730792 8.946840851623444
Li 5.242867550036431 9.74899903566662 5.794827445343919
Li 8.21410270111772 3.493611390751362 8.208327579228307
Li 7.140738435920331 10.600556418852781 8.159162722766135
Li 6.0998596200759625 6.9837088464263815 5.028589140070529
Li 6.160310605323727 7.841073016482985 7.838997530055162
Li 8.896623880787326 6.9558439711298075 3.9390547552618127
Li 9.38232345162443 10.609895679498521 10.268482499668574
Li 3.602901051625673 7.114449898816807 6.907223788014655
Li 7.427476326038155 5.847327751790404 9.59633152341435
Li 8.417489074356267 6.098177822509316 6.794613589225675
Li 6.8323122417017945 8.645245382313876 10.550342868766284
Li 8.968451273099951 8.415216540893603 8.58235760322983
Li 10.812016493984137 7.840765127777138 6.433697887508583
Li 6.956720193816358 9.298481495603049 3.2127574691849725
Li 11.70180357295908 8.931725779453965 9.115987406490556
Li 5.629200689924669 4.947251200784404 7.4406126665140535
Li 10.093486672118987 10.726868950909788 7.286241197146346
Li 5.571926974363991 3.4454100900128735 9.937790754069344
Li 8.055299094041098 8.964961098112308 5.802975633034393
Li 4.519213224809823 6.397702624744355 9.766522538316941
