26
Energy = -35.78275229 eV
Li 4.269049373167857 5.777511329044917 4.910855786446019
Li 6.292966090162031 7.356295542290942 3.2169580907994693
Li 3.851406469197613 7.293811069977433 7.5907896447770815
Li 4.240935714877155 8.88060186888857 4.960461264700043
Li 5.639702265183723 4.764886199286955 7.421591890590592
Li 7.225331675209906 4.844701553229163 4.7952824279299175
Li 8.189648971182004 3.1800942790804108 7.209091346017233
Li 10.22707703051284 4.749856825718378 5.518828279814698
Li 10.489976542716324 4.731114430923274 8.622843682170204
Li 7.625115033663577 4.811474661965006 9.789835353041921
Li 8.452821644942492 5.918330781867504 7.239169334418193
Li 8.971442916574434 7.358830775238596 4.6232925839963945
Li 6.464677416190301 7.306364453051158 8.81047727125966
Li 4.691738644974901 5.72103136212334 10.152655432171326
Li 6.267895672349942 7.331250704474385 5.965367072825494
Li 5.586749052590391 9.86328720857401 7.488095518635777
Li 7.164061138116071 9.855692967915397 4.835522819399348
Li 4.657864346042846 8.833966654020415 10.182576550561521
Li 8.415924913605329 8.774429939670602 7.242284258184688
Li 10.171312824737312 9.989855517376865 5.526981519601459
Li 7.570593044926629 9.816681427022749 9.829069483357486
Li 8.098831337302164 11.501992701611925 7.269116413192369
Li 10.424054595347428 9.997426571495222 8.631809234158617
Li 6.990382270688567 7.295136369967259 11.513845674380596
Li 9.394056293324972 7.350285082829101 9.709701351632226
Li 10.94433817794341 7.3759515569883645 7.023459491522895
