22
Energy = -31.6242155 eV
Li 8.787442366076377 7.157750508132083 6.251315401912607
Li 8.131918155097445 8.4200112409587 3.582168958557471
Li 8.572441358740642 10.221380153176272 6.0405878803459485
Li 7.4667747110901335 8.701212501417682 8.46798006310595
Li 11.02666787326835 5.195960646934077 6.894150322779849
Li 6.205794405208672 10.918732654949707 4.087683355470112
Li 8.87372248506157 5.8859962477567995 8.90566119257802
Li 5.790008601352665 11.08042553460078 7.167302588723291
Li 5.103829781035664 8.139740043603368 3.1900789498688833
Li 6.234078932444124 8.664183907805286 5.7128654692472995
Li 3.673117064762723 9.775842907141474 5.401083863141683
Li 6.761361197372219 5.859490337699001 4.533988106411652
Li 6.273120025962778 6.189576359858566 7.44610694923672
Li 9.726171835218572 2.9515574975446626 8.756718954559382
Li 4.473936933949121 8.361288689656607 8.137849583053157
Li 6.731198632565878 3.6778752011318 9.009330078862774
Li 4.064315733564081 6.55943678681312 5.687348120929016
Li 6.111335670235583 6.526799429254723 10.167857239379748
Li 5.3933000391678 3.6839616439303637 6.29325182500906
Li 8.32633671097569 4.153918931722301 6.612379219408788
Li 3.8628598448199707 5.263108123095415 8.511326606914272
Li 7.5490604915867365 1.4146335679492288 7.22759046022301
