29
Energy = -42.5663256 eV
Li 7.613407212542483 8.480031094228591 2.8367885825885786
Li 9.96320028506211 8.318880853452958 4.839303456739237
Li 7.618844016807676 9.760985382400063 5.759982601357439
Li 5.17868674208825 9.960004926876206 3.9406649010105834
Li 10.025445184909982 9.38190449911086 7.643152415110526
Li 4.759634536675506 7.45876941426751 2.328061270761057
Li 6.927681840025786 5.438594056640047 2.4597797483825974
Li 8.570510414678628 5.8597312457523705 4.693130311089445
Li 9.405198055652072 7.349593745591877 9.812195613388818
Li 6.119564971672013 7.360655026230663 4.9298293373170825
Li 10.640366774732868 6.286479349417193 7.089391849932425
Li 8.036150829259636 7.228107691827942 7.223144508138131
Li 7.228281814633975 9.294584801656926 8.925533629807592
Li 4.882425232508107 9.591130058571581 7.002104760423183
Li 4.5140407297853775 8.748473652152347 10.077628455113642
Li 9.480280612777898 3.5615566333530206 6.030344254701354
Li 6.521766696243797 4.665508348131815 6.357495220639909
Li 3.359975202919076 7.6237214574218815 5.157954332065025
Li 7.049612437923461 2.875747942741963 4.265731637083999
Li 5.194797292192144 6.936079825778234 7.780127102908294
Li 4.6232123671435925 4.905822042737707 4.179710631618132
Li 2.4740637926665685 7.944526458704582 8.063463484379554
Li 6.548574666278516 6.466047336946961 10.157208754732508
Li 8.385363386222602 4.650617560172078 8.586356266714018
Li 3.4965375127075538 5.890625375806505 9.998740057968138
Li 7.281227248053561 1.9536714603457384 7.25948768462447
Li 4.628924149220062 2.442235768441539 6.090682951291261
Li 3.3229576803949916 5.072423823028989 6.959313739755167
Li 5.412537265720474 3.8571920367440757 8.828702319870029
