25
Energy = -36.47994448 eV
Li 8.092190839208193 5.736629584976205 3.480598712198161
Li 4.585919225809721 5.779078030985094 3.089041908537351
Li 9.303027189668535 8.522294377076987 3.909132141181002
Li 10.819862930373423 6.1665031176440275 5.113239294581749
Li 3.799315598866393 3.8745714482332665 5.499890684749858
Li 6.190383062190018 8.138429464925993 4.344301015927019
Li 6.141671410015175 5.572688750914196 5.4006491862561115
Li 7.705644281552511 10.115935634546002 6.1679747940622685
Li 10.856206942047427 8.972868074258134 6.554688022070764
Li 3.6553738596847296 6.762784550386051 5.917685948414035
Li 8.53120468797402 7.123453127804269 6.111566875796433
Li 8.520027582580846 4.331307384156052 6.5043550754578465
Li 4.546326132553277 9.867925424209089 6.216435798022835
Li 10.579751894236171 6.5668718033170945 8.21452481004749
Li 6.233677009671301 7.970018935559014 7.369078431960553
Li 2.5144959358797236 4.8794741567841 8.22981984556506
Li 5.242076204434681 5.068349438508574 7.851969476319562
Li 8.848300667624079 8.769038739326218 8.747874878495624
Li 4.003289627346721 7.447323971774811 8.899240712767646
Li 11.635354328986267 9.027864957764821 9.597805580008702
Li 7.719640744970957 5.888953180065168 8.8446539361974
Li 6.095320268793453 10.357496417484539 8.779487522469019
Li 5.152184174277033 5.089802020568045 10.627000025777651
Li 9.530018762855892 7.063242169143019 10.994432796427212
Li 6.573058689385344 7.781417290575413 10.408874577694727
