28
Energy = -41.82820705 eV
Li 6.868660144551732 10.446784815313249 11.904664121474855
Li 8.769610894629873 8.601066467295365 6.469788361010996
Li 8.396138366108405 5.85955347364962 6.058170641042129
Li 11.329852931876129 6.833011978903405 10.578179626865316
Li 7.098258228119647 8.141353910047673 4.391740672351553
Li 12.112114500514387 12.009864619205189 12.34533427813058
Li 10.221144697059398 7.702265242486834 4.331402054696934
Li 6.229177974066083 7.591033910304836 7.427354836844341
Li 11.972124582990876 11.503823992060326 9.147830780500733
Li 11.554670872175898 9.76172552621217 6.363503655600584
Li 11.174151094236832 6.820820396424457 7.284953965813438
Li 10.762483983525069 7.678190388707043 13.467398122039949
Li 8.659875656374783 6.761674875215492 9.010191433413619
Li 6.275752035006968 7.520998060521455 10.812164449862111
Li 7.605017238916098 8.047539911110688 13.802304876055667
Li 13.544380643647704 8.848598106402338 12.414941415169785
Li 9.61470164286298 10.508130820602183 13.48854540495402
Li 10.366359841521625 9.062862491428664 8.820295124670501
Li 6.7334603458613325 12.29869538765557 9.147387824539042
Li 7.570827233365709 9.635258604129612 9.100391733406164
Li 6.578280418371436 10.502844990023313 6.4013037536514155
Li 8.658760291555586 5.75795603167634 11.950006496704052
Li 8.839517559854398 8.455114568505204 11.443669308534574
Li 11.334077140630535 9.649694253186318 11.294869928848147
Li 9.247481225858822 11.45970555356955 7.505884102104908
Li 9.354375946965076 11.534455521463473 10.621256707200294
Li 9.070743447331333 10.569487348908456 4.5170319462911035
Li 13.164462334578399 8.645328446532694 9.098497986668198
