26
Energy = -37.83678602 eV
Li 10.675878314165743 8.374124340751237 12.902463869858023
Li 9.305277564464083 6.703929961506233 10.95401202685316
Li 12.051638511488395 8.101322724881939 10.005058849918873
Li 11.289219319483067 5.513476604952514 8.617275167187573
Li 9.268061245363374 9.57616660026747 10.64944760124714
Li 7.617099594868611 8.315881065076475 12.715449156056218
Li 11.893482361430692 7.7111172650800155 6.535353655657644
Li 9.894473005033744 7.882416779358643 8.319693900238034
Li 6.145489639860667 6.402027682913276 10.685852044181692
Li 11.21131871167292 10.29556200081588 8.081130168076946
Li 6.088808166522552 9.683736652704505 10.326129964216129
Li 8.307901790414123 5.175415058647792 8.715465497905443
Li 7.1520729995855366 7.853079381153355 8.576116168084969
Li 9.14696495561676 6.127722416937268 6.173610932316918
Li 8.224425822379258 10.53254759208698 8.133727389393506
Li 9.097044785760342 9.094756721724892 5.840534948931332
Li 5.659429894314913 5.3073022507912695 7.764920108186485
Li 6.7000841993838565 4.911851400292172 4.854664706071696
Li 6.364816033080682 7.545380240546009 5.842577904873564
Li 5.582508785403685 10.121207624838776 7.232357940884655
Li 6.614963124220938 9.8970669247453 4.287774460748381
Li 8.331943191140947 7.316650508485523 3.5423555967940676
Li 4.201746138785081 7.775561198595024 8.272292566404117
Li 3.80017254592189 5.988823986233027 5.635339240210689
Li 5.364284784210368 7.233541977737987 3.288532928987272
Li 3.7583647789882844 8.930052598102426 5.303639157350812
