24
Energy = -34.53300726 eV
Li 5.296737250238279 8.181701746839929 10.131113458341844
Li 6.8888705078598225 5.5833970486027305 9.350432737424436
Li 3.690136468175294 5.616654253154046 9.213332529446985
Li 7.760921816801472 10.467659407070476 10.217827045902633
Li 5.47148465290238 10.216389127739703 8.140757821884767
Li 7.572534451471645 8.358123894712156 8.495493707931702
Li 8.388373829897459 3.0681726734224224 9.500433068527473
Li 5.388987759570663 6.80929538470633 7.387639161578931
Li 3.3536174881581076 5.0874916347318235 6.332891670398145
Li 5.652559207059475 3.6318122454287254 7.702508030858413
Li 8.13998956878111 10.564987771960887 6.900610135686372
Li 9.705891481399902 6.060581961843264 8.80699205700784
Li 10.33186539273305 8.700678905134597 7.384759354324862
Li 8.234429717502914 7.098557616326984 6.187524127935062
Li 3.1440938296215455 8.11994838287934 7.237147333770533
Li 8.358959111854798 4.423814661309996 6.908504942097974
Li 10.812605612934547 6.198933485784622 5.843906979247935
Li 6.070179755269247 8.829481550657286 5.517789087116498
Li 6.129660312217287 5.398613088163059 5.184129680539193
Li 9.327144059681858 8.675307328158397 4.415132234862308
Li 4.04741676631076 6.979370533705903 4.203252307059377
Li 8.59119091121226 5.108753911736687 3.8687383109819384
Li 6.777512057790909 7.153238453523614 3.0632461516732157
Li 5.533362698129451 4.343467166665471 2.73328747479077
