27
Energy = -40.09320551 eV
Li 10.227382651278186 6.752338149910449 8.91280206637521
Li 8.902724228202704 4.562056264663945 10.759374733361714
Li 9.018604403408236 9.663345879152176 9.110747770156982
Li 8.083014361614206 4.9455899977207025 7.991993646985207
Li 8.15847261000454 7.908642984124518 7.145019765472961
Li 9.939768307053308 5.916765769637493 5.821775193545944
Li 10.60189715160389 8.95808737081759 6.605912430412028
Li 7.400905192478642 7.006411567268663 9.959866551343133
Li 7.964421508256333 10.570196929769338 6.30553522601204
Li 8.36691706160548 5.26586821469689 3.0630082248994217
Li 8.164089960891877 3.2582556837559 5.44901083400157
Li 5.524493460347378 6.5168551614715975 7.587413487030375
Li 5.772666705283916 4.473115389865263 9.698763626796127
Li 5.399151672015876 3.716479108964575 6.637773944863099
Li 7.083475283914246 5.8465640835658315 5.340936293864727
Li 3.080252994964958 5.06106784416394 7.765932031140554
Li 4.219123988687298 7.1759630914568415 9.827012844200452
Li 5.946475616787525 9.296666881110667 8.34124424413182
Li 8.478817714834427 8.18916216192336 4.249235711375025
Li 5.523983714561547 3.931113439987399 3.6501799062808797
Li 5.698483250621675 6.909394766061755 2.830193053313603
Li 5.680973972064834 8.539734904395859 5.357668942204544
Li 2.8383416795071827 3.381658387848262 4.996653632895303
Li 4.012281102749599 5.977263159582999 5.025721434574953
Li 3.195574981523517 8.093206899824652 6.915903852374577
Li 3.0233700972039195 5.362325384407415 2.4858257025372095
Li 3.151883097250504 8.302075946621947 3.6105265310948322
