27
Energy = -39.61578852 eV
Li 2.9150928224783486 8.232591488200738 10.854577987425339
Li 5.354946499017284 8.360964025256322 9.494703568426164
Li 6.620770126972131 10.028736610674851 7.500411782047524
Li 10.184976907573908 9.252346605386611 7.667730112874585
Li 5.530520529578269 6.455586403936902 11.582939371952765
Li 8.205476941480004 8.164731513082282 10.067336401312312
Li 8.498489300842264 5.349905879936352 11.271700808969246
Li 3.26395632747882 8.6700415105404 7.509259181572463
Li 8.44125498935638 9.682874442623724 5.029883270285534
Li 5.175196732296993 9.14759910262043 4.808626282409837
Li 8.061276240084528 7.7938565707255725 7.171475863635922
Li 3.746873296434254 6.068346417979083 8.946801398179284
Li 5.555216959501059 7.141573972913112 6.836197103803659
Li 9.789363935052467 5.970645034854972 8.431692394713801
Li 7.144622759474553 7.221981132366337 4.372302838409572
Li 6.843893824173745 5.884871454699615 9.084802762247756
Li 7.199199494309703 9.268012639514703 2.315706869613035
Li 3.733985027352498 6.317606232594301 5.185300267614387
Li 9.948890463422662 7.064846119026917 5.1265666322840335
Li 5.156364205048998 7.112369727973165 2.4299334540425495
Li 5.310103285781363 4.228144240913755 7.047624248171224
Li 7.843036583389829 5.120976152408856 6.333326622006982
Li 7.906713057342309 3.3583550042225365 8.761037931922562
Li 6.20604831457751 4.60950663123154 3.958876505683645
Li 8.356826963976046 6.48684999751826 2.117418821601146
Li 7.4234330589523605 2.4028280418768087 5.766533538575023
Li 9.173550058710713 4.259401787423544 4.009470225913525
