27
Energy = -36.90866706 eV
Li 4.29393324966177 2.981375414694237 5.985752772040193
Li 2.727563558315775 5.111009177220078 4.714313114026201
Li 2.4962330729067514 4.869394655472354 7.565727664567197
Li 5.220952521303282 4.364522068195029 8.292755155146887
Li 3.8243797378024436 6.88805143724528 9.151235162581264
Li 3.8330555697129864 7.252001255436003 3.2056472613197404
Li 7.163853464976971 3.4771524347350096 6.234413645782363
Li 5.577241767880088 5.485218990760528 4.938302960180115
Li 5.771018877548853 8.512493117242684 10.208020454562071
Li 3.582182812824957 7.379884400424751 6.2945891268288685
Li 6.407068525449132 5.782088729415825 10.386935288336264
Li 8.250895320264515 4.8099004904756 8.549499311746791
Li 6.432644260937246 6.906213763734277 7.427724601754149
Li 10.009828890554484 4.074687647112627 6.3452463538619535
Li 8.355254251937621 5.468051333330028 4.398875155492387
Li 6.699328162690606 7.000066127741009 2.636304862290149
Li 5.847954734996087 8.494400546106721 4.925326725274171
Li 4.970458725812144 9.544232484119584 7.551584914752544
Li 7.113830395628604 10.665708135036203 9.209851545587444
Li 10.96059881188237 5.53492754503057 8.717733737308242
Li 8.520066814169393 7.818581804841957 9.271204828901933
Li 9.42578392121495 6.924642394629961 6.541515133230059
Li 8.69798584301841 8.403462271667557 4.061797879049802
Li 7.830122127452143 9.442717140206385 6.693823936903022
Li 9.779880643130006 10.65084242839786 8.419168689402417
Li 10.618603667160704 9.642960359762261 5.795798319981784
Li 11.29597846907498 8.240148449909872 8.266147659510377
