27
Energy = -40.46759376 eV
Li 6.451322071083686 6.305164026883103 4.57248065709901
Li 9.619074424395105 5.868441626193467 4.5813685137131515
Li 5.346914715730396 9.087398509429468 3.588756971949418
Li 10.670033722496603 5.245230544117746 7.605214514168846
Li 8.351541280685646 8.69391414090823 4.429765665329485
Li 7.863400742373858 4.14723645306165 6.485920452609872
Li 6.787571767057343 11.260645383179568 5.285764810855103
Li 11.060644551822309 8.004059192023561 6.387958526425288
Li 3.890234356905757 10.470000423961656 6.095691809384988
Li 10.069552368019513 7.7126647989544255 9.15821731132968
Li 8.358408107850265 6.878394577206935 6.775423809279271
Li 8.766680512005195 9.791434861259305 7.261326793011523
Li 8.155920021796547 5.371480967780735 9.34188413791839
Li 3.6706265213594436 7.410856937583555 5.614637484350299
Li 5.533737201382052 6.4138291439556 10.619609361430724
Li 10.83298653533214 5.577695543956235 10.773882642817288
Li 7.06958643839734 8.133281257125763 9.052992309788717
Li 6.0278426614996645 8.744019222517823 6.252824866947834
Li 12.763921770469903 7.193127988225095 8.94691693540741
Li 11.555513918975684 10.041063315579628 8.735217236131056
Li 5.6027709930690985 6.019253155069914 7.521132979961332
Li 8.39902900458136 7.44395911327129 11.620755160965139
Li 11.3333663630671 8.57708121090029 11.46373572097542
Li 4.173928185193104 8.514400998866476 8.569162974196392
Li 5.936527601081341 9.448517039930561 11.150338042275639
Li 6.113649465580825 10.838032976774953 8.329956678791756
Li 8.8464958252338 10.1462133440083 10.301524626566875
