27
Energy = -39.14803115 eV
Li 4.865346706951219 5.543682397374024 4.8961459449361975
Li 3.005829890776412 7.238649960950943 6.466444548754533
Li 5.780140871821477 10.599680111135868 8.755222086641824
Li 5.507176455262491 2.552703770614192 5.627164676664671
Li 6.961544937770323 10.30338521256805 5.939542069419727
Li 9.729836210667791 5.495670225441196 3.386383992490682
Li 8.315080132431055 7.441445340894496 5.65823248318045
Li 2.9518721060982456 4.022352840562524 6.731135389510826
Li 3.4469914757302202 8.848586811376006 9.064575236786848
Li 6.086182888713846 7.602219035192437 10.040885346117062
Li 6.340165292993146 4.472557479230382 10.163105144620086
Li 9.930353350593887 10.06947826868075 5.99864382415192
Li 3.9249364824582984 10.22292255142603 6.424153243087856
Li 8.614713219780635 8.95796771739331 3.3627628564675724
Li 5.388612695767123 8.424364886461158 4.411833310901391
Li 10.622434087496766 7.5208864017885935 7.62534292532996
Li 3.7496545902931753 5.753055874067964 9.159384673605603
Li 8.07749429555394 5.971852222080184 8.22658005849256
Li 4.715941271284427 2.4467453391260645 8.61520730312898
Li 5.6256137475503465 7.907562035378463 7.281942961012518
Li 8.21979545918077 9.006616321543781 8.369518869467502
Li 7.01643001669081 6.364676109367598 3.055546100852864
Li 5.614098411105085 4.772874273669868 7.434122746088515
Li 7.75306746921821 2.896172193342923 7.797887084784828
Li 11.060078389017756 7.6245274552392885 4.736851472409799
Li 10.285966660291361 4.87912261562273 6.333692189650038
Li 7.631376971141059 4.595888976455284 5.34221586986907
