23
Energy = -33.06267714 eV
Li 10.971131577559088 4.497346782285162 12.450811439145312
Li 8.259012774009882 4.987953483077706 11.311834069425887
Li 9.555423720927259 11.677754586018514 7.916243688010408
Li 5.56952692764948 10.685435900133571 11.98544507384744
Li 6.726184226908348 11.838943381367523 9.25164168111147
Li 8.099184556198344 9.532771441655855 8.228160650900229
Li 5.689834422074991 5.933106826624946 9.607793815620264
Li 6.770119623781021 7.395221208062679 6.94051891607749
Li 6.711213138418631 10.824900861598639 6.375480619945457
Li 10.143669969315036 3.1155491376927205 9.866421410657303
Li 8.044004660227149 7.312450887697904 9.870960818470287
Li 10.817903889115794 5.896374301521829 9.87523643577364
Li 8.275805653593622 10.019920034041848 11.018853912713453
Li 9.506507813105312 9.247839580543333 5.883522428869498
Li 6.573807528700938 7.681531938921108 12.13818968736835
Li 9.241524055099644 6.141126019491687 5.171650531558105
Li 9.554176058661799 7.053412838659486 7.610941457923619
Li 5.62467751423749 9.074686751094037 9.440427081522445
Li 11.050955735431035 4.651854892221693 7.187375343607136
Li 10.672448416755644 8.963244810438562 9.339498347840626
Li 8.119266446525337 4.744455664050971 8.064295937245273
Li 9.777214808487834 7.48911527872241 12.163837718991731
Li 12.000076115019178 7.5553098345127765 6.852947181017008
