24
Energy = -29.89903568 eV
Li 7.741184122481074 3.974203418904666 2.8338577030082654
Li 5.453577480843296 3.850222253759532 4.327778519114715
Li 3.576810300312246 5.907190069651831 4.305908122400507
Li 6.730620046489645 6.543795781911583 4.330214916484386
Li 7.822973976690371 4.180793084895753 6.069639876217816
Li 9.553107379910145 5.628877533844218 3.981154192065393
Li 2.6274541052297358 6.361911137912971 6.984569480092427
Li 5.283652729056682 5.457429890820786 6.725235020312236
Li 4.609687783354168 8.229807983138642 5.593421449773633
Li 6.784616486121476 4.228107118729241 8.827294436844234
Li 4.062990008041077 5.153210545117682 9.255779091655436
Li 9.541769211679732 3.5288316136754028 8.414401264833865
Li 9.244189782607307 8.193418059174139 4.91212833858478
Li 4.063220182216598 8.231778161804842 8.442294997732972
Li 7.32040766650385 7.52583725017024 7.015090398041305
Li 6.794107900111713 9.664293825792566 4.633168538602756
Li 10.063128441502384 5.847194278167802 6.775476876067133
Li 8.879978515617719 6.270584156769649 9.338165198723647
Li 5.997569071333793 10.166156513153409 7.451424595582874
Li 6.1518101166139685 6.976021311883911 9.872064007520422
Li 10.031019457125485 8.476283173551597 7.749998215077541
Li 7.976629916774415 9.130587907340475 9.480898087435435
Li 8.665490365455499 10.702167224395675 6.576207958987159
Li 5.3725205385368655 9.946258955133809 10.333516779156131
