24
Energy = -34.56205329 eV
Li 7.084597167781547 9.81674338037808 4.103841132072131
Li 10.061997226168126 9.840137184575347 5.009010402155966
Li 7.136170516834879 4.0403494258763955 3.9995440368502053
Li 8.4804073861952 7.1820804095816495 4.815808180835391
Li 5.8132913905924495 6.8541663423645955 3.443684186816022
Li 6.362723012328063 5.818269907067549 6.19510051006089
Li 5.2194114980553 8.479538029055776 5.728417435450144
Li 7.9747366793844785 8.983538442098164 6.761378624386805
Li 10.519586272447865 7.568204133054105 7.084767585563212
Li 5.724708986151598 1.429878230262673 3.6226065945757204
Li 9.156478955273657 4.648298375840141 6.308114521413426
Li 4.360716581240106 4.1510381695360135 3.266935882817797
Li 7.575199755407089 2.0100727114729726 5.994588574414972
Li 3.222020697261352 8.505143184461346 7.789026194958035
Li 8.267062991461575 6.459839565725152 8.319441392858316
Li 3.5618450186814097 6.158327649422832 5.495265630370752
Li 4.976056479482985 3.2654040977344527 5.932403419326992
Li 6.951542627700349 3.9295356440923532 8.369856648040269
Li 5.881922459445689 7.865198162455284 8.340809085972145
Li 5.705691554307939 10.60352433378077 7.894138477487102
Li 7.915682899190557 9.142130985822336 9.767428731622756
Li 4.805962245666425 8.97694972924608 10.501040938174558
Li 6.54291781213769 6.331859860997803 10.60936178969361
Li 4.428395215518562 5.595285637456375 8.336141743610536
