28
Energy = -41.08221476 eV
Li 4.421508956086737 9.241385806911893 3.3967549247911806
Li 6.717961432786333 7.2116737323318505 2.5398424271393196
Li 3.8343829313865405 6.27894912058235 3.9369023616369843
Li 7.135930195757597 10.088761012974702 4.144802424907157
Li 3.912322614791389 3.105975680861483 5.553901595067194
Li 2.9658736602739846 8.45553240477729 5.8818520204248665
Li 5.067588220830563 10.131164134509604 6.459431767447222
Li 5.666529963690438 4.2610115131121375 3.188097695572232
Li 6.0730424136602155 7.60822189791037 5.162727500670724
Li 9.16244169524172 7.894424603133474 4.523046290337991
Li 8.265555819680221 5.040449279713967 4.239848180121874
Li 3.2942549701707144 5.8025945270441435 6.701928697197088
Li 6.917773159263532 2.2283565490610973 4.9588762596784814
Li 6.034351010778522 4.765364776735795 6.185729411702439
Li 3.213826144593458 8.048912974463544 8.888231846349825
Li 5.655776799591641 7.231522795814676 7.936272869496056
Li 7.860446507234376 9.341465066711521 7.0144273166170965
Li 8.408936851153689 6.44219945963356 6.879829967614903
Li 10.862436099384128 5.5084818888246705 5.764254060853253
Li 5.78692350478298 9.668074788381423 9.369302810204568
Li 4.28447939984176 4.671274988647849 9.029440461591186
Li 5.977135097676564 2.440009051331006 7.817255463329764
Li 10.602769797035748 8.153718170556184 7.339241996215687
Li 8.771951972595769 3.518291052984967 6.904241740222832
Li 5.4854963627946836 6.90355733394983 10.746194704762631
Li 8.263405088070135 7.746855561722528 9.543966815522872
Li 7.235193228364151 4.896425964251228 9.144745984381661
Li 10.257796083664903 5.448392445121493 8.784988621892403
