27
Energy = -39.46449568 eV
Li 10.321054445874626 4.304184160229674 5.337475512012832
Li 9.81210055957273 7.735377546829249 3.90366558339166
Li 7.4417836790325005 6.568083663190893 2.6887815474791594
Li 7.363000660955957 8.582691373997015 4.951968241960418
Li 9.97053518107199 7.075582114460403 6.843986476384628
Li 7.542979014725071 9.626904118878112 2.3422007147805832
Li 8.473412377549478 9.60782098701047 7.538755606293597
Li 8.755349751006017 4.585011308522871 8.041749099822008
Li 7.9120111530493205 5.754970373795783 5.341654195359299
Li 7.713461051009062 2.8743440015942987 6.087982677887941
Li 10.093689817624238 2.0358107135237247 7.570503792939701
Li 5.0188942713256735 8.052565710106055 3.4709461823351293
Li 9.018013624141743 7.353416136526187 9.812246340270692
Li 7.32573284979732 2.3633790325569777 9.137769167568656
Li 7.2833434258777086 7.099466072832752 7.754115944270232
Li 5.473809524308427 4.568007279959559 4.313451567180564
Li 6.0829656220611525 8.518877047777682 9.960161084951682
Li 5.320404104336311 6.788492174664382 5.8936185811400295
Li 5.482812587201274 10.761342572381443 4.598375783471488
Li 5.523995983525873 9.3596785361562 7.206451919525951
Li 6.467974896402074 5.4908298913207805 10.037300909930137
Li 5.681213539926882 4.462004428139947 7.42227628918792
Li 2.978920661754187 5.394534720881258 6.079638315730113
Li 4.21666486795873 6.935394681244611 8.503611449256534
Li 3.158186211330381 8.645791488828333 6.069067962577979
Li 4.003591265932137 7.0213320893461475 11.434599560792305
Li 3.2068520435712875 9.465879694902444 9.229739675610904
