22
Energy = -31.2414069 eV
Li 6.688026221457089 7.132155535166331 2.649434931621794
Li 3.9476839072135843 7.101691861645879 3.466802819043392
Li 5.849688935014806 4.790434307720036 4.257465979974657
Li 8.5264687503657 5.642651057515586 4.613277286468536
Li 5.3972207196270325 9.805989507966974 4.138935607954734
Li 8.690834519881465 8.571358192888487 4.1707402426535785
Li 3.794950666749341 5.60817640542411 6.102285659827453
Li 6.15313721454317 7.632644928115778 5.672274738457633
Li 3.150434375727637 8.613486079634905 5.842016884999208
Li 7.892255838703172 2.863662218500961 5.5698603065381285
Li 5.111663852335748 2.897947171188441 6.410015849326621
Li 7.550441457271578 3.137767974682619 8.814112976267074
Li 4.243653112287303 4.388372895601399 8.776380171171265
Li 9.79777305158967 4.366148752346341 7.08609287099728
Li 7.834274517714019 10.053775925859386 6.558537623926423
Li 9.165665256868857 7.351206306889217 6.844257698285903
Li 5.05824858645204 10.078544472978923 7.406346686301995
Li 4.427456458507624 7.314005736519434 8.336248170564158
Li 6.804862492883773 5.315839159863411 7.284463525719884
Li 7.101022422514088 8.15211618632705 8.694868080293052
Li 6.268932318634985 5.790335248184473 10.293364815462752
Li 9.00569479829285 5.840805807341817 9.487277598643495
