25
Energy = -36.71255981 eV
Li 9.741750807750282 4.692709743949673 6.029814050734391
Li 5.233722114836348 7.613665376299588 6.327263025799722
Li 5.463126348786158 9.94335806834303 4.813238801424057
Li 7.601023444897352 7.337251387993592 4.626763471196529
Li 2.6711916793627113 8.322557990633527 5.923013905660509
Li 10.744961159130145 7.681119170671742 5.196284817936645
Li 4.6015220352464405 6.632698084248736 3.9328480746451078
Li 4.514204471453515 10.236520076719641 7.583229550245732
Li 7.0765098084597176 12.005926347090552 7.127814734314309
Li 8.630331382206531 10.140114110712965 5.00944278855554
Li 11.086487605249506 3.08337619051293 8.137536565322701
Li 6.728055293950403 5.0657024287312336 6.228044412743141
Li 8.889147154238497 7.211369765755484 6.99154791210711
Li 11.373170700943726 6.3032698823073545 7.9911174185812195
Li 8.045871786439465 2.4528805644210205 7.3641256611019745
Li 7.172950207302212 9.350181048278905 7.103038703729572
Li 3.737730099356598 5.412675061635248 6.687839336887999
Li 4.071892084799751 7.490087698285897 8.93250684927812
Li 8.80044642414298 4.807475208409057 8.749819992660147
Li 9.93686698198294 9.693778177122057 7.687490488895506
Li 5.788497799213786 4.361331008844033 8.877146451343755
Li 6.685410332454716 6.908257469032093 8.527755133631109
Li 6.622380781968771 9.558455756689977 9.779223083172226
Li 9.032365712726914 7.664031887924977 9.8191894602196
Li 6.366214096815543 6.6470378091017706 11.169735623529206
