29
Energy = -42.55390523 eV
Li 7.6919695853071275 2.2510438997682227 6.047870122130789
Li 5.9765634159039385 3.124460376289137 8.579059896880914
Li 8.900849381553062 3.3428966622436134 8.766725616214766
Li 4.51223065266003 3.7585151989653762 6.104437399502911
Li 10.606729488157072 4.023396800435215 6.552385902243261
Li 6.263182723734203 4.170639876043934 4.088437240227999
Li 7.422820953378354 5.465729009941521 10.358591851005675
Li 5.499506559265673 5.82431382069588 7.991520803439015
Li 7.809107735663862 4.982764039376855 6.604560038978648
Li 9.150117071589428 4.1091308557409345 4.004920143021888
Li 2.403599212579155 5.30437362929039 4.322155545845442
Li 10.05348185394163 6.225907026053584 8.762587949675549
Li 2.7463069963611346 5.677137434904358 7.576264946522737
Li 9.709488903852556 6.9414661260396135 5.73786494090997
Li 7.596119933850441 7.500495073810246 8.551563016278823
Li 7.6546763812106535 6.660990174626497 3.701365385005299
Li 4.699519823068995 5.911691031794708 2.341038655897678
Li 4.5484089900693965 6.722421848122307 5.127330297607814
Li 8.182821161163432 9.82765115168268 4.877584355127977
Li 2.2132096499867826 8.172687044207306 5.918898015537482
Li 4.407740444801744 8.354004895482287 7.860003527996955
Li 6.874773388937757 7.960412966786311 6.073146210311928
Li 9.553589481007872 9.205217209898517 7.7056926378106265
Li 5.632974866028348 7.9603887482379605 10.463780851876496
Li 8.734957936958349 8.568905636164565 10.715143685126748
Li 2.81806298539573 8.166238860084972 3.098656850968738
Li 5.769107694385404 8.69537816738395 3.1998199729199723
Li 6.75692864945191 10.163139756324005 8.306372001801096
Li 4.821478634372185 10.015443818033779 5.5599615878731
