29
Energy = -42.6055185 eV
Li 11.435071517324062 6.852763509954291 9.015950987412387
Li 9.608493560206316 6.767467353536216 11.384143281200245
Li 9.59194707993599 5.373379236434433 6.684465446092167
Li 9.768063910748674 4.39505236999082 9.396484187787083
Li 7.907636743322389 5.054576453799027 4.171061232302417
Li 9.315405680486668 9.253635353166484 9.940412824737805
Li 8.593442758181109 4.093120878906388 12.084791776705616
Li 10.264498787354114 7.344722718345715 4.363211320207943
Li 9.865793996049272 8.253305318955142 7.2240046581293695
Li 8.374290615745196 2.707374738154205 7.158615618911155
Li 7.930709371929122 9.1334102683563 12.561512582347515
Li 7.9398382828992 6.730272475958831 8.878535064245627
Li 6.923255892074701 4.016507817639585 9.59140512921725
Li 7.7111934440996315 7.400831470992597 5.654899042239653
Li 6.760052656422022 6.41462040794305 11.597859010499157
Li 7.543857374059609 9.772599486321683 7.638361573086401
Li 8.928199570584257 10.016086079967204 5.046480259383983
Li 9.992262730458004 11.253302335290865 7.643224085487278
Li 6.495599687434048 5.004187742193293 6.878354786295282
Li 7.455410567777201 11.645847195623087 9.693684765053591
Li 7.496064429084798 8.157146887664844 3.003824367732766
Li 6.226735077213015 8.877279725471327 10.13054265991759
Li 4.730631686115894 6.059501214171289 9.417906172774567
Li 5.151953749267772 6.744579898570554 4.626020593633214
Li 5.574592612393474 7.796219793977901 7.419422344211443
Li 7.212480539420064 12.225260738239896 6.421515840594835
Li 7.224845666140636 11.400809271364093 3.265865889538844
Li 4.873854574410777 10.684722717833825 7.931518384794031
Li 5.899658493504719 9.701810568912396 5.177516310303532
