26
Energy = -37.8266857 eV
Li 8.406544177555624 10.747582319113596 3.3722097551093277
Li 9.339424167732307 4.525155917546188 5.0411701932109
Li 10.716899819478442 6.970415481838413 6.779792200217104
Li 10.428463722575177 9.947711515657044 5.6420710674254
Li 9.28408768644991 4.437476878656803 7.896168209964041
Li 7.5074204095139425 9.623086490783475 5.840177936300557
Li 8.975635562599795 8.912999898845417 8.246103609185687
Li 9.03369940488914 7.781530246203579 4.283303688288096
Li 8.912986547481092 1.7620601846893276 6.719373892263244
Li 4.583596873709709 10.11386890437046 5.163762584452587
Li 8.092200752908253 6.472633632286354 9.704763362429535
Li 6.296296099263219 8.552140645676854 3.3324886191731284
Li 7.986318255431165 6.689770214528671 6.690361538890655
Li 5.9235813521129845 5.617528140269972 8.20434305527953
Li 5.804068036541109 8.434408628170434 8.510671947324582
Li 6.797299653344741 3.7176838250433275 6.3986812382304015
Li 5.458530235797402 7.554159337493133 5.865470951138346
Li 6.561568784784876 5.648441282688855 4.173033171148445
Li 3.636446982726807 7.067882013182498 3.760854841632318
Li 5.337652751094757 5.606924386001937 10.83641919988606
Li 7.021046874626911 3.305869370104387 9.317713456939059
Li 3.3157251392417506 6.3167127893825326 8.705002765757532
Li 4.05939530053258 5.145611209560395 6.0650773357246255
Li 2.7445731977011465 7.907593149273858 6.423288313696564
Li 3.945198612828991 3.502416143198174 8.543948659163302
Li 1.3290023277106464 5.077429375628193 6.858161719052073
