26
Energy = -38.52705097 eV
Li 5.447291319590706 8.805531478174391 4.249085816091816
Li 5.389901813595091 11.10601900681166 6.16300925064987
Li 2.7651909870859432 9.867058895614104 4.882598505467892
Li 7.950043928056304 10.667831813538154 4.4658431740114395
Li 3.4124849459810664 6.625445250589399 4.820224886727848
Li 5.999004991260936 5.9044127576534695 2.9988432763977997
Li 7.323124761996721 8.96986966069012 6.605631172194844
Li 5.9980337263459145 9.88404876364912 9.018157111364628
Li 5.077626444581896 3.7773598371859345 5.214356260716488
Li 8.300420697960105 11.35408902518051 7.433476637871266
Li 8.346261046801496 7.509570486044366 4.177850847044267
Li 4.3006731377547345 8.417125450356115 6.9511801741996475
Li 6.156136225764877 6.372072674295442 5.728174276562524
Li 10.111518361805462 9.136963871200651 6.169296796704527
Li 8.156997716207618 4.465935425077866 4.731807266801064
Li 4.076241626254267 5.345813569315026 7.575220767206414
Li 6.396662937316867 6.945954812619643 8.569937375008866
Li 6.916659806747703 4.15893103777117 7.538904746692083
Li 7.322737015517704 1.7566998739809314 6.2167618703980105
Li 8.88555602297394 6.406042763960519 6.910325901535533
Li 4.855206586901726 2.30471468762856 7.945878469569879
Li 8.878156835955862 8.51131838411525 9.004514912542318
Li 9.710591776037882 3.49967505642934 7.302786042323216
Li 5.64619896703323 4.446889669105935 10.099901633172015
Li 7.690562490261274 2.184537227167825 9.249110359411029
Li 8.63839968889816 5.299422179926853 9.600510798230696
