24
Energy = -29.01240153 eV
Li 3.277907758118847 3.9231871407804593 4.799407341123255
Li 3.851152055532917 6.8468862205005605 4.888365187918892
Li 5.197510612057615 9.494656014829758 5.406317292736392
Li 3.718309043659964 8.029798347670575 7.739872905365952
Li 6.084055959973742 4.82281876081687 4.622864799697472
Li 4.135936812195831 5.143281325110428 7.344705828436683
Li 4.6011282602483385 8.844794828113905 10.461510578196112
Li 5.6081230271277 6.370729574715013 9.432651037467442
Li 6.54477330828349 7.3860410463139 3.6560409542230303
Li 6.202632092885403 7.041654811430676 6.5562994584218925
Li 5.437408777867694 2.7262613454807467 6.383114969006316
Li 6.26280934859793 9.426762922640886 8.175336777851436
Li 9.044320582523984 10.024604625758716 9.002728208701098
Li 7.056337666040029 4.5899785743404955 7.933267575437949
Li 7.38666580427959 10.152423180353384 3.6110170832279724
Li 7.463764860918058 8.229467868181835 10.673233077837903
Li 8.2734802818639 9.327625123190083 6.232012232715008
Li 8.291129211804485 3.02376036330125 5.912522102513737
Li 8.55229168200919 5.84446202756553 5.285768931109537
Li 8.445258307852715 5.48018832079095 10.295080765127615
Li 8.504779661733126 7.238007268260925 8.08784378043173
Li 9.435841508896313 8.22320969814176 3.852984216955232
Li 10.027061094195894 4.721863760620375 7.72929613882667
Li 10.789839487225633 7.301522400732303 6.269837370246
