24
Energy = -34.80954097 eV
Li 4.289121384454515 8.746069497401285 6.708567881341653
Li 7.333161253303799 10.5735109743097 10.632748900260454
Li 7.573774610861913 7.61982661786138 10.46362508931174
Li 8.026160469335602 5.014367809893461 8.962815195091002
Li 6.794460794394139 9.284982396857622 8.011815886190885
Li 9.312669421094574 10.189303726908236 6.412195699398744
Li 11.393627793183152 8.225998385746784 7.350428637769641
Li 5.462368898874868 11.496648648184422 7.658937816424559
Li 9.55784532928541 9.56097620779099 9.229569988536868
Li 9.468484560401304 7.837167084636749 4.779524943540365
Li 12.183669865172636 9.084031146500372 10.506755023613067
Li 10.366621087411968 6.704695326795527 9.880919936486254
Li 9.718094054081469 8.891772994654897 12.124218900057215
Li 8.687042398801443 7.422836429937743 7.601629390937263
Li 8.496706638636796 12.051995516790633 8.356185867192513
Li 4.682832620456029 9.224311918916143 9.843725710877393
Li 11.569817074242689 11.22860088508854 8.193346105919506
Li 5.600799183471302 6.730790833450929 8.496798615972153
Li 10.036139008319092 5.388347943655098 6.605374297264905
Li 6.793134839971708 6.7406428009357 5.771342193160069
Li 10.463191448001725 11.535186101438928 11.057654200025818
Li 12.239377940995494 9.99119529027827 13.263074917364477
Li 11.784904822621492 6.981847363113438 12.6678610690504
Li 6.737871212309206 9.707368194933137 5.202880428392853
