29
Energy = -42.89837735 eV
Li 10.641664928694494 5.960461055257457 4.0066187027682085
Li 9.055959035808392 6.778994041545312 6.381209266692434
Li 9.992022682011381 8.059515742007731 8.751222683820076
Li 8.825458121198011 5.052343089882608 8.856737871643366
Li 9.3214232428651 3.8576772341887757 5.914279056651173
Li 9.039825798856956 3.5036236679228456 2.7987739149762723
Li 8.332513776483522 7.0966143871567136 11.153633780454548
Li 8.626147833382145 6.341147087719912 1.597916313153775
Li 8.645566746532316 8.430342228115629 3.9639250507914188
Li 8.039997613969975 9.709505557612728 6.791161668212514
Li 6.107855294762599 4.49736065383752 2.036725426848876
Li 7.80968475504551 5.56997072849905 4.0762957468281895
Li 7.13451694266269 7.474918942659619 8.639161023480517
Li 6.611355921394662 2.984995700937012 4.739363298763465
Li 6.76100365176994 5.02996065076406 6.890493630383269
Li 7.82077452796108 9.868501714272535 9.954444096404535
Li 4.287100342395059 3.6157938519501265 6.879307988117012
Li 6.410771366731746 7.692467886098752 5.7252669995639485
Li 4.157933589775196 6.547438486652319 7.329316723064992
Li 5.60794734380143 8.179725443350627 10.982836333734047
Li 5.963626633997708 7.567623637517408 2.8115638011179556
Li 4.976871706817437 5.472227328092917 4.607033384510581
Li 5.414634852685735 5.356391826502302 9.676235931132249
Li 1.9996515504248211 5.103341721968773 8.368733368662545
Li 4.930304519328553 9.232955029704357 8.041432104230575
Li 3.807142608110004 8.372046947264119 4.9524160730304905
Li 2.233239764757315 5.609086524297762 5.336450928736764
Li 1.696533850655151 7.9435213886554585 7.271967555903682
Li 3.061007860558785 7.401221416889985 9.852566869971573
