23
Energy = -32.59615969 eV
Li 9.739617758877976 5.286255497656467 7.377753833587212
Li 10.156747018348392 3.015459478807315 9.407158038986383
Li 8.751664021948395 7.785322905101774 5.078242071219757
Li 9.13885303936929 5.759208030880007 10.195941094781963
Li 8.380532286690844 7.96711330391144 8.114811355535332
Li 8.167631332104742 4.8623931472288415 4.610890552372721
Li 7.049052846909531 10.054690972600165 3.031013531334344
Li 7.428309386101506 10.333024103072802 6.110333555352853
Li 8.877729588493345 2.628213367805873 6.626830642538511
Li 7.1743925037528316 7.086556763721865 2.535067439692134
Li 7.4664931612973175 4.055495571093357 8.621870100092346
Li 6.045824103496763 6.549255726322262 9.551821173789714
Li 4.275956775183935 8.295945899561156 2.6936320610457045
Li 5.482352469027901 8.521973571383016 7.504867944277246
Li 6.908244569053494 6.095520472761898 6.667812750659332
Li 6.065962760376939 8.232372263221874 4.814331149599502
Li 2.9879425950829983 7.790655939533642 8.739784483506583
Li 5.841501440400869 3.43918027395057 6.024447818749547
Li 4.208320752251739 5.579772480435613 7.3431376260163645
Li 3.2635094195398695 7.548303893205583 5.632504552807602
Li 5.253415445241497 5.703259776084345 4.239491451293094
Li 2.8037854670288156 4.473023683887141 5.062120454629635
Li 1.1523951494175602 6.027636692844264 7.0745674960710225
