25
Energy = -36.35592518 eV
Li 6.584005493925272 8.963361629098578 3.7595971201897393
Li 4.542561532432829 6.870412541094272 4.574929184902895
Li 4.662686473779604 9.87129540102534 6.196757364916638
Li 7.761032700463633 5.929989376137809 4.3214520217023455
Li 7.571972478711672 10.797197392644923 6.14416096823166
Li 9.19919236470247 8.438394729003143 5.419088090638822
Li 6.6481397655951175 7.647638108406547 6.123871000820456
Li 5.6844797680843 4.940149669064101 6.858460660513744
Li 11.080546205969247 6.2567906558165705 6.017834354443021
Li 11.51475450306646 9.450628549206598 7.298102398719495
Li 6.652425505325218 9.291287779908007 8.191307098161834
Li 8.561560625629575 5.715981546377096 7.2032001340826195
Li 7.425995378883766 3.946209318090474 9.288537377333823
Li 10.559456999140766 4.103256117051348 8.350510377371895
Li 9.271307930785254 8.177163424776174 8.237601955891591
Li 4.067564336389529 7.293896410751445 7.535430590352436
Li 6.635906155348895 6.705454445512738 9.051779124235644
Li 10.881240209414019 9.064133626819675 10.360125216205452
Li 7.716439674349927 8.989348896721959 10.743090186170116
Li 11.886771742750888 6.7650341372456255 8.72182479415615
Li 4.397351250188594 5.306851907369943 9.754667443225435
Li 9.357190622660179 6.158213130882372 10.290410859050507
Li 4.578186302690757 8.764551588628452 9.971522798344642
Li 9.02404556677962 10.964678873197261 8.79323491683675
Li 5.797092092928019 11.649986425164535 8.854409643497732
