28
Energy = -41.64102278 eV
Li 5.557607790299975 8.107187847482532 3.6301439727870357
Li 6.780229098322737 5.670247230357981 2.2683244639035682
Li 2.734913453074727 8.322931634941241 5.381719459949406
Li 9.17034922639684 4.482682912347379 4.017897911136011
Li 5.00509581254561 10.66854912111745 4.8643976149066805
Li 8.820447334124257 7.609594776862813 3.8249146798081175
Li 7.8891442446276825 10.454299284596972 3.9052645407454887
Li 7.178445589343981 8.721978713494261 5.925091798098653
Li 4.08285333073713 5.389911461179979 4.251906207733505
Li 6.947606953941658 5.766978369292586 4.98484450779975
Li 4.83221652447841 9.682109112126678 7.490364632116519
Li 6.724199859883615 5.967217017028326 7.805909720140572
Li 7.385120862823103 11.263534627634384 6.924790171984715
Li 7.662444085370004 8.481019029601878 8.671439341195622
Li 9.265667797075897 6.506425618589913 6.691629856686028
Li 9.812969146448651 9.48949851020831 6.244589453884305
Li 8.41279071200185 5.043677031170674 9.600657115792622
Li 4.556762844506352 7.332248414986547 9.192520619433239
Li 8.101924691547685 3.5448939399978485 6.68151363937875
Li 4.841366662271961 7.081863441509853 6.367256895086881
Li 5.2116523180904615 3.787017449965044 6.678974478850616
Li 5.093283253260355 4.482966828707028 9.533710323220035
Li 6.249319184102183 3.151047524081651 4.05609925298721
Li 6.734885305545482 2.2756260655786025 8.8707215156684
Li 2.867482100443626 5.239815950135507 7.229091435535251
Li 5.851218762885085 1.1343019505227143 6.219620828456064
Li 3.233375636457852 2.593081241956391 5.172092520605953
Li 3.595326194025652 2.181021434904486 8.198999780667794
