20
Energy = -28.59649601 eV
Li 6.552744966961135 7.3772091730760785 3.815917283471273
Li 8.159345994651417 10.406285896557057 4.893661704131338
Li 8.20337027755982 4.931687314299222 4.460118643579093
Li 9.458428462224553 7.694089405418224 4.418625418182901
Li 6.323533861437312 5.98433253132203 6.257956549797215
Li 3.8531760950860114 6.800921130940422 5.297432737000169
Li 5.265073846909936 9.638162788225657 5.517367879816195
Li 5.286181714517504 4.12314094556488 4.66042280540166
Li 7.579584483717098 8.305197890350112 6.514019101041356
Li 7.413893982283175 3.7267890920384024 7.309913542754416
Li 9.206235191951231 6.141655663979115 7.078078288224304
Li 10.108764038253023 9.168005427732464 7.06782305808659
Li 7.020355267237657 10.408163549454896 8.055961267987717
Li 7.640035898252994 6.607771152360967 11.978827601526811
Li 4.317644888120589 4.908181068686552 7.764258444409523
Li 4.985682746966147 7.9769015899196285 7.842715545334877
Li 8.54455264034435 8.025781683580005 9.440435875182814
Li 9.340709325392048 5.058840440829754 9.796943041708817
Li 5.876192926824214 8.551593358184006 10.566250726679783
Li 6.74801398789109 6.048810494061543 9.146791082263912
