26
Energy = -38.31364049 eV
Li 6.840695088411859 3.589459444531673 5.193576791146014
Li 5.019985441515101 2.1241745913646763 7.081924062361317
Li 5.021226947878359 4.046812587440117 9.820042787980029
Li 7.575699001217183 3.67457806630496 8.190641239148702
Li 6.868923293621215 6.409503938131502 9.406628233116729
Li 7.880308676951619 6.082530763237959 6.533590037828713
Li 9.696299424558791 6.053522683166965 8.794155761302756
Li 8.740296578644678 8.340299314436523 10.84452779853485
Li 8.383017936889928 5.829309298527924 3.7273701570789743
Li 5.719558103956737 4.470372433817291 2.298537632872739
Li 3.89590761727958 3.8559954451885283 4.702049448702264
Li 5.220439565523482 4.995367631604183 7.202487462966189
Li 9.865501610577063 4.283851199034427 6.0520394560246356
Li 5.574784298748217 6.222906976542897 4.504773679196425
Li 4.035952725321449 7.021019594556966 9.106686167537433
Li 5.658863152838943 7.900579898989861 6.994091365319473
Li 7.570931315628829 8.52186740963882 4.938036747169424
Li 10.26844526808213 7.323942788597868 5.913641634001839
Li 8.397609421661365 8.639426925548875 8.007785467186899
Li 8.630485159385001 11.169642246087733 9.299849055359777
Li 3.398522808487827 6.370475632923694 2.8360434554536558
Li 6.123455187790501 7.507892528714049 2.134256104698157
Li 3.1221094655173687 6.657171395353299 6.0198389740069755
Li 6.2266130204940175 9.393473962515257 9.578580385627014
Li 4.616086340942713 9.007747884967747 4.51579056752748
Li 6.609636121971497 10.697905612570827 6.868282863480318
