27
Energy = -39.76418841 eV
Li 7.806479452457831 9.623737419715818 1.982297990606089
Li 7.8856133080893205 11.15179454452982 4.762971064061258
Li 9.689376525803553 9.673148436194348 7.175644632104022
Li 8.605711243563466 8.305489506611467 4.5346061808975575
Li 6.854086364530764 6.614497650587184 2.8605882602730093
Li 5.819203850177369 9.14040835672581 4.116743220099965
Li 5.203499726490796 11.259065393419167 6.356738329470943
Li 6.927290582817624 9.198994288753921 6.846047141285901
Li 8.730875138368706 5.003719735489606 4.990328657830239
Li 8.615194917076787 6.8769825437092855 7.2823859657725185
Li 6.3418478219596075 6.528135439104736 5.622888858362753
Li 4.202015403364376 8.175266823825622 6.625779813227335
Li 4.089328232890684 6.249309888515546 4.1568835134840345
Li 5.9452816016750685 3.7392001053563595 4.77071490425834
Li 10.73265226977469 7.172010563437608 8.974939013799709
Li 9.987190458084635 4.225423706764704 7.750958503661907
Li 5.798120227090964 7.032298389288132 11.25405533394349
Li 5.11104460812277 9.457078406962852 9.203979269734702
Li 3.3969368046808985 6.728324416944781 9.433043133661377
Li 8.227698660614491 2.100631798985606 6.123363737658188
Li 5.967211503359932 6.775441043394162 8.55026549100938
Li 4.278794625272856 4.88838580691468 7.01604697490302
Li 8.090553548791666 8.614455219784253 9.5801262026338
Li 7.0943491232410825 4.242808724458548 7.416904686643445
Li 5.352086056691886 4.221859020430856 9.85005906139511
Li 8.23145145127383 5.510652550820001 9.879581480642338
Li 5.459424224830336 1.9574346673700824 7.459786829806405
