22
Energy = -31.64738259 eV
Li 4.756627769714698 5.408804454641773 9.1064313266121
Li 7.775600847171481 5.916742876394051 9.809845811015494
Li 7.145572092666722 3.666359573016939 7.97764329882701
Li 6.529462873040953 6.258932877611635 7.222396307028067
Li 7.194214688301481 10.642254340179226 4.259623584993034
Li 8.731666729770902 7.639751702580334 7.220603354903873
Li 8.474979650230587 5.2973623906030545 5.486895468324974
Li 9.000998672245867 8.112959445082296 4.466012031899886
Li 7.170644854686641 12.221732427848172 6.962120467777038
Li 6.678544143440594 9.452308675501662 6.721164249345025
Li 6.193050750921971 7.450012829725656 4.705917556982671
Li 4.203359553830543 7.786682903045693 7.07941368618063
Li 5.0368854652645165 10.68228744841224 8.826079013730867
Li 9.960718167457614 5.163606903856449 8.23237457025485
Li 9.988584314271675 5.430122078928823 11.435163531386827
Li 7.92073037243092 8.087681863089362 11.69725527674413
Li 11.259452679279482 7.369004545038031 6.440580931846644
Li 10.058869483054004 7.866476909455716 9.56961419871908
Li 9.52438922122208 10.264519636765254 6.48740480335413
Li 6.202848084774612 8.119220757480715 9.275239959629962
Li 8.095406936927008 10.136789663561409 9.169889089692772
Li 4.932798490668645 4.697217377571575 5.876848040169916
