28
Energy = -40.79375985 eV
Li 7.2090125077465075 6.562415035640306 1.8588269357167813
Li 6.110230567724046 8.964845605148097 3.7534716502683367
Li 8.475169692242334 10.763283116719633 4.51368228255958
Li 6.575285857768761 6.308887488135113 4.547057754376297
Li 9.063795009637687 7.707670924846016 3.95768217940344
Li 5.92676640288863 3.986884623603107 2.787075303639466
Li 8.611517052556577 4.595349834206052 4.232514661027379
Li 4.765047207395099 7.894894135358772 6.199345182121642
Li 8.673668355905695 11.218697481386396 7.459411327938043
Li 5.9110946444630414 10.738133037128492 6.5057617846006055
Li 3.9036239675762183 5.162158622266903 4.81153861339954
Li 3.7254333639504478 2.23863301773255 3.9833981750140097
Li 10.604530682869028 9.204328938675886 6.217494407044751
Li 7.756227892213842 8.690102734172283 6.292903632957837
Li 9.416836656891826 6.429468453235215 6.776700110621102
Li 6.714317675478608 5.798185438249527 7.147753128865151
Li 5.9565583552551855 3.4143015625841997 5.651015349934256
Li 8.468400987022656 3.6100960153228137 7.281469086892856
Li 9.022716305672567 8.63878629517271 8.97593451968804
Li 6.238264807599836 8.078015592973326 8.74795525793188
Li 3.4137894075615542 2.9171232591391485 6.991622761483813
Li 3.9773101533209654 5.605761280174703 7.884924301742365
Li 6.680508803022079 10.680512058304775 9.62468950984991
Li 8.083552156095879 5.819576827615559 9.60322847659866
Li 5.8079244269638135 3.602003466005634 8.821294402503236
Li 7.2973907006442955 8.28789371797467 11.466968697444072
Li 5.180879508769395 6.062431921510052 10.550013818715358
Li 3.102748494647041 3.753205800930188 10.015404770078813
