28
Energy = -36.25997842 eV
Li 8.282359991100016 10.862746195899362 9.269714986639658
Li 9.757189233275522 8.692960228770481 10.463611857316643
Li 10.724294538667287 9.994247771664044 7.92350219893633
Li 5.727127475663941 10.653175450454802 8.12327534829163
Li 6.967042977062112 8.353254019901705 9.48741049273008
Li 8.147365240783174 9.66921149235544 6.640027468224971
Li 3.2039508560211023 10.2177004531319 7.141459399880714
Li 8.552600773214587 6.1050729455531245 10.279171941209077
Li 4.2217603491427464 7.981774621827895 8.599996823348674
Li 9.711904481548927 7.34504104246656 7.853082045395895
Li 10.630484197764915 8.756662093980738 5.310186398741948
Li 5.5794590506077855 9.359564666467357 5.5068230948575065
Li 5.564303509744774 5.799657951848824 9.695604829223477
Li 6.916492606059826 6.957561833941524 6.943699526763397
Li 3.130673449046338 7.863193621888771 5.684323694326163
Li 7.332830939433701 3.622916631560755 10.341688205438617
Li 5.569451543722226 6.79534375722271 4.290695476010198
Li 8.80467370995223 4.673156657737187 7.78817542569828
Li 7.223125813057947 4.516837925285157 5.393148446307204
Li 9.6206819313375 6.067241406946637 5.277666642789561
Li 7.978182044833034 8.360822231596156 4.125320248124569
Li 4.397665109747787 5.604229010004811 7.01261451640048
Li 3.0126391864179887 5.360148065583377 4.373487688377866
Li 6.183419128661375 3.411608314393799 7.831253049922144
Li 8.001972000641812 5.760907124945772 2.831195977895366
Li 5.5159131950620885 4.16188575299917 3.1046119090372204
Li 4.3182666867476005 3.1471412586743504 5.611895349017833
Li 6.64716195571221 1.745650133409255 4.802495401435251
