25
Energy = -36.53271689 eV
Li 7.323603803231387 6.087662625559499 4.570576078834723
Li 4.359466591829642 6.888403977829769 5.145880043299804
Li 9.166322790392751 8.652607950504011 4.495473604675806
Li 5.411877229416372 4.048735960922734 5.739452904010241
Li 10.304725102825946 11.413787884443552 7.960295140539277
Li 3.609916178693992 5.594262181353462 7.798337327435844
Li 10.383939499596694 5.679514670826715 5.018650335125483
Li 11.357100374669375 8.47753553569067 6.683917706372952
Li 6.49400462364668 8.95605710721938 5.7707137221613065
Li 6.199067154158611 6.331474741307858 7.268683656675534
Li 8.300360489668108 11.581888077036181 5.381117856539059
Li 8.381288750083037 4.0918758511776145 6.7783048460893145
Li 10.195553897370548 8.288814358842908 9.431317166132008
Li 6.71953625155446 11.240333860839206 8.099334837544435
Li 8.728270602996767 9.564428341636981 7.151304144045063
Li 11.043070957985336 5.515062438176326 8.08373324313178
Li 6.007893967015043 3.86722753551294 8.754925420464216
Li 4.550705194095883 8.65649839609505 7.987873356961804
Li 8.938451333806967 6.888910557268676 6.9530341777220075
Li 8.595927413995472 10.615800655421221 10.385043435872257
Li 5.458354207394112 6.567115967904547 10.246833595395668
Li 8.284326679360113 5.696698864326608 9.500113929845076
Li 5.733534658261901 9.842573211011144 10.835388069078663
Li 8.048412290571695 7.898240337440201 11.724518914187072
Li 7.251831247455273 8.402030201729092 9.082717777937107
