20
Energy = -28.86586033 eV
Li 7.080329035689401 5.38323076188361 3.5285430383539484
Li 8.831642264251904 8.03129763286177 3.748569705293417
Li 5.879108125891977 7.996571074751252 4.652598162958565
Li 8.006859998246922 6.484988126587815 5.976112163433389
Li 3.284715292801703 7.6734570145491166 6.296963522509002
Li 10.537338352041933 7.806597339705712 6.385120241714999
Li 7.762007185709991 3.620201287015527 6.0420256771795575
Li 5.27180295858074 5.351085697615644 6.012301463690847
Li 7.964808328340072 9.420735561376677 6.336181156532447
Li 10.054335289273393 5.248615569250447 4.581089016520279
Li 5.814994537607627 7.8075653729535786 7.578004399550036
Li 9.845574946082724 5.125204319385329 7.797349216954559
Li 4.055407454728729 5.857540876471558 8.754222567547735
Li 5.043024806410142 10.324264215026936 6.506580502606222
Li 8.633189737140457 7.644978679330715 8.723914161683513
Li 6.988271808221412 5.146337439903539 8.543740625962094
Li 6.831958629325269 10.043837624450733 9.079405389476998
Li 3.837652437651172 9.001170803688224 9.115481082348209
Li 6.251363882874945 7.300960481303014 10.42074512547375
Li 8.866641525519215 5.572386718277871 10.76207937659992
