28
Energy = -40.87861277 eV
Li 2.8070960652672063 7.698265924826239 12.922114871594312
Li 6.713092196819805 8.18117118580071 10.42822020248321
Li 8.726491635917961 9.349837813958274 12.261714230311355
Li 8.011836993479962 7.687886253598999 7.85767287602011
Li 9.105545402230982 9.884906526201826 3.679014112565922
Li 6.479876469919025 10.974724130731278 11.142090749478836
Li 11.201409609082768 11.172324538490658 5.564636143343248
Li 5.152846114917918 7.070136953776965 8.22053998621562
Li 10.914063685746209 8.595515475308256 7.65718979399849
Li 8.685820781570813 10.233755517482225 6.530758852377679
Li 9.727273205461675 7.269170421437871 10.263156065712028
Li 12.63328063109891 7.000851559118228 9.35183091428866
Li 9.523933040408622 12.078198697809853 11.169719438391327
Li 6.638388240882878 8.377650100658885 5.429585101858684
Li 7.310678677574532 5.438420015761585 6.455318433579435
Li 9.48521955734995 7.422164551180084 5.354158991481527
Li 8.823987649515246 9.971926503866403 9.454922944114369
Li 11.929644689687734 8.73497040428604 4.601317050920289
Li 4.805900851442716 6.247890161182592 11.221490173844186
Li 12.702832188627237 6.63177807562641 6.411079281524884
Li 10.165179985041878 5.687879108228219 7.812974147757384
Li 11.531004797731764 9.713111339854873 10.443625669317294
Li 5.695192677921671 8.610800181571149 12.988432925852283
Li 6.080515184246401 10.023394232949821 8.190504848839257
Li 7.405680454408129 5.413511405363706 9.603949763596471
Li 13.369492393754538 9.616627584501716 7.408413019163456
Li 4.071212497763225 9.077395136838597 10.475995439654023
Li 10.870451976721906 11.650109924947419 8.42352253996628
