24
Energy = -34.37527546 eV
Li 5.981227365885673 10.44423933716944 14.000557759546933
Li 8.92810654923915 11.554714766375094 7.484421695953215
Li 9.725880681581948 8.60013398054854 7.712141877952486
Li 9.037831743611477 11.191085170137248 12.572565523843904
Li 8.07013005201762 10.364803690440155 9.98098679697019
Li 7.997741867632662 4.582143640062846 8.996950328690984
Li 10.184825304720626 8.535574982620627 11.014071643302556
Li 10.849575970013799 11.089324183844717 9.635318533005767
Li 12.373704325984074 8.673108259878251 9.036649258467058
Li 7.822196429128514 7.359801672241373 9.751053576945887
Li 7.600684714839969 8.606870914771228 12.410604523013662
Li 9.920062668108102 5.234996065693634 6.584122681453213
Li 11.501913508220456 10.233992033701425 6.379314997650294
Li 5.358788419795168 9.459930083487082 10.883907947512146
Li 9.9825503786595 7.812392920206469 4.8943352642676485
Li 7.577816752540784 6.807886658366762 6.730737045638599
Li 7.8569724440204265 9.721754348201523 5.594767390651441
Li 8.979465723522887 5.820209227103195 11.841980664050473
Li 6.126091784161106 11.997066150169273 8.59848926305568
Li 6.405002973701278 12.030307285059775 11.634693910840257
Li 8.664222422785825 13.205768034702407 10.058147942821146
Li 12.240399511097463 7.160707999423775 6.594004436040614
Li 6.445994573470639 9.171937062806268 8.031313189158052
Li 10.514040039417507 6.163953677468982 9.2416992326438
