25
Energy = -36.35742783 eV
Li 1.8970841792801185 6.82595103222441 8.775433939340479
Li 3.295140088384908 4.200150970162492 9.510699401316982
Li 2.072452510525139 4.646343798999508 6.603997593082465
Li 4.676158765694471 3.266245149984804 6.97884727683347
Li 2.618235744108621 7.450591113471996 5.664196847236731
Li 3.906704240382594 8.882847186552626 8.069510639051193
Li 4.276994671109327 6.090133308922752 7.587586712820693
Li 4.915669468578558 5.362492969246584 4.906994506752463
Li 6.434077856975858 4.147056841561998 9.116009082435305
Li 5.062624154317315 6.732270234090456 10.1625952398216
Li 7.1485650810615375 6.0204131357158825 7.161977465924693
Li 7.353017739242655 3.6756051927371645 5.799930898206303
Li 7.143098303771644 4.456298226747921 2.9549370099553793
Li 5.512353308376506 8.239152559958427 5.52117451584283
Li 5.580969442563739 7.076012211590785 2.5363079778680055
Li 9.381375977859578 4.225613097538433 7.838530141172092
Li 7.739576579217901 6.8374966330059195 4.425660014612036
Li 6.813924636547172 8.431688830141042 8.36388536484028
Li 8.296715633356083 6.378370368182567 9.838852410183263
Li 9.815188351259215 5.030380156977008 4.688502805348246
Li 8.237854030271244 9.29965190708989 5.9243742120652
Li 8.731016512113053 6.701685843510766 1.850644935177938
Li 9.733004808790307 7.078048325850736 7.034580640097496
Li 7.552819562692719 9.283762206247399 3.0336458161631485
Li 10.310797988540301 8.07781059683122 4.090390035204602
