24
Energy = -31.11151945 eV
Li 9.84154705708958 5.548747986526888 11.705304416953307
Li 10.999736882807529 7.62927144351884 10.360040238596788
Li 9.84607242457899 2.9111787826257363 7.4427764877891205
Li 6.609660467184179 10.562708852710626 3.901392169937612
Li 7.229430125434401 9.629996719744904 11.37418303408529
Li 6.168775013237013 7.948662639904149 3.274997241095184
Li 4.835116032648636 5.144688887183199 7.5479051230655925
Li 9.963642402285872 7.326076972897828 7.626910060988552
Li 8.558725445274568 6.302982714835838 3.7304364254077242
Li 6.085728600767414 5.511906657678213 4.9337824520918705
Li 9.870949612213934 10.032332079045888 10.664772842026382
Li 5.47218119851406 8.891825661467465 5.964033939368949
Li 8.299217123657321 8.663156905806664 5.267128370975996
Li 3.941407851180074 6.483147691614246 3.2374540963644454
Li 8.924097589059562 5.034491486009679 6.042176232591917
Li 7.221354293796911 11.219907480072466 6.611435582772932
Li 7.12959884425301 6.903349819377463 7.239562983501998
Li 8.08896524119014 7.13513410016066 9.970076082734748
Li 9.79954648342031 4.8587868766281685 9.145661855240805
Li 6.564810234959504 9.458255369010436 8.761862498927773
Li 3.6605206150256606 6.938826153470332 5.881678077634091
Li 9.213133288591665 9.926166132918034 8.035875779778912
Li 6.061443732932464 7.280360700620031 11.970328132303742
Li 5.153395197564744 7.112761559100978 9.461951661531813
