27
Energy = -39.47700685 eV
Li 7.88241801092915 7.361754837729201 2.9748936029172497
Li 8.295427202482573 4.317464865073581 3.8313156694967994
Li 5.3801834325709414 5.566311402784149 3.568308848609943
Li 10.132510845139914 6.484117572715789 5.031019482501221
Li 2.8888734146799986 7.297682013488509 4.244838481444399
Li 5.571893126639009 8.48852648181763 4.67894337197991
Li 6.049854407157403 3.6797148196529097 5.9116471741201675
Li 7.407919917743096 6.435204001290143 5.516748537539716
Li 8.90813009100128 4.358743979547069 6.855999186998729
Li 8.357743053528926 9.24171462136987 5.493537064844925
Li 3.1214129993538213 4.131973824720401 5.022153967922989
Li 4.5436590114229825 6.244811792853394 6.346591934581716
Li 11.404534579655682 5.295825454851817 7.758293726420584
Li 3.622651270862784 10.399191105938176 4.102778074804277
Li 4.141479555815572 4.035060929627235 8.174999191621975
Li 7.1257005145395835 2.8282162672193096 8.66938168923678
Li 9.11882446341486 7.3533718215698896 7.815496096063626
Li 5.882585524327728 11.035008602233285 6.4052518935932685
Li 8.152801130526882 10.37232518827457 8.4662866130104
Li 10.281530932265788 2.519436839017286 8.51720506525918
Li 6.362734295330267 8.416535195900927 7.544352939123215
Li 4.347949307946855 7.200970370407238 9.207959728142779
Li 3.5442384162071447 9.060614431278418 6.791457838445016
Li 6.593001506564555 5.620442615743361 8.26001158704555
Li 9.086162443654842 5.024838691371436 9.697352881367506
Li 7.275667520899923 7.858469329814715 10.18484184936731
Li 5.248073610404792 10.218281659500065 9.327091985879575
