27
Energy = -39.18679408 eV
Li 8.397468247864012 5.6204394377898135 2.167036524696783
Li 5.697987447128386 6.800389466388246 2.918896464573193
Li 6.339098058360105 4.0599355165933995 3.8952073085724455
Li 8.368603436624475 8.459703389596234 2.9822336439670827
Li 9.602858153469969 4.0441657505347575 4.351494178440888
Li 3.207599251344779 5.418991925958651 4.1011876848873285
Li 10.529213395631333 6.837663754282045 4.154369208535698
Li 7.900100708106176 3.5688326627448212 6.641529452513554
Li 3.436301548137371 8.611672494138368 3.5894873010227535
Li 7.683992454752742 6.310533564755396 5.034555054315863
Li 5.071985761257797 4.343870505917973 6.565036315531085
Li 6.21656697437435 9.161395942132806 4.789995966607026
Li 2.3706318940507005 5.164607768296781 7.198211436332362
Li 1.7719292733392222 7.681477501850561 5.8270816335328615
Li 4.556856304953497 7.058670440939635 5.870655663948349
Li 6.347290633530179 3.065988741191094 9.143418657481984
Li 8.975735781042962 8.560200672782948 6.2372834973707665
Li 9.896978933937236 5.83414511708824 6.9491773317603185
Li 9.240429022951693 4.205446185920087 9.342667209798854
Li 3.8032583468303174 9.889475282595749 6.40696372132882
Li 6.998676098212935 5.840652659069806 8.237948301876076
Li 4.459486734160381 5.2935361949084285 9.512365930309032
Li 6.367656932932903 8.561987321514424 7.664635920223228
Li 3.4394011254592454 7.777036516584764 8.434521799483178
Li 8.900347247104817 7.419201259057978 9.43933324983931
Li 7.132412731611083 5.318879835249131 11.050382235967206
Li 5.862303166740033 7.874387998020419 10.428073274425113
