21
Energy = -29.93104401 eV
Li 7.234857532490039 4.971756146665244 2.607021073721717
Li 5.894481275493407 7.6553742642967615 3.469782341047351
Li 9.115406333172322 7.2264964739975195 3.4580725576882743
Li 2.737571328050215 7.119824556008089 3.7482351374453784
Li 4.741090679055211 5.27500847325361 4.717605072181082
Li 7.5853767586247 8.555845112973671 5.9311684933549715
Li 6.799244903776383 3.0406894831154365 4.901007737828731
Li 9.573654492876404 4.341312081925799 4.49211293082514
Li 9.148277170339691 9.484233023849823 8.334617891827586
Li 9.988977474940969 6.863556729102478 6.353278840558038
Li 7.460878145711982 5.847689426406002 5.282985877250169
Li 4.361942124250321 8.213253280224015 5.913844323000048
Li 5.526143858137282 6.297491115504434 7.478019126464691
Li 2.760503996384601 5.833043485524226 6.896225668367162
Li 4.760427004470184 3.5329341205595135 7.156916916206656
Li 6.059037906901715 9.220763554291478 8.319244957499672
Li 7.685410746069962 4.171452893663384 7.564503033114947
Li 6.406647832400595 7.639105871493819 10.674374818058723
Li 7.98245820166769 6.937975225045784 8.38952177337462
Li 3.7276297445244038 7.55532868322801 9.27143621674886
Li 5.198011095481155 4.964894603689556 9.788053818254564
