21
Energy = -30.08806327 eV
Li 6.111704775172716 3.9859967391723714 4.979247192291563
Li 4.935491903238797 5.577675283695923 9.664863839290703
Li 3.6471632654351134 8.255394872646733 8.88411762426397
Li 8.377504553986435 9.165696942818002 9.425954055726196
Li 8.773133210691263 8.019500631409747 3.4337710584094308
Li 10.641337682758596 9.570585975306072 7.705540571482317
Li 7.972373232328624 6.113452979725343 10.19119469983027
Li 6.267268958223983 7.752731958686569 8.15789029906036
Li 7.95878036837232 11.269143082700198 6.9378900212969725
Li 6.995315898270212 5.1082550080856475 7.474452544601604
Li 10.828570452128059 7.125798340573491 9.980001126125451
Li 9.792600961171894 4.335282263004254 8.358614889101668
Li 5.787452382409093 8.186524093745792 10.960170266885592
Li 5.726697680158704 10.495253990514769 8.896118167964278
Li 4.326972578495521 6.127409786718387 6.664072292509631
Li 8.317058600406048 8.694941410369953 6.111947949092035
Li 6.519243044437762 6.877424542993748 5.077468736992702
Li 9.203257103831941 6.926302723025903 7.849453070108328
Li 5.469144307546789 9.457920607724391 6.010131061649266
Li 8.888350422707905 5.460576079878478 5.292684651597905
Li 10.990479191270525 7.398724066182469 5.554551929371206
