27
Energy = -39.67252099 eV
Li 8.497202682557013 12.096612657066226 7.036396475235122
Li 10.01088044975649 10.44003790358215 5.176105287334063
Li 11.72414882608978 10.887523164027172 7.783744414624097
Li 6.956254263520123 10.092070348515893 4.5650426587147
Li 9.287824343020022 11.27831486601067 9.648696970403257
Li 12.196440939284704 7.977256947061882 9.313473363982997
Li 6.975864340273487 9.879716045473847 7.6151958108481645
Li 11.611450212862966 10.346451350273668 11.186617842913371
Li 9.667591306031769 8.051867658543234 3.25646068362896
Li 9.728321778601904 9.151344960190066 7.921956614703076
Li 9.827244670576839 8.384924262550044 10.579241277499307
Li 11.420489050234972 7.923978086139569 5.863085748119094
Li 7.312044743022338 9.163415932249183 10.38747909739326
Li 8.808526400748809 5.579068348709889 5.316897580410859
Li 6.812289660510433 7.186918214462676 3.5511170632961937
Li 10.258907415563513 6.253822057990365 7.917197132299757
Li 6.361482261945794 11.708846255606815 10.049366321115457
Li 5.7829683531027385 7.46944482926553 6.365348884752364
Li 8.447746898232609 8.123695973560427 5.677007935866603
Li 4.803654262592617 8.868443985849877 9.280154189332071
Li 9.365399055307272 5.775340786514618 10.809690045371195
Li 11.416828217492935 7.554718670957574 12.592134217842496
Li 8.677598188987403 10.613917621669342 12.463405733743457
Li 7.669481297198432 7.066367238905494 8.492039102831166
Li 5.634786581807134 9.565333066538301 12.417514638305084
Li 6.180027757964187 6.722521187182797 11.012839797613765
Li 8.240643727235861 7.736789210331807 12.910042195966637
