29
Energy = -42.77354629 eV
Li 9.437744104733952 8.833107522431524 9.127127179171188
Li 9.214097306143568 11.229534023365852 7.187825179028463
Li 7.435595056377097 8.14988361122096 11.22479083156143
Li 10.339734978974315 8.256418397268645 6.352062959418945
Li 6.81502854123593 10.451254293271965 9.220243925716376
Li 8.61058144899806 9.924403801610966 4.504466168296634
Li 7.747148257437016 6.471713013442535 8.444610324876404
Li 6.222294559037256 11.452587199577104 6.049950356169348
Li 6.5109616268558455 5.192335731699973 10.885881932070644
Li 7.587463731580484 9.039337477000178 6.967988111241456
Li 9.860541528428028 4.994992756847705 6.91403212151812
Li 5.313129676589374 7.600614530259662 9.409646614557138
Li 8.133753339970118 6.835014481663935 5.239132519085478
Li 7.895037904563734 3.3482378608283274 8.75943814572393
Li 9.070057829928999 4.229830040299042 4.011274790700781
Li 2.985076267931485 6.908615711855571 7.285687312210893
Li 7.2267395591672825 4.205438819227932 6.195773185687231
Li 5.744138857007352 8.812148552863922 4.565721337701062
Li 8.860112363962951 2.0054440411820704 6.153037040930121
Li 4.731305777225089 9.365423073811844 7.3220865456092215
Li 5.587619139604457 6.702893635082362 6.409679171271111
Li 5.832955338638141 1.9019266127971883 7.101781201555613
Li 3.0416980714018282 9.898714036955399 5.238552967774098
Li 6.089397202623889 5.45000269974398 3.6690441257068347
Li 5.15078665882716 4.629074214294407 8.334060300842651
Li 6.387028639078997 2.5162484785628716 4.105614307867203
Li 4.283054950835989 4.163802243675114 5.543634825309906
Li 3.4859089635340617 6.712441877105937 4.237278135104539
Li 3.7655124755797824 3.8645740824624113 2.7129712545396942
