29
Energy = -42.10307552 eV
Li 6.1262620421220655 6.125225597879218 3.792610133461789
Li 7.640821813311174 8.74820117367164 7.65329015695698
Li 6.1262620421220655 6.125225597879218 8.457841062296643
Li 3.0931245356364347 6.125225597879218 7.653510020643744
Li 2.7847817544471427 8.84285312297002 6.125225597879218
Li 5.4414987354685564 10.376426462141357 6.125225597879218
Li 4.632687179106325 8.710551459277777 8.748660287220774
Li 7.080714201291693 4.473088349184587 1.7803834422654659
Li 9.109541505354757 6.125225597879218 3.501820402544493
Li 7.640821813311174 3.5022500220867943 4.597161038801454
Li 4.632687179106325 3.5398997364806557 3.5017909085376595
Li 4.215423429299053 6.125225597879218 1.7792760557584344
Li 7.080714201291693 7.777362846573846 1.7803834422654659
Li 7.640821813311174 8.74820117367164 4.597161038801454
Li 7.793642851231982 6.125225597879218 6.125225597879218
Li 5.291909387206113 4.682261167070698 6.125225597879218
Li 3.0931245356364347 6.125225597879218 4.596941175114691
Li 4.632687179106325 8.710551459277777 3.5017909085376595
Li 5.291909387206113 7.568190028687734 6.125225597879218
Li 4.632687179106325 3.5398997364806557 8.748660287220774
Li 7.640821813311174 3.5022500220867943 7.65329015695698
Li 2.7847817544471427 3.4075980727884114 6.125225597879218
Li 5.4414987354685564 1.8740247336170746 6.125225597879218
Li 10.147961965735677 7.6560073567544835 6.125225597879218
Li 10.147961965735677 4.59444383900395 6.125225597879218
Li 9.109541505354757 6.125225597879218 8.74863079321394
Li 7.080714201291693 7.777362846573846 10.470067753492964
Li 7.080714201291693 4.473088349184587 10.470067753492964
Li 4.215423429299053 6.125225597879218 10.47117514
