29
Energy = -43.07787859 eV
Li 10.615340560519657 2.506367107820817 11.740084858192555
Li 7.146015831677597 8.385961587071652 8.801724821026214
Li 8.899792591967111 6.507982723644844 4.707930034006893
Li 5.212187080992519 8.94699465318306 10.63340777461202
Li 6.510131129295537 5.92212693872941 10.366556753737866
Li 6.8305164766716935 8.50602214153557 5.893996908157312
Li 7.590841881670565 10.950944782991712 10.156636323617713
Li 4.721081598471735 7.421104431439185 8.001182809445156
Li 11.931746586094718 7.3408173296605845 8.507848037838144
Li 11.33863199893447 10.17669053552076 7.046817133035868
Li 7.316797151808275 5.724494449600648 7.367113775629987
Li 10.163290425788214 10.597424276087127 11.875049681509484
Li 11.159119170558075 7.476807382849735 11.562934772573568
Li 9.230549879687404 5.125013262723383 12.145015823846503
Li 9.207762595769779 6.373999139646784 9.538087194946774
Li 7.337350533597741 13.169943895418934 7.859488614860092
Li 6.9152953877159575 11.649445775868635 5.1879794738766085
Li 8.422388057682195 10.678193854175204 7.278602640896287
Li 10.220136590798434 4.9368891111374635 7.258782906524222
Li 9.450458442603459 7.86808912025365 7.024263038502957
Li 5.5040763692738475 10.543063237059535 7.854728699396963
Li 10.08353578196798 12.257595251632887 9.029063096187969
Li 8.533167244364641 3.632574310337161 9.586868594143844
Li 9.881422398601496 9.264036326464844 9.465350515187453
Li 9.342684206334862 9.749458509601606 4.704816533288942
Li 12.170331833783337 4.899768108542306 12.957868338833988
Li 8.192632668519465 8.191365107138983 11.623203709383441
Li 11.398347446996018 4.749665524907653 10.173300803667042
Li 9.70523277732274 12.708319299073487 5.907876890256555
