24
Energy = -34.80920359 eV
Li 9.789023455079072 5.110771834289239 10.551621228180105
Li 9.381128154660598 6.410438433160325 7.9618787630511525
Li 8.5542617792282 7.7782306762699935 5.215571584222085
Li 7.834640082670045 7.682277768244752 10.172380231685795
Li 8.63551621272481 3.3502925098961804 7.650775431885488
Li 9.438758630022049 4.81429856539043 4.995215801399376
Li 10.78990243376946 7.99439101172787 10.035051247701825
Li 7.0992563044501695 5.075495302315184 9.330767173803146
Li 6.830680881611708 7.717327699994768 7.467703269059021
Li 6.868363585006855 5.646940804739759 3.430951139409024
Li 8.852850301637204 9.505453923625343 8.023206319255603
Li 6.786310290115419 2.990748698132514 4.99521210289211
Li 6.766592226571976 8.68861778457349 2.6961948401327804
Li 4.693428586555518 6.323594751030902 8.329227645528784
Li 5.334288275064986 9.34213016384417 8.85279051679442
Li 7.089319575959112 5.3074136116074735 6.3586681513200585
Li 5.131516270558507 3.450341130199548 7.612678166947468
Li 3.9708248042889798 6.907824726401612 2.9367665851615596
Li 6.471275522765442 10.097430153555626 5.9084475740444065
Li 3.4730755167619134 7.99395279279855 6.385004013518652
Li 5.704659046132189 7.654635714410509 4.914288073316556
Li 2.228777644318062 5.068706540478827 7.3735479752883615
Li 4.173308691383498 9.758737080322009 3.870502577995761
Li 4.395715751747797 5.195263823867591 5.4469273515467584
