28
Energy = -41.15981506 eV
Li 13.570458321815089 12.889855670660273 6.567791549870061
Li 9.544283526420417 8.520859836388976 5.7546443568601084
Li 9.756253254656412 6.902482311194587 8.365194833401869
Li 7.2878678920811915 6.63922352012003 6.619007384389629
Li 11.710606811827455 4.989633013981922 8.629090049104741
Li 7.042711111847704 6.786454060098981 9.609603104149569
Li 5.69468778109142 11.14385968293427 7.772161164538881
Li 8.258331500801862 4.410533280157014 8.38229357644771
Li 11.837053808247218 10.571889593020277 6.035433944651063
Li 10.138571018674861 5.511897817845429 6.003793488813992
Li 13.459794760205607 10.320776534246505 8.547190000938315
Li 10.705744444679517 9.681367010831375 8.460127144024552
Li 8.521639541358047 11.447932897740777 9.593120290753909
Li 5.075197050104248 8.334151066302175 7.974273282679165
Li 3.39199033465229 9.771693053521009 6.240622385416298
Li 7.923932426096812 9.223354313387995 7.986562689324279
Li 6.105403125694805 9.61974958784756 10.411153182475081
Li 5.109472416749646 5.286595144821496 8.081348015306629
Li 9.10005108865916 8.675889925464347 10.7197638055374
Li 6.5227809819995795 9.380157901904036 5.436910864700223
Li 9.693521645758343 5.750561468022502 10.90030193534694
Li 11.290944057008588 12.382679860322183 8.353167271393524
Li 3.285391068910309 10.101607911617398 9.328581703191135
Li 12.09051108265829 7.7674679160867965 10.083966551820136
Li 11.472655407180076 10.683934458496816 10.945100815730745
Li 12.30149353210169 7.614886817101892 7.079501850287949
Li 4.154002719917876 7.305852812514076 10.432496673056544
Li 8.826203508724975 11.398891648803408 6.472687786693596
