28
Energy = -42.06172521 eV
Li 6.270358805413442 12.014903284990288 6.188750913954063
Li 10.483239001428133 8.769625257669716 7.825960831697813
Li 8.684752801086939 10.019355451258647 5.483712226673041
Li 7.674712573706516 10.137150213111271 8.409095332467679
Li 6.155662794925005 10.33067622542864 3.578651522281106
Li 4.501834966131224 10.583156475354054 8.298900618165396
Li 3.5676588189121596 10.607304339587182 5.34284121685701
Li 5.855518170598008 9.328100051804526 6.1938953219611115
Li 10.323710395248398 7.045667499565083 5.1760536747259085
Li 8.174427861191178 7.614957039914945 7.066495440410514
Li 7.422515477871547 7.648816034693324 4.179602687073357
Li 5.849280645319585 7.7895051395537225 8.928434763519821
Li 4.376515617681367 7.816132976472446 4.143144728280664
Li 3.408736423457328 7.961068696062371 7.077058619691383
Li 8.296388242998042 4.981847553239385 5.662504403527359
Li 5.743766335172592 6.311384723301083 6.2851488101996225
Li 8.715653643207961 7.246220593370721 9.85901003850967
Li 4.440531986649785 5.0687476759471535 8.629624674797963
Li 10.275476743177332 5.493360634238022 7.75511150228535
Li 5.9550617922269815 4.956249914102674 3.808732341450853
Li 7.338860915514581 5.0795945190409535 8.516273551024474
Li 6.415049544465352 5.477980374202671 11.09123156263097
Li 10.824987220479738 3.783057741698098 5.2812373472743355
Li 9.138210793263191 4.118361024311352 10.359200437323523
Li 3.3705742565857646 5.176476059596941 5.646821429624213
Li 8.843950792498852 2.781689353048578 7.532819178747643
Li 5.908639932003305 3.358123777342628 6.550708567449558
Li 6.417055967794771 2.737931622928475 9.601567674996835
