26
Energy = -37.95967799 eV
Li 3.382830356663992 4.80225774735392 9.851667849744164
Li 1.0432840253563636 6.216272906171475 8.227435102784426
Li 5.882462117704436 6.200113731447467 9.918430013396396
Li 6.123890351048533 3.5714630496478694 11.061716684875133
Li 3.754019868285501 7.633523809930876 8.450677209378016
Li 8.451819662980727 5.052732373949092 9.209837647608294
Li 7.175968686618584 8.854259312011086 8.88528507254968
Li 5.81272865204634 3.993529728777581 8.138400077989473
Li 3.496600214467866 5.460128879816026 6.938223806701069
Li 2.143686825977308 7.867328936814325 5.9109097409379565
Li 4.988784375088644 9.709275850367915 6.668783838693494
Li 9.443411074651703 7.018957896451631 7.090827436708155
Li 6.459709643545716 6.762016764271876 7.198018023162344
Li 4.841167183054861 7.3708238400965325 4.978804058457098
Li 11.046985789361512 4.437991872729231 7.370939487978661
Li 5.6712527193278 4.6265031246050015 5.154846508715116
Li 8.323691361051512 4.497316148314762 6.370712654936899
Li 2.9098322071395897 5.2823322156706185 4.118194279429536
Li 6.710716360159173 9.008608570547864 3.2020609172188244
Li 7.6750168703343356 9.188997172834362 6.01741996578031
Li 8.049578613753424 4.086045161385732 3.324007604414621
Li 10.41319636751033 5.674930656168626 4.578943903890311
Li 5.699868276560808 6.075437762507309 2.5302164753182512
Li 7.754681072459448 6.717800348871964 4.469542479264982
Li 8.702973761959322 6.892835479194987 1.9256425327572901
Li 9.821190797549601 8.608780369990402 4.0902010190515306
