29
Energy = -43.12668275 eV
Li 4.476611971887261 9.552788840385343 9.33016602821576
Li 2.6848211025097797 6.858783972499046 9.296022164308381
Li 2.4863340186626948 8.961704113990331 7.149185052096156
Li 5.525883579499287 6.893910224813132 10.30134373504514
Li 7.309151782772557 8.787114686712803 8.607494325380591
Li 5.289160431641018 9.882131763760437 6.307997654261433
Li 4.486266241167531 4.5504588504551435 8.554883801779985
Li 2.7321470967758166 6.037308457957889 6.258076700100257
Li 4.882609121611298 7.364103020674406 7.439124196091683
Li 7.751137580473406 8.15090674748398 5.7736198411097766
Li 8.531544386217337 6.8288641411858535 10.547922754556193
Li 3.3160597873061985 8.448043319941227 4.155647627560423
Li 7.237249818125833 5.781363549372263 8.143883241819227
Li 6.7415157688362175 4.1423302793811025 10.513424921156005
Li 9.464384857141969 4.283779180269761 9.247618709062284
Li 3.4464061693263646 5.283073891647056 3.37990183417184
Li 5.492684884717709 7.001042593528361 4.51554748944739
Li 6.294074776435831 9.569925310654913 3.4312945284387237
Li 7.929607455875413 5.359547434577163 5.248242131570058
Li 7.214349403328062 3.035405995675417 7.606828676541002
Li 5.282519234791868 4.446121303672433 5.726431785232687
Li 5.052330460014613 7.324159167620903 1.7433056350385416
Li 9.770193814835103 6.869724725308839 7.653932836031544
Li 9.982460937045266 3.973010339361055 6.154434688469471
Li 10.343981998255556 6.849787612427504 4.650037293598915
Li 6.327480512224931 4.67726911101 2.8090242648264274
Li 7.970620175035881 7.150483728052067 2.841851184086448
Li 7.4880427811485575 2.5675774750789575 4.595310231113069
Li 9.432957505810109 4.386424559983297 3.0605098309648406
