26
Energy = -38.22115902 eV
Li 8.51809211808482 8.918043419279387 7.459093902554154
Li 10.508720890673224 6.485956538109518 6.681969816911281
Li 10.288560924940366 8.813354389379423 4.6000855847954005
Li 5.71661604799535 10.420419002800287 7.942280081671041
Li 6.319491848171137 8.086964200945683 9.679304197193362
Li 8.4008399221265 7.974052425803307 2.345572060026959
Li 7.816220930591739 6.116873927091892 7.846520072475268
Li 8.862463836639293 4.237683250680252 5.7957548116748185
Li 9.735773596937152 4.228500224083751 8.788422953602753
Li 7.2673524602178885 9.831957730776224 4.8808647861628485
Li 3.8408439834179378 6.8064281430185725 11.038004131534537
Li 4.342197635362992 9.959870493341468 10.881231726506064
Li 5.970980837058242 7.936862727757093 6.678383993844718
Li 6.7920062863993795 3.4321341591092556 7.857393932953206
Li 3.5831952434995724 8.303962393193936 8.611304020149893
Li 8.260377036832882 7.0856875699557875 4.975382017877383
Li 5.5815884852981785 7.484183495841917 3.7770354589293182
Li 4.9074729908094685 5.738418742426466 8.46440254900454
Li 6.063599424151273 5.252937259345062 5.628524166792174
Li 10.417711210092923 5.914295499627382 3.587423793839206
Li 2.1128461088112847 5.627973154668816 8.645842647135545
Li 3.4264249514579954 6.662051822434295 5.997225501072232
Li 7.453133626463019 5.035326725687412 3.0667312243786986
Li 4.350321920972854 4.660067918602451 3.534006306216397
Li 3.862656930783057 3.7478342927152037 6.61410478954625
Li 6.386756159715417 2.6674101021745624 4.767274973459037
