28
Energy = -41.0654685 eV
Li 5.401200749328802 10.128893843841487 8.147053974468902
Li 4.546055947094 7.602128535068531 9.73315043761212
Li 6.7486716443808215 7.716379880656925 7.841566627296258
Li 7.547585376251034 8.771073274420964 10.143854722896902
Li 8.291951660992925 10.193398954076885 7.22286900005393
Li 3.3892257694320707 4.865898561529185 10.896462319404035
Li 3.3621325741162447 5.52708423226001 8.065481074937995
Li 4.113182694404156 7.794054508782663 6.291854457709616
Li 6.285483072189572 9.224934045871057 5.4240254669197645
Li 8.5791785655623 7.543979530578152 5.626552430095316
Li 10.652119051938937 9.242588330471595 5.24114728099
Li 5.856592747555628 5.034594339864296 9.227627313707508
Li 5.981748538781714 5.646200928337495 6.154017455467474
Li 4.0022885732639875 2.669537645167532 8.66189445148084
Li 3.7577110496109434 3.731443374831187 5.9390361521476125
Li 4.630175932098717 9.030776484685873 3.1789435532152677
Li 8.48210348300113 5.337455883471533 7.784915541925017
Li 8.111287588902847 9.597871687328372 3.3918487629600924
Li 9.864924962888654 7.973124068980358 8.152780779055275
Li 4.428001018540577 1.1148081242294572 5.583378275972789
Li 3.7448845862119744 5.8687635732828785 4.012199897053865
Li 6.56675171052869 6.864922909133897 3.652286089408429
Li 6.511333218793436 2.9706539352269905 6.926498862744202
Li 9.71752669741355 7.004892152891807 3.188317986654097
Li 10.984434561514556 6.193065024339153 5.862302413163063
Li 2.8864845161023203 2.742354965526719 3.3909640247575794
Li 5.731056732192523 3.49523867621942 3.95802775839444
Li 8.391698809469679 4.68472052904265 4.913599227053942
