28
Energy = -40.73635424 eV
Li 6.752156243006717 3.0244550030957695 3.3007004836051848
Li 4.6382306956780335 2.266292013413681 5.396718621243333
Li 4.300606003744226 4.77192794260023 3.708972621686857
Li 7.577646420669715 1.7627815056191358 5.9290110061429635
Li 6.895185790552882 6.087475857547718 3.07624066342163
Li 3.3892732862517825 4.832579113914929 6.539111308730847
Li 9.176727552247087 4.166492991656819 4.694095493879838
Li 6.43089453869688 4.546320899966688 5.779745630128545
Li 4.217438988094195 7.39231902812019 2.2833968124702
Li 2.075183574269496 6.631724016703159 4.4043313559964
Li 5.257538260377591 5.791116942200232 8.373013355973624
Li 8.4743380591161 4.006960801663433 7.64313539502782
Li 5.10502951765312 7.280876935768555 5.429670580027166
Li 5.6880219808690695 2.899713958281216 8.153803562562835
Li 7.479000321701456 4.775080519927269 10.14216495534384
Li 8.400485971093202 6.932036363046637 5.279785579344798
Li 3.3068038818266587 9.27230620743453 4.322653060085694
Li 6.33141487729277 9.188419343865313 3.559140386054032
Li 2.7606977612007775 7.9185478008389145 7.089410875994616
Li 10.51042605590902 5.861321098468197 7.149707296881778
Li 7.777869733612429 6.920055371505163 7.99452960142717
Li 5.303399112517178 8.604611796070555 8.233373347636158
Li 7.300748686211292 9.325872736612007 6.258699690875137
Li 6.508013353579595 7.495019043423409 10.688722627361352
Li 9.623895238855706 7.085634935580675 9.934457044133607
Li 4.77240361438512 10.660604691943792 6.313423874077005
Li 10.04265738469092 8.765440407876026 7.210747099012142
Li 7.918428038132639 9.682447165165943 9.154589365890718
