25
Energy = -36.20610982 eV
Li 6.737247996312887 5.815770676250497 3.116116194284695
Li 4.380966994117612 5.827715886537837 6.946471958604338
Li 4.866159591401584 8.245631542429985 4.4872825473848925
Li 8.45753111796371 8.307841597392565 4.246457797950766
Li 8.950411315705177 10.865770065123485 6.11142945549049
Li 6.539333240068636 3.785064396918154 5.514979090093357
Li 5.643277674147361 11.574843899780625 5.249155841711
Li 9.258435057014648 5.420378108704647 5.256317385980317
Li 11.201683329803268 8.032727841461233 6.003199349827956
Li 4.157506738810687 9.281248990635925 7.304504886167282
Li 6.67191987337355 6.565562119050847 5.654411715418383
Li 6.70697856928478 9.384640968888682 6.287328530309195
Li 8.870977101407743 2.749847369901935 7.376460014931907
Li 8.837348133814254 7.604017370359328 7.035496446642106
Li 7.533620760503588 5.089900027658956 7.94966790814191
Li 6.235054590409091 7.551191063621326 8.201147054193274
Li 8.543545304626457 9.586281613110868 8.807499472174218
Li 10.357743777385533 5.539330109492563 8.20271770908559
Li 5.954383138818502 2.9372520950593275 8.414013742415513
Li 6.38342410362461 11.362028955664425 8.22094218654115
Li 5.562596849923813 5.603182658084911 10.072105997975045
Li 8.322174512102722 3.758591178367718 10.167475338548728
Li 8.313531332543608 7.024341841468996 10.15924278084938
Li 5.858221258163716 9.08806765210524 10.30751811358191
Li 7.838377104636314 11.181221437893912 11.090507947660015
