28
Energy = -41.18265423 eV
Li 5.662666935301613 11.436962929753577 8.482039636868079
Li 7.783867576332361 9.236657504931944 9.392791071930903
Li 10.086421114584594 7.383567154768286 10.422361992093684
Li 4.900472411044357 8.544206808099153 9.074343434841316
Li 7.279583371825429 6.200970491247492 9.994393531883397
Li 9.352135108224642 2.0610574400996766 6.955313961103126
Li 3.791535559178344 9.7167213069207 6.566491969696656
Li 4.861502807347358 4.4715169686985075 8.587775340267912
Li 7.631581620855883 4.261305537167164 7.452513699634657
Li 6.69634659362561 9.23941175704531 6.638107297830311
Li 3.0697251249190716 6.545369777127541 6.924419061021882
Li 8.812582724163244 6.97049746535563 7.9157237377079905
Li 5.996529010648455 2.035609540639073 6.6630994948642925
Li 9.890303998853067 4.494415125552871 9.132797930873075
Li 4.6403823198442975 7.542981607971556 4.877796673875321
Li 3.0366076586853903 3.3760070276960636 6.301579539054258
Li 5.954613153659458 6.6976666255153825 7.444069852422594
Li 1.8957153330043828 8.293776387273804 4.5680473215327915
Li 9.44648430603054 8.272765643748135 5.384580963280492
Li 2.9240444315506853 5.507470898485816 3.9272762472784426
Li 5.25458900157445 4.654985688905616 5.6583123311277
Li 10.034278378854813 4.984357438926267 6.079090037744279
Li 7.793914967647182 3.4897464829378912 4.649292435304
Li 3.8876318153755656 7.942216584170985 2.2235726400042153
Li 5.914431201518748 5.633174920405708 2.972526683256913
Li 9.082951158205475 6.116578824499179 3.1345557055173985
Li 7.476894037462301 6.433227945883821 5.272507121244327
Li 6.948287120538249 8.49466168199781 3.4104737582640894
