23
Energy = -33.01440126 eV
Li 10.300495703337926 10.611290020749832 7.297567164794393
Li 10.683019273082662 9.64854013491692 10.268634739021147
Li 12.925086568646593 9.688927550571345 8.188777813496719
Li 8.377401469623688 8.822067751171598 6.030821874238443
Li 7.766861818321203 10.14561254205007 8.607909228082635
Li 7.655029519482864 11.593343877328001 5.9527252762274765
Li 11.530930808755441 7.626974593687922 6.286995319362471
Li 6.4963320318913205 9.409977886231292 3.8082500995795225
Li 12.643838141761998 7.113448091710516 9.204813938250764
Li 9.843075163015886 7.756305405021529 8.46085603575633
Li 10.89458823221571 5.075831623174247 7.99156202953235
Li 5.495011264558339 9.536935145822659 6.513150363589236
Li 3.431783311346633 8.487713009427264 4.665192407929313
Li 10.348358053513493 6.522765449644401 10.945770908842261
Li 5.86577857078251 6.972121885257978 5.300132414473135
Li 6.711949728939637 7.403913440656112 8.086532342588528
Li 8.583643149901969 5.984255697694341 6.274054617823704
Li 8.151488342317043 5.317432574514199 9.229598877601209
Li 5.0086122483887525 9.191563214890548 9.559632102136696
Li 7.719668074272284 8.103582269843345 10.684383548758294
Li 3.856937446499925 7.172405418867263 7.474636337186354
Li 5.84414512691783 4.737594083695189 7.335863139928777
Li 5.302739756361973 6.196313267570209 10.131968418970317
