27
Energy = -39.98816066 eV
Li 8.98964320051317 3.161836021001783 7.63068718988275
Li 6.0991117876881304 3.399796777859692 8.50285631211935
Li 8.369354396813858 4.98948076521149 9.904389187197884
Li 7.614417078215461 7.528050541932364 11.428694954533697
Li 5.680609406098762 6.403832568434069 9.0970725077278
Li 6.533884330682931 3.5795873498603963 5.314144344526994
Li 9.53141239932776 4.670671362502787 5.069082572201099
Li 10.564144603714144 7.100456977321298 10.569026894243105
Li 7.443203463948756 5.503407359163913 6.959556623970225
Li 4.143469271302443 4.910217235856963 6.693298041308319
Li 10.47472389442802 5.7536703705462635 7.796034523290468
Li 8.53166661701208 7.703689769939069 8.795292484206835
Li 6.083041614604437 9.404871419180514 9.37642034061685
Li 9.223578802386276 9.880423877268022 10.242468697526764
Li 5.031095366718728 6.718802104399767 4.937392528162008
Li 3.563145587188543 7.986238122105477 7.325651188715481
Li 11.009058485733584 8.748600234083339 7.978533157930293
Li 2.2960006983133217 6.433455702557377 4.67545800288065
Li 6.336193700597413 8.172703261300953 6.871760077084571
Li 4.378055493724257 4.501975792350269 3.443747580246189
Li 7.220798504501851 6.027725537517408 3.582069382005564
Li 8.989693385613203 7.608969381178445 5.743324085137545
Li 8.273015691183293 10.203588715544393 7.154983002085324
Li 3.67296941101941 9.117204596500768 4.514064397961061
Li 5.190029808910032 10.638514822895946 6.638062787819617
Li 4.716432401442073 7.348606095456272 2.264953256867584
Li 6.678097918567883 9.13884236303596 4.227446838819944
