21
Energy = -29.8086325 eV
Li 6.4415838991453 7.097822159243204 3.662158086422752
Li 6.07768060649986 4.392149139983088 4.708149580843476
Li 8.871199737313328 5.2953747373606 3.5823181662476182
Li 4.015407805402866 8.811562210646546 4.487008292016788
Li 9.420452906828762 8.018948582303992 4.785362782158883
Li 8.73517482450257 3.3182503014617626 5.8282315101696325
Li 6.831890462630834 9.232566296157865 5.484308241021947
Li 3.6262724442591843 6.007093351300793 4.156430166814472
Li 10.829720064762702 5.430108146594003 5.954079459222341
Li 3.6589157496153377 4.110083629447986 6.414850174635674
Li 7.9929031870318825 6.117232978964041 6.3082535401538955
Li 4.355254625173653 9.800493990625638 7.1807778230832
Li 5.1912000920082235 6.86281426396396 6.676311186824095
Li 2.4945310417599376 7.353894120271048 6.977983884781149
Li 6.358967394791658 3.9521669361549 7.678791382932632
Li 7.07353394094507 8.886022191198183 8.227172500495154
Li 4.100523540238352 5.287114575938465 9.092082807350552
Li 9.706608319350565 7.565931186159287 8.003133480451117
Li 9.335810064658059 4.619357833415574 8.503015484545479
Li 4.466736485457207 8.100890875412373 9.497267701943349
Li 6.9661811033261385 6.290670789098605 9.342862043588017
