22
Energy = -31.91313768 eV
Li 10.549681382312228 8.350562767958504 10.852859115232395
Li 3.4056055869549775 7.517767653961198 8.238039615363668
Li 4.981837244098937 10.189040972299399 8.585123875841383
Li 5.173823483189612 5.327174503987949 9.606604613731111
Li 7.6780854878449665 9.970535348149259 7.142052469363992
Li 4.909730161103234 8.115946278100484 10.85553119681203
Li 10.313196959750451 8.75944641089286 5.8138254963169835
Li 5.236501241098484 5.729364759704031 6.469626980782412
Li 7.857233730087761 5.194964376227898 8.041852493246179
Li 10.347737170010411 10.382569289853153 8.556448339441925
Li 9.291395397824715 7.773862219959203 8.463993432473085
Li 6.225593242966472 7.660726629146153 8.458353684494888
Li 5.155254970154075 8.61792424075155 5.8261785772707775
Li 10.440658966097118 5.899289703918239 6.500385726795147
Li 7.793638655709846 6.658607050528212 10.754670755274002
Li 7.737954687406514 9.348196212567645 4.118399050378958
Li 7.685963864201857 9.639609025974675 10.133723092691344
Li 10.515719725594174 5.538486428826593 9.639487903845378
Li 6.190171738327892 6.692977903383963 3.7268151667311327
Li 7.775429876470841 7.28031633958714 5.9756676705980105
Li 9.363482342914134 6.717535146709145 3.7551804093548653
Li 12.124824331766277 7.840265826288285 8.263882549432155
