21
Energy = -30.5128192 eV
Li 8.333914930186195 5.71175297226606 2.499661131725274
Li 5.2428252693229656 5.162754558240091 2.326918761091655
Li 6.7019076159742825 5.4921847405204565 4.561977062718888
Li 2.9754733544238423 6.454300744546776 3.8145521222736902
Li 8.401125145271227 7.731398570816043 4.922253537205953
Li 5.662804703593894 7.999341276849194 3.539535445946346
Li 7.064403848935675 2.9606661888119024 3.6660806593761412
Li 9.227185798818907 4.901558062072371 5.725061821723703
Li 3.2862753932821755 9.092267573268611 5.465329879313199
Li 4.376591689651392 4.001376501511487 5.155196110690768
Li 4.692774852602383 6.812601143742605 5.910645976664396
Li 2.397643717306335 5.475523101539324 6.8372888347478415
Li 6.713045680098331 3.3829798785778924 6.69215660123103
Li 6.296820506806664 9.037718714877835 6.731812521973771
Li 3.9665013378858505 2.3384026581529653 7.560064038439508
Li 9.383538514852233 7.511569981390021 7.944320739676617
Li 7.161427933822792 6.342207778165745 7.108955455500702
Li 3.931629146904215 7.898613286478611 8.303097069896387
Li 4.984615147909161 5.020485299463102 8.262616744478674
Li 6.664767794407356 7.50688985384345 9.479523840512032
Li 8.122046103888653 4.752725600811025 9.08027013075839
