22
Energy = -31.64830325 eV
Li 5.288670110846883 6.085368626855462 10.001924657301592
Li 9.33379264434926 7.615495474487266 7.347514951179835
Li 5.363731313222559 6.361936152669551 4.821139474063001
Li 7.1769744984132755 3.720021062927073 5.515029632945754
Li 6.676293091545276 8.731312332092351 11.481027814834768
Li 6.963030645193951 3.598320924965526 8.892782715646568
Li 6.494042098954952 8.276724573394864 8.869721215566534
Li 9.429427449194037 4.706521279496747 7.361729300014324
Li 10.156570154683843 4.596374466272522 4.312994925680279
Li 8.380527060173947 6.418303515486729 9.918633221780448
Li 4.313966485360012 7.659500851661407 7.292135402358017
Li 7.879522142670374 5.326301998226542 2.5625693437744084
Li 5.445245195439454 10.593507943641631 7.860488443562813
Li 6.84081459860068 5.895657506308298 7.503308180853446
Li 4.5231068137449295 4.498140818114707 7.267073851032809
Li 4.047713367014823 9.041424308394527 10.110472619640214
Li 8.147473961976742 6.245712656537733 5.0904647855230065
Li 9.984871400314107 7.8364020976358955 4.159715419511118
Li 4.635542969324731 9.436913998218179 4.939318339167017
Li 8.426330193685462 10.086024150989047 9.000942770670752
Li 7.082720240267817 8.239017218059796 3.2670646480983243
Li 7.139421900262119 8.802081390224577 6.110958382446316
