22
Energy = -32.02710821 eV
Li 10.91581732488635 11.209873513211736 5.375485529234448
Li 10.625664134728922 9.677845640508568 7.964371505911955
Li 8.680060724900306 4.224332788183899 8.819334691088603
Li 8.903181616748176 8.982668890243245 5.449391827506628
Li 8.11236830716595 6.429425206377754 10.494581501150495
Li 10.325267991768417 8.43784148910969 10.686770893076043
Li 8.122392472740877 9.169939849680198 9.43265669271997
Li 6.428880974455421 5.729013281827188 7.9581751648061845
Li 8.321417319797241 11.129561720532417 7.203071080582671
Li 6.653714264727762 6.990614397355414 5.216444785110859
Li 9.007962472333425 7.210033049358068 7.8133957927681745
Li 5.817239750187295 4.491420487234536 10.653776951091164
Li 5.934733048636938 10.136624017102582 5.351269848961772
Li 6.72548800416399 8.567111006721312 7.333779762110003
Li 7.4499743322035386 9.207645934924681 11.984522975115539
Li 5.795872033264548 10.595094909153289 8.97589286796558
Li 11.465113121312365 7.88383203742898 5.929859682516695
Li 5.6087224346914875 7.599700048870525 9.927260914921291
Li 9.378002869444018 5.4807577885397825 5.990668596981009
Li 4.185322014877566 7.910719920691077 7.079200299287677
Li 11.184291411153149 6.169112587544341 8.582083368799992
Li 9.199364677014723 11.442228930718906 10.262086381814843
