29
Energy = -42.9436289 eV
Li 10.28366319442284 6.459849359328096 7.590559081530564
Li 9.694070332136386 5.764325955574884 4.519336147567817
Li 9.732727918941343 8.700183904029606 5.370363036307449
Li 8.989569890474826 2.965203800065318 3.9255312069634276
Li 8.530599853998186 9.113240216054272 8.216059014171615
Li 7.869773650480449 6.931064206796536 6.439706916513058
Li 6.889431341118475 4.758895274760068 4.602887085929405
Li 8.362124555368952 3.9414727707127835 6.9429821773999
Li 6.821786412484971 9.734186775621076 5.57776174536941
Li 7.502206062860928 7.53383853851821 3.4046928121034865
Li 6.102488572184548 11.059184710001215 8.31709841349846
Li 7.917738725501188 4.903766241574012 1.9161028696725464
Li 7.649759970281859 6.29383033551589 9.403271274550654
Li 7.499343236000774 1.0907003354207614 5.472423340466507
Li 6.5955330129097405 8.867079410532426 10.64949346188629
Li 4.775911131759005 8.969548273442722 3.1079847623796053
Li 5.875138205760879 2.694320997752974 3.238147686174518
Li 5.747510235228254 8.395852727676381 7.948406342970974
Li 6.681464964257621 6.328560436870854 12.33377238076133
Li 5.403691950291077 2.7974205183500627 6.3665344030868285
Li 5.6452529974920775 5.450390022366098 7.346768237870176
Li 5.113256333384105 5.8694998617794685 2.5884384827472187
Li 3.7219753947281715 9.436023092866643 9.4777982516298
Li 3.9335507259307185 9.883682324976213 6.3011989986226205
Li 5.21158080092513 7.299795733339887 5.206490342809836
Li 3.735266000223325 4.806258848967473 5.19113174960541
Li 3.2291852985353486 7.0304763675399045 7.421247156413898
Li 4.750733127055237 6.527745160318337 10.06344297166697
Li 3.4346235634388975 4.138422848731879 8.361266344939747
