21
Energy = -30.56058345 eV
Li 8.743926175867033 3.4890711990855996 7.830190434504743
Li 7.31541732222319 2.9402640639908184 5.0292160777005765
Li 10.054924246108019 4.5463118629540356 5.210759848566319
Li 5.131496032373373 5.022737976808908 4.724692229205387
Li 7.203312336868866 5.888117132180706 9.086939731326808
Li 9.944038158025984 6.433137052618845 7.774923823180658
Li 7.666123891230437 5.518814739575326 3.3287713444320173
Li 5.662360148168942 3.8322886004687673 7.471543333006752
Li 4.941661087749583 6.682370549763072 2.3188225144169636
Li 7.686404968341788 5.520320818424653 6.250738272870399
Li 9.254223960179683 7.641116325759781 4.9974850944493925
Li 5.088841431699122 6.672827086809963 7.251311957496776
Li 3.435545331222918 7.407327595055573 4.9649585875784705
Li 2.8700177402549665 4.912770995890396 6.736636475249555
Li 6.331346162115814 7.757855013101605 4.6960107746348125
Li 7.614096390400754 8.337643196560203 7.335783622936531
Li 4.13689670707487 5.529195067109384 9.606527512294102
Li 7.671941178873364 10.34210109921864 5.19162815980088
Li 2.7068102808135106 7.818255869592996 8.046539140760878
Li 5.017704082093355 9.527203477611867 6.638730539173184
Li 5.479550378064989 8.41532363436034 9.50043332149953
