23
Energy = -28.73194498 eV
Li 7.555899884367681 6.164268680444889 9.187743783703894
Li 9.395160940615902 4.332266137100725 7.424448124345809
Li 9.305127690746202 8.686689430562542 9.159446838468908
Li 4.031928291782743 8.551846079747198 9.037866587641929
Li 8.4197844783286 10.29379939414875 7.1216595349334115
Li 4.379108923366842 6.8581353222704955 5.421521782831891
Li 8.815285698947317 4.959408854104845 4.514331302998563
Li 5.1596899127626275 6.68442311762993 10.935582355254962
Li 4.2904630594437485 4.012662281973441 6.0547391186922
Li 6.203333491265139 10.131687894994704 5.167241559854702
Li 6.6986234956733295 8.947559773076911 10.081351370398984
Li 5.673403836478207 10.857581745557896 8.033414956384307
Li 3.7512880070775516 9.377599229508663 6.375621683683608
Li 10.593268961854886 6.292531416377205 8.929553764705883
Li 8.959731060333299 9.556846047988033 4.409470816681162
Li 6.80589638545639 5.376995461675762 6.5364626403599315
Li 7.147737080175943 7.436270657672876 4.239077002181597
Li 9.125741308344184 7.255936528797094 6.4780174764636955
Li 4.593660900688582 5.675457348571106 8.345331838193335
Li 5.834642917551806 5.021127622272893 3.7706023776594826
Li 9.556655758396928 2.1841559352112565 5.58542076253775
Li 6.801993027220438 2.7685118889479843 5.400424751658497
Li 6.376011784002929 8.099361442314285 7.265140215216762
