25
Energy = -36.20792265 eV
Li 7.763673240793836 7.109317565162149 10.54518608142884
Li 9.39318532505492 6.528341236296243 8.073667087894004
Li 7.6591265162448 9.233149537044152 8.101652211096832
Li 7.202341484905231 10.099792832982486 5.147488159583691
Li 4.856139355532334 9.583421602254123 6.96557964905654
Li 9.716784301445061 3.9891855859040053 6.5074914183621795
Li 5.1772949476172565 8.60726685150499 9.976931862957603
Li 7.77604528390062 4.341809040476965 9.091360296818632
Li 5.2056547714484545 5.585834321826628 10.393259885159733
Li 7.380562231785845 2.0633031932024006 7.096191640604015
Li 8.211667160545117 7.44632576373594 5.681408051537776
Li 7.074337861130611 4.745502854344064 5.9904756729478175
Li 5.0075143177110455 3.9611967361095646 7.8435752812066815
Li 9.060193861423514 5.542460155360071 3.7911077505979565
Li 5.4972423918021525 7.558404793078709 5.1452321557358065
Li 7.04441245558276 7.97672857563308 2.809281666718393
Li 8.194223498444218 2.6702525653755353 4.221441084842299
Li 4.6467900212938655 9.836665464208087 3.6382850093220998
Li 6.377378770620194 6.747481693961235 8.029153740690502
Li 3.607901930492452 6.908960485353856 7.895692223872264
Li 5.2626108578807145 2.6552990774440466 5.027011852260295
Li 6.21014629169098 5.102278332335354 3.3180341064135996
Li 2.666475339666471 8.181917124453117 5.239797124141541
Li 3.9832171658629627 7.080009259051939 2.708111052246255
Li 3.9164011955120444 5.33662701300162 5.349106969526175
