22
Energy = -31.51892262 eV
Li 7.015907350732809 6.734094471559597 9.71707198058952
Li 5.530735672449874 9.934701511768466 8.818307768716025
Li 8.682032242523812 7.688178325832951 7.693567799762515
Li 4.090452672505842 7.211137247143184 9.512708560817302
Li 7.732204600174078 10.00961340181375 6.473496418533242
Li 5.207670584295583 4.3589639165798975 9.676870589337225
Li 4.976525300340473 10.294248849788424 5.741633699307714
Li 8.125284964181962 3.568689354389952 9.140872744029668
Li 2.9931657569880934 8.586351090869385 7.1116477875349675
Li 5.687592433471037 7.839385215786091 7.209556348026776
Li 6.857552354246663 5.110246618411636 7.337491244161722
Li 7.073516776231974 9.352236704531972 3.76902206328447
Li 9.743537207868384 5.220272472990578 6.920801271887708
Li 7.39484801701009 6.960092196936249 5.272400268974236
Li 4.039279869130425 5.467363853528455 6.9391005238688
Li 5.597123231993455 2.597187544965018 7.373025357178499
Li 8.256702616717167 2.837838865435268 6.098771995463627
Li 9.783202338696503 8.035364330157515 4.722854265267841
Li 4.638714524660844 7.375167943891969 4.5447004945421
Li 9.023272151935824 4.990231086945736 4.11737822118239
Li 5.930299911593824 4.505670778316261 4.6862029387992195
Li 7.008735333911911 6.619419835586729 2.514083239023873
