24
Energy = -35.02075936 eV
Li 7.067828492170514 8.211766678635003 3.7637197468549717
Li 9.731166162550316 6.460453673503775 3.741278044849949
Li 7.733977767151486 10.433542791417612 8.882735955566304
Li 9.3942312204975 9.03137081840386 6.05712409285813
Li 9.874134371516309 8.25855746878946 8.987054547058385
Li 3.459854632382284 9.286208383086196 5.505142364534378
Li 5.366818225486751 7.365942343098724 5.912470591261673
Li 7.230262827022353 7.873701715966827 10.653574392675436
Li 10.682759837462799 6.332401673662314 6.745020742973338
Li 6.416419217174225 10.001959143866586 6.1179760249385735
Li 8.10483993737358 6.584514869732443 5.81973370904925
Li 7.283045293361065 7.948717528663103 7.941643850256186
Li 8.346125028802007 5.503119043100276 8.644113656556678
Li 5.9904853016212245 4.813472256987888 6.639736598847406
Li 8.646286371830945 3.8687050197354593 5.944599046041314
Li 6.584306493562564 5.158949406502117 3.7936027107897874
Li 4.078214297701062 7.064868577707943 3.5075560935459227
Li 4.7428898707908305 8.964632116966152 8.40343912972805
Li 2.9682963949455874 6.464477733249436 6.753852865526153
Li 5.286404966306584 5.9438073564711225 8.993831489766011
Li 5.840528049307938 2.354915537843867 5.4629621618035085
Li 3.7412983435087495 4.447779529202105 4.741443308858633
Li 6.64089592832263 2.9431222292658097 8.488943763754303
Li 3.7262046640408077 3.485865557837134 7.575971516378147
