27
Energy = -40.13906102 eV
Li 12.250997212939755 8.869356410486784 13.192806081914382
Li 12.732221349152638 8.059461079087995 10.094244524779715
Li 11.456717869528998 10.075520201598307 7.99142119829146
Li 10.557399456545767 9.782745990430056 10.96439874465901
Li 11.963791724099949 7.355277681052231 6.775343596400469
Li 10.071046205822764 7.638841576054734 8.899008062312697
Li 8.613925350545586 10.071033262899178 8.646934328168115
Li 9.408099845008223 8.577574181532782 6.1755327256380745
Li 10.41998713445011 6.996958936314324 11.798005527013036
Li 7.766292570730807 11.03590509602674 11.214993466355192
Li 8.938453253902612 8.97881131810945 13.394097897734298
Li 7.88044100831208 8.190089100801103 10.813297024874403
Li 10.137933562084916 7.015657899032346 4.082336792286496
Li 7.232179713998304 12.433598319876394 8.382545837813819
Li 9.224474097819451 5.673326222453656 6.79998170063049
Li 5.814098835769498 8.881574290853505 12.471168811131804
Li 11.473034417669627 9.693234778369078 4.717977804650251
Li 5.745624552782111 9.67419419220725 9.260925959606066
Li 7.412525449138363 6.3161486832343465 12.71528033483069
Li 8.365817580312918 5.483814216637165 9.863903045356038
Li 9.311035746621307 11.446989045012895 6.194585524792337
Li 4.639582079587519 7.653833189999455 6.976053307691749
Li 7.264762383784578 7.499351490727598 7.936019244391199
Li 5.5017543853432525 6.740164909120782 10.169760817646841
Li 7.069897381034981 7.175267826002554 5.046467490134465
Li 6.665635036864967 9.898443837809134 6.3856192425670875
Li 8.512154134846332 9.595795169416133 3.7382721143088773
