20
Energy = -28.68881055 eV
Li 9.200079106879747 8.663547766679494 4.610808552509144
Li 6.275703676572426 7.44631318758057 4.4574271529402605
Li 6.625657458124237 10.535205465033917 4.896573942830471
Li 11.530762158615143 6.620051536719583 5.38548545939693
Li 5.742050678083006 6.216727080711713 7.184522192694004
Li 9.169735134537852 10.948470476748167 6.708273989723865
Li 4.5160385645712635 8.929015653489579 6.565380575360148
Li 8.64706730795133 6.0904406596149 6.00876308004961
Li 7.3243375443049485 8.664785553205702 6.790670596145031
Li 7.632164915291698 3.9334384277710064 8.063247841518361
Li 8.050322047725608 6.58284116402226 8.842821073259278
Li 5.852388197189995 8.457044499769227 9.380379481458126
Li 10.219901432496924 8.146753944528445 7.41681555975313
Li 8.598308213169004 9.525070147447032 9.373028285668871
Li 6.365922892051209 11.065923503153366 8.033752300727134
Li 10.556516907033732 5.30100834569039 8.168756237365065
Li 8.821110277699253 4.701553359747608 10.776983319238134
Li 5.905208977455368 5.411086624870248 10.176514068150885
Li 7.799329481644045 7.637769000611526 11.509245511676038
Li 6.7121431666387075 10.66770174064035 11.19529891757087
