23
Energy = -33.03381603 eV
Li 7.52425045120986 9.788863063507602 8.469309162028214
Li 6.365763690949476 7.520510005358522 7.336781868925762
Li 11.05720247009102 10.134312825679913 5.120907240557947
Li 8.868173439698007 8.8735051318352 6.1441140331881625
Li 6.0933107323838644 10.119761143051745 5.943211074968043
Li 11.284805122205425 7.511285624102045 6.943287005803938
Li 9.890876881705319 7.382428180337146 4.038514026390367
Li 8.311032879010698 10.031130976058657 3.672836867864365
Li 5.4307978531414545 5.4846347351490214 11.826334538632723
Li 6.273879778496588 4.555995553136214 6.9496661764193695
Li 6.4013012617610086 3.331788344505888 10.038021087065298
Li 6.490098648541636 8.198992787997451 10.668494480861211
Li 8.614079209014088 11.742489266017525 6.3521220240175404
Li 4.573373536687585 9.358825075705727 8.441185354769528
Li 6.981040336366294 5.79872842005283 9.424013545494267
Li 8.423279345574425 5.505761578141486 11.625261404636229
Li 9.236340977752453 7.501614651709733 9.113172862103463
Li 4.319760675468193 6.0328827365409 9.026844804215566
Li 6.143743711792034 12.131272803592925 8.374473415793643
Li 6.835736906728919 7.354595686194605 4.583822618619491
Li 8.715753737932591 6.089820512889998 6.540430302588377
Li 10.424983609591898 10.159918746437185 8.26457484701767
Li 9.259560075921053 4.379959418601666 8.87580371242508
