20
Energy = -27.96816082 eV
Li 10.443614823331291 6.719622289328806 8.72440969346456
Li 5.539421109922382 7.53473053933196 9.462814646504146
Li 4.101496897035527 8.508829025461592 5.881383465732316
Li 4.985776181354169 5.82856880693818 7.107267575773921
Li 7.026832713512882 6.38967248283188 4.97675054947852
Li 8.261827029877972 10.78682354953079 6.9278339569872625
Li 10.847811369917823 9.67915967399395 8.218628978620822
Li 8.309813599050944 8.764555360759132 9.053380358711646
Li 11.022285346495744 5.64894286343127 11.351636919740502
Li 7.744481933174702 6.0888849993225955 7.8891782053808
Li 7.049607597669146 9.330198297917851 4.333774478305152
Li 8.752854476043568 11.367334684093928 9.925541388826323
Li 9.80091650585623 5.0725196125064524 6.205602939427949
Li 6.474204463279905 8.46171824619332 6.88554891778362
Li 10.334886923601868 8.675604535062657 11.053260880428093
Li 5.880272045794125 10.46059409718452 8.83511444824111
Li 5.453220518032688 11.217896659026696 5.999953029133093
Li 9.308926283209997 8.012564100678167 6.157292796427694
Li 9.406894992983169 4.021761405191159 9.19117227790466
Li 8.217220737112367 6.392384318471411 10.781820040384025
