25
Energy = -36.08427 eV
Li 9.34968441499192 3.6391480783293626 4.139464749908108
Li 9.538291628005872 2.7680439374542756 6.946766205318001
Li 10.47548926902797 5.582325510042287 6.19816138178071
Li 7.00236138332291 2.3384498380606944 5.317198988641673
Li 9.44069692211601 6.4359009526596305 3.3494782069971474
Li 6.5969238218245625 4.7639869159461785 3.2483674908660665
Li 9.290496737853045 4.981920942932973 8.952695569166103
Li 7.646477838117941 5.547928765945687 5.674785592328996
Li 7.875404977320734 7.24185703511748 8.068612437376832
Li 9.120101721345069 8.263845823237219 5.661618894987468
Li 6.870198665913944 3.87407536463726 7.914008482496064
Li 6.252237665486539 5.891972898706822 10.181140829498435
Li 4.707658228520184 4.136785221275571 5.77080997734504
Li 3.9368909404366312 4.1017729397534 8.78239389391224
Li 6.857249775517848 7.877312074760759 3.697655880597705
Li 5.090701168508714 6.333479519901866 7.633929925285066
Li 6.083427943137855 8.70996021257792 6.292605427372791
Li 4.353021074200751 6.836374019354903 4.770729603841717
Li 5.601996501862705 8.901552379696255 9.222667347627299
Li 7.3496238536129574 10.655911013932613 4.929549249037455
Li 3.297919037370326 6.958487279526157 9.699038199979077
Li 2.3530692086899285 5.950267149087269 6.939000132922321
Li 4.411680253703269 9.932172949931797 4.463785491226109
Li 3.3604001437617557 8.8282550108117 7.144967131404047
Li 5.1968246165902 11.269909626798958 7.138433839155865
