21
Energy = -30.35007028 eV
Li 9.931699824874212 4.415009094066741 4.474461789970317
Li 6.707117948845275 6.584940089271693 10.848959055422831
Li 5.440109741796574 6.543103136972707 3.7519978883125793
Li 10.161101633480488 5.868385311126684 7.167115544688361
Li 8.730389498073182 8.539382330849877 6.773003981338482
Li 7.673454970920145 8.653114935809148 3.986604955938463
Li 5.856449629933248 8.071839005036274 6.207134659826958
Li 9.31995191249584 7.755686257910288 9.650075891762777
Li 4.5133206380606845 6.8925283006744795 8.595819456412501
Li 3.1747373862756163 7.273526340727393 5.760712484371758
Li 3.9033398267359023 9.852728128213572 7.2596445482914875
Li 6.600874891331889 9.083781063728638 8.86892854803027
Li 8.179267481896046 3.685980827417113 6.8732115222093295
Li 5.313430452304118 5.064338318710409 6.344368509433948
Li 6.64758804074574 10.774355010195746 6.212809505068375
Li 7.854123892448696 6.05771800292215 5.336970156626965
Li 9.00335126425133 4.621540518225091 9.755878381877015
Li 4.542600527929241 9.604770390943061 4.286661989760708
Li 6.862582124850874 3.7259218420128453 4.122853634557752
Li 7.390910098744639 6.3407818653314925 8.197852212501042
Li 5.946828037316971 4.140661982082329 9.136797701091663
