21
Energy = -30.40857663 eV
Li 4.94529144605875 9.881579056025771 6.105352303823161
Li 5.461664832332333 11.01317603260086 9.050714343563293
Li 9.560249322105221 9.612621348040099 12.064782998165047
Li 7.642936553759925 8.738735127198776 5.054403341746084
Li 11.105313682414534 6.606837054655997 8.19937603875786
Li 6.839077473620226 9.012436008877538 7.846519182888133
Li 10.484435185779985 9.55741118942573 4.567956557335279
Li 6.108621718664522 5.619533847549612 9.28170299718295
Li 6.790392292902765 8.397342087580691 10.587642474329007
Li 9.014785320612866 5.517771147470874 10.418276653353773
Li 8.18313606875784 6.708408892433472 7.968914206137272
Li 9.443184238674114 8.194576085651866 9.811973532750066
Li 9.640005868022053 9.0170775967985 7.113142178352835
Li 11.539005380840383 9.802883810831688 9.31791557395984
Li 8.54830722280802 10.757613720837465 9.406200077979051
Li 8.169535235669526 4.158377107581125 7.400318590556992
Li 7.960798569086358 11.30743142251717 6.4333842978062945
Li 6.011442527254856 6.5408833099051265 6.340007763017956
Li 4.357772676821091 8.120858983451477 8.554631969490666
Li 9.450438366559561 6.530571200425006 5.4867321969838425
Li 11.620560702884214 7.326736294680071 11.242621862420286
