28
Energy = -41.19069644 eV
Li 2.8119447803375297 4.8887793080146995 10.36855312054252
Li 2.1000912748689737 7.047593465064953 8.186530100559896
Li 5.708464784737455 3.769130918700515 9.495476799409987
Li 4.8708334350373494 6.6850900944472675 9.281432747545999
Li 3.6653336295657546 4.608028041690522 7.528722783979424
Li 3.7906925108508034 9.512992892764368 8.505701051606168
Li 7.921479073979441 6.4695301673499515 9.651917088348856
Li 7.402955753244521 7.787670764729261 7.178078158622125
Li 6.555766674268866 9.286393714861198 9.304304730790957
Li 2.219458754717656 6.249112650843987 5.291698920401845
Li 6.539354386815077 5.310715737017332 7.278559850074904
Li 5.08616582479148 5.266462309159637 4.967972095395396
Li 4.49575349423586 7.538599558829787 6.522015676014109
Li 9.477750252403172 9.315403620763599 8.2496968243799
Li 10.317660139677903 3.500887696282898 5.839089985219363
Li 4.087362039697412 7.75175822890995 3.480886419758535
Li 7.163285502435021 2.9935040577793766 5.589941145839593
Li 8.616026828826962 3.8349907667850616 8.163996342082712
Li 8.431499471960928 5.569332438177261 5.059739047286524
Li 5.9364444855077565 10.124573426412477 6.318964144086003
Li 10.004849312623135 6.396156859684598 7.324735518867486
Li 2.5505433867589784 9.280041065667316 5.773772783964081
Li 11.172122725212912 6.108221179880171 4.507795186190622
Li 6.587866463842249 5.392232898924703 2.582875005255479
Li 6.740354977764096 7.724415060328191 4.445026439181239
Li 9.311750135845504 3.971999686858639 3.060348498629466
Li 9.455420869696509 8.590052703079179 5.296160374644455
Li 9.041816617239519 7.066488851679045 2.6033191998932677
