26
Energy = -38.35113071 eV
Li 8.832343885131962 4.381691013608343 10.986536578692158
Li 8.779556506415732 7.392572099992397 10.061886622012297
Li 5.764987830656828 8.267778468239209 9.455843801515417
Li 10.321040093244484 8.087584237914479 7.4246937085279585
Li 6.589493781325399 5.410308732357458 9.409345094472465
Li 9.325119714816495 5.179830616910384 8.125078750814579
Li 7.632861872849449 2.873306792102993 8.498183663173043
Li 3.556208739590912 5.995194482941039 9.50221184531021
Li 7.625753535598265 7.511657495882707 7.381612764433363
Li 5.466243652031045 9.32585341885635 6.500168039863158
Li 4.568191280447206 3.7897791275794384 7.655297253139101
Li 8.094780512726459 10.017338240878184 8.276378834917505
Li 6.950343058682994 4.801013641567094 6.3307883306536565
Li 2.183021753682525 5.578282145612452 6.532120270544874
Li 9.122976581906165 6.266577387755741 5.138298537231548
Li 4.887887254785625 6.545652272594887 7.178270663015489
Li 3.4083622544627077 7.674242530719695 4.71205088156792
Li 9.10702132393749 3.218499916624688 5.631232739682693
Li 7.18541212622476 4.699838303700385 3.4207459663588997
Li 5.504313222047813 9.485965082918517 3.305909465335143
Li 4.313881714505962 4.906536272888726 4.697069305373211
Li 8.274396146589522 9.252018373763537 5.146045038401792
Li 1.8024987049627277 5.640735745965095 3.2934989337862604
Li 7.74377427500476 7.597021973456711 2.4049902046504172
Li 6.2894425343094085 7.185240521940394 4.658139375617522
Li 4.728958195136833 6.699082173457888 2.2571655503078314
