25
Energy = -37.00017409 eV
Li 9.244116499501816 3.5389308807833677 4.381487017672758
Li 6.331168737257772 3.1227713465233315 3.6786627811669295
Li 5.4207415470403575 8.48527549424613 3.6345484866779825
Li 6.359608114182997 10.390920416238814 6.021439565555079
Li 7.476938580382697 5.950916533664464 3.460926522921862
Li 9.597016592174201 6.46500632794753 5.672350804051206
Li 9.566536955990985 3.9553648495618416 7.410938344618377
Li 8.513432446588094 9.002201166106342 4.161158242746379
Li 7.202042344772038 4.5424814420111455 5.953740084569354
Li 4.70492360857894 5.667066967870337 4.8349900783309
Li 4.058679937320774 8.364347870033447 6.419707014824573
Li 6.756664848450383 7.522433014474811 5.805191557012692
Li 10.777390490567685 6.911101337359844 8.498872337344311
Li 4.368327211460028 10.883881857852398 8.40242182749442
Li 7.514924060269068 1.857456728891605 6.3001141806458785
Li 6.1650221956910105 8.765308844971266 8.46066683487208
Li 8.040232290734123 6.405016132438247 8.173926159133615
Li 5.185058171582948 5.933454646334774 7.773944498231813
Li 3.6668045874321544 7.990438525664071 9.514092903556618
Li 7.401296118666385 11.283402446177039 8.815154135815106
Li 8.97061022623445 9.0494231086789 7.170406592965841
Li 8.5695843410225 8.633907761452729 10.074587702767289
Li 6.88117232788412 3.8018427033861952 8.85490174629944
Li 5.770110579264626 9.799762597678583 10.944353766346879
Li 6.327404977922335 6.54709479062537 10.451224605350784
