23
Energy = -33.10772983 eV
Li 9.470353471969254 8.73741020462308 9.39485236730445
Li 7.0049685918995 6.566564532015827 9.939250602232649
Li 9.411062764399144 5.993302831494544 8.27175111297474
Li 6.7160477167351225 9.783927070784296 9.7565196865281
Li 8.374036792770147 10.640430301482581 7.300211208559803
Li 9.918277230191933 8.161336259521866 6.37873126587201
Li 7.191520024422739 8.035375622695653 7.620854859229188
Li 4.452519233261533 7.820691005641899 8.565553940205366
Li 7.101162223363423 4.077725616437747 7.902047874314082
Li 9.193149351289462 7.291141604266457 3.590399690918879
Li 5.370344723732485 10.28310760280668 7.0028026754132116
Li 4.512135783029442 4.881641497610968 9.324180452592847
Li 7.905508289937057 5.980346342817263 5.674816689670819
Li 8.415261381995185 4.434057628705252 3.2563062680531356
Li 5.182380612634621 5.717116443053422 6.680442237720145
Li 6.997064804027878 8.841778739580178 4.977823053908445
Li 10.536910092342225 5.209273617694595 5.50603504577033
Li 4.099135286042436 7.884851956169527 5.412157180013671
Li 2.396396678103961 5.75388852312462 7.137047697492913
Li 6.191117587014392 3.5220665162659324 4.97842335192539
Li 3.9635928001006078 3.130336470487717 6.948834739964964
Li 6.016323952869651 6.228404022243758 3.6102595624497202
Li 3.465642999838128 4.84212539474199 4.496419998497142
