26
Energy = -37.56843814 eV
Li 3.3318136990579537 5.7685116922745925 4.863344593752688
Li 4.157619568621378 3.218595206366542 4.120301114057009
Li 5.141748831126622 5.251276486842018 1.9186019118699764
Li 4.157896535972907 7.928785725632398 3.1977913246650584
Li 1.8318174115513193 6.423660950852908 7.372504773248641
Li 6.967495254438461 3.1450080053707894 3.456863313354927
Li 3.2469877004786265 3.6569613685382905 7.103675547020362
Li 6.274223072793838 5.998911814181648 4.361653987620257
Li 6.924469606562076 7.9376767885558435 2.2205516745402183
Li 6.263649643797765 3.8643152918844894 6.280699340451572
Li 3.87790458071559 8.444143471993794 6.212715644007097
Li 8.361578686615983 5.378183140825082 2.3370416304309285
Li 4.844253656147362 6.124646989029124 7.42665139251231
Li 8.997097844249934 4.5244184551398146 5.34229076596656
Li 3.26335636681771 5.201291636113334 9.713891775928689
Li 6.554911036240798 8.782889573428728 5.14082806542623
Li 9.132066813424258 7.399218550357922 4.447169025030555
Li 5.696068055342787 3.608544354490046 9.061723833669337
Li 3.680281443700934 8.101332972994863 9.217408963166935
Li 7.745428958525007 6.717115063179434 6.962656694568877
Li 9.188596707293245 9.256918043800534 6.859729375139278
Li 6.409030255665031 8.944089590210316 8.167381561053007
Li 8.571038279556642 4.590748205697886 8.502414965792319
Li 6.313063866973505 6.383603519975337 9.88597057116127
Li 10.634567017081189 6.515161931953099 7.067188641077713
Li 9.08501602533194 7.588723580332525 9.367596784882469
