26
Energy = -38.13103972 eV
Li 3.2207201583237097 5.319689600480924 8.336198886523304
Li 4.017768403497137 4.6673598390771955 5.487383856983032
Li 6.013318055615209 5.550812180076759 7.589588465370112
Li 1.5948635239682465 6.372104239062995 5.9183820136181815
Li 2.1771751675823117 8.310693478386574 8.345144102557542
Li 4.114152912229029 7.543499109357794 6.547290256075229
Li 5.083766041149142 2.830170188148711 7.6457763553499705
Li 5.43671118370082 4.624392217846389 2.8194251466169264
Li 2.378732388382006 9.390181077654987 5.455694280374553
Li 5.068477614743124 7.635989996760516 9.370497487406519
Li 4.49954195705469 10.14878935869913 7.529829563111353
Li 3.5766447238512384 7.053668528981054 3.640812749576334
Li 5.056094726922504 2.003771315270736 4.571649925450389
Li 5.424410010749678 9.388580559349222 4.6059338251633575
Li 8.241066769384934 6.468058074619669 9.208014177998031
Li 8.103759323711838 3.5483820678090954 8.118781665655053
Li 6.965319577890371 8.286917056240371 7.0383486456932145
Li 6.883713926918496 3.8215867489938438 5.417762961133236
Li 8.677102529882788 5.9245811952827685 6.318277975031541
Li 6.222726905653252 6.5905653501549235 4.751544211585543
Li 10.832949863949567 5.1805826602561 7.862155007396261
Li 10.119195769155695 8.086588589670505 7.205205077881031
Li 8.59186226307459 8.20040109069631 4.397477409032058
Li 9.797194139437877 3.3893816529665757 5.4977290878919325
Li 8.46317567650168 5.257940664754082 3.372503689212718
Li 11.035922631821316 6.222519137293558 4.9508992771560365
