25
Energy = -36.75188439 eV
Li 6.710284402275722 7.672832509824737 2.8057358535467505
Li 4.4740265523114155 6.617421569979065 4.826326282852374
Li 6.969151076683211 4.81004536749105 4.030184011941884
Li 8.642777166273664 9.491266175684606 4.430370494034589
Li 5.484743941270297 9.584279726986228 5.111772315928973
Li 7.258194681015841 7.3169205122434775 5.444213658781589
Li 9.046130829398805 4.903746757708765 6.182956863441918
Li 6.064993714489899 5.112785976139824 6.8527886594224094
Li 5.071509857030599 7.865679982592273 7.484347052694508
Li 7.147740869295902 2.5706138151131315 6.227027213285279
Li 9.583947580205397 6.557572706197739 3.8350669181629944
Li 9.566749547074808 8.587500188050878 9.55079630497196
Li 11.89300670396763 5.4815962854057005 5.647122405141717
Li 7.606558374979194 9.551446291292798 7.360070205415335
Li 7.703095199566934 3.9779422051791054 8.853226394418988
Li 2.637855901862729 8.702510185672374 6.462923139574706
Li 7.809028280852454 6.857673988918938 8.32436722946921
Li 4.7392017438869445 3.1337803647024054 8.261751635580863
Li 10.55054352859323 5.672047445198247 8.497095354430181
Li 4.593600182958894 10.530810757939848 8.003245890516425
Li 10.080671880746838 7.715832718186313 6.53070336477275
Li 3.0895372087164747 5.7689937211535725 7.560899682357929
Li 5.199409696590957 5.804344603247128 9.627887327324883
Li 6.282315467063563 8.77759835973679 9.97629513213632
Li 3.115713839182421 8.255546011648335 9.433614836088994
