28
Energy = -41.10950174 eV
Li 10.972619295262882 5.783542301815148 4.419134918410023
Li 10.398944550011683 4.074099281536314 6.85190255446534
Li 10.34415331252944 7.237629156973494 7.134460176374834
Li 8.760074880423915 3.2605722164740487 4.269720643481115
Li 8.524512710627809 6.011134541884337 2.6596694349907013
Li 9.205969283574891 8.387550235754981 4.546672177017207
Li 7.504482051067591 2.9165991588912057 7.186634070347226
Li 8.41227057880463 5.645916946924962 5.4857192702837745
Li 8.188866725908381 5.528418632536626 8.446578453522317
Li 6.01976009849602 4.498585398211182 3.638114734479079
Li 5.710252601752035 1.9745268046636164 5.010203796309966
Li 7.462949147557762 7.951734383737005 6.971923860285107
Li 5.692055427574799 4.160515471157396 9.431328056615376
Li 6.364602752397724 7.366055409701285 4.294297802500366
Li 6.3331049603622285 10.172375001612325 5.385894188989883
Li 8.365302245353247 8.301231300964115 9.59952444843698
Li 3.147325704169119 3.4119822558708335 5.236454961757227
Li 5.664201850289772 4.969764442848436 6.518229855281752
Li 3.847148390003799 9.067255405109444 3.906521942880789
Li 5.786180487600794 9.909562513614922 8.431315776515026
Li 4.533898854861165 7.981964228686263 6.479381556885923
Li 4.358605858273663 2.3270676364588994 7.605226797205751
Li 3.659187370530871 6.12714327890992 4.4523703926447205
Li 5.650572921545377 6.980509461526527 8.976509044081002
Li 3.3535502169459055 10.45495691336458 6.570349602037715
Li 3.1687602544274682 5.401736361600989 7.730652860939554
Li 1.7684279214094785 7.8136819568414895 6.0592759589950065
Li 2.977560661932683 8.405246946621512 8.846167488888435
