23
Energy = -33.36222027 eV
Li 10.038118145233254 4.761115935853511 7.146846627704738
Li 6.655225547499781 6.8949242614379695 10.456171193575598
Li 8.347404134186373 7.031384369123451 7.9704425578258284
Li 7.4999642639055075 4.231167823299634 8.942465878148521
Li 8.024327425022863 2.2541120113286564 6.821751021039858
Li 11.145571598391138 7.831266857751965 7.23928046132561
Li 5.37277738686257 6.236549150514958 8.007282922254337
Li 5.154256357032652 3.399844726021484 7.287874273056757
Li 11.039812242315953 9.476017534716297 4.569413224443384
Li 4.5449393986000715 4.561463147823363 10.052571230854587
Li 7.364294576848333 4.998534913684829 6.135902806684872
Li 8.764139024806472 9.630934677837121 6.480495653694884
Li 7.909441673487097 9.283935969333843 3.7161042545682106
Li 6.4869849408108715 7.817847890873634 5.722352101812984
Li 6.191692902514073 9.071187871552679 8.317001929242913
Li 2.708971063114245 5.439413701208176 7.728966250531587
Li 9.380996545897801 7.0811904581926 5.198048079346244
Li 4.523630547875714 5.673899642873587 5.207597342375143
Li 3.704755281241193 7.596446664280284 9.6983689828491
Li 5.830612205804504 10.566670643142375 5.584502756825077
Li 4.788548672580806 8.426903695798332 3.637445027449033
Li 3.7434451459908 8.288738860799647 6.599989412976551
Li 6.9705500954861535 6.174768990293527 3.465083359643311
