26
Energy = -36.6305428 eV
Li 6.376185673308628 5.987852440028552 2.6869233084656496
Li 6.4412402447336525 5.805074206966414 8.831396028303105
Li 8.75684705000375 5.157726160337219 4.291871334576589
Li 8.782440057971021 5.096661051858223 7.3483120211706785
Li 7.971431582954199 7.955679075533632 4.2188765895482385
Li 7.958918731394368 7.989700297061783 7.48672081417451
Li 4.895246752798164 7.9755712024425005 4.296361048819838
Li 4.784064934042579 7.821535959380205 7.325391585810145
Li 3.971375382348688 5.140144440208813 4.236924695963499
Li 3.8167927563004347 5.017809411009704 7.499767996476756
Li 6.362761325451736 3.496438130907796 4.214744064580644
Li 6.37651335033976 3.3979665088200504 7.259787422049869
Li 6.389538893926961 5.974329106939913 5.806081089925305
Li 11.2057421655641 4.296937148638024 5.83521180430269
Li 10.340755793481538 7.12944385483113 5.837682662779087
Li 9.522674928045634 9.949082135727549 5.769521532514225
Li 6.546261299081672 9.93649368857494 5.764201992051681
Li 3.302092037245247 9.837130318879938 5.78573818267315
Li 2.353418776440293 7.060844717701796 5.840211143619644
Li 1.5208526616500264 4.244964027166214 5.6451020638893015
Li 3.925951799786116 2.5970166655031375 5.749322678364381
Li 6.329025636193834 0.9248033210346034 5.605834813941803
Li 8.782250257000433 2.574736136263587 5.713234226829666
Li 4.990035676573448 10.595840187495174 8.082888638395715
Li 6.161344317582869 8.512911020677079 9.845759924935198
Li 3.8806715804102545 6.668353079340251 9.936811475699633
