27
Energy = -39.73326025 eV
Li 1.827940099048841 5.904021586675251 7.785621735604334
Li 1.987028487913211 8.374963488115405 6.022874086844093
Li 2.1339315945569157 5.509527516380295 4.665908877393339
Li 3.9784149014840975 7.90846632494213 8.761033661254372
Li 4.16367424239684 5.065448536674552 9.715307652721444
Li 3.8996646015158043 3.9165655827485484 6.760952112809158
Li 4.075492016997797 6.609749848994803 6.291160330664251
Li 4.452544052037184 7.527224752960041 3.6940270193527884
Li 4.7938313005223305 9.51787318989412 6.346799411826366
Li 6.61418512647085 7.1485104807530515 10.219567755687317
Li 6.182070484631117 9.96643119541914 9.08454258117244
Li 5.148158046571838 4.458966183003334 3.965920964625987
Li 6.139528798662746 5.625866027274451 7.963941368959189
Li 6.9852198463001836 8.06981036942782 7.248236718926885
Li 8.2747538962467 10.495942854341482 6.905225569262905
Li 9.289663701121734 8.045549712573271 8.692259716182624
Li 7.066293421211266 9.003634916732539 4.485190094719728
Li 8.781714874897366 4.996889100188234 9.125579832229665
Li 6.629761352668238 6.225319870726843 5.172264812184793
Li 7.029613715987263 3.431953307245088 6.68043958165875
Li 8.95494894727466 5.766811970574688 6.510968969322362
Li 9.764353566216023 8.186119827100002 5.5955214356966945
Li 11.465055908838536 6.20688884459259 7.595288907579727
Li 8.250613451176132 6.647174887570565 3.0371983941464764
Li 10.274225262020044 3.429480612622815 6.684715287514129
Li 8.395883957599255 3.9784646426882664 4.192934275229556
Li 10.954837791785884 5.53341744252264 4.525876325076715
