21
Energy = -29.34266718 eV
Li 4.692230532741821 7.292070539638849 7.739406008929983
Li 6.1918414794674455 7.237484506749711 10.176506238175634
Li 6.056132453781261 7.366366841173828 5.220605593430802
Li 9.051302167331038 7.243338604926983 10.096263624987285
Li 8.917686596664716 7.386186084153676 5.12467937912222
Li 10.401669676158624 7.314509475726228 7.5728739395234985
Li 5.022956343208479 4.8473110268841415 6.223239987948366
Li 5.105652933804921 4.767792490246888 9.095717971127813
Li 7.466883022192544 4.903259952193999 4.702101766294624
Li 7.636736437145776 4.742022431083731 10.457966911443071
Li 9.996232724874615 4.867574267433898 6.065254000005112
Li 10.08221141309451 4.7844917140847 8.939904793400412
Li 5.094916901357346 9.880281776043791 6.401633727551497
Li 5.160835030592359 9.802506079294162 9.18780008491975
Li 7.469659149649434 9.93447240633485 4.9385492587583935
Li 7.615571528793137 9.786054159319962 10.51111223868724
Li 9.917950238381659 9.904662843838533 6.271683250300623
Li 9.998004686433653 9.82301794403466 9.06421817738533
Li 7.539215578588081 11.263031507924834 7.773267496853821
Li 7.548440588552825 8.532715241187734 7.6898046878806845
Li 7.549571152652852 5.49317440911004 7.597492506499538
