23
Energy = -32.79298795 eV
Li 8.700603334428553 11.490185233039714 5.58980183125548
Li 6.924159535395508 9.206708664920395 5.1160070890960485
Li 6.668764283814839 5.620942046543051 9.583110537481078
Li 5.095715613639503 8.462105046401163 9.627548329203115
Li 7.186182491437053 2.0491192857917437 5.887086775367625
Li 4.190045878194897 6.141431315839749 7.817440024277753
Li 9.302792224269155 6.042578474076648 7.94693422209169
Li 5.367957088108502 6.631661206880795 5.114790051453022
Li 9.571124175178436 3.9904992703746327 5.675664078584575
Li 8.495192209988526 6.647402266881083 5.145033542369121
Li 9.723029048284747 8.971748484627305 3.9310799583575706
Li 11.294191463073602 6.781115702948848 5.781140291937741
Li 2.2473069597463553 8.594317746094372 8.899896100069173
Li 9.326024026416658 8.881786309325062 6.855306654452059
Li 8.255010230734424 8.165844573066535 9.765617624052224
Li 4.497634513632491 3.7360576588747816 5.665248655549839
Li 8.481737877948014 3.2411918266259416 8.496768867085777
Li 6.754382897151207 7.474707250322664 7.49596355700885
Li 6.827385198459729 10.370792614331405 7.931778331830982
Li 4.312635586824197 9.035495996320495 6.916002238177129
Li 7.009933516148144 4.364206324827795 3.8821984143019947
Li 6.891695629759293 4.703187456624099 6.698864455014153
Li 3.838560738528158 11.16331495432657 8.985586484756215
