24
Energy = -30.41104496 eV
Li 10.407582105609286 3.8166919315138585 6.872064668761881
Li 7.8782985423454095 1.941732669430339 6.098148340747884
Li 10.70391932504097 6.312307043372377 5.390001799143547
Li 9.322370309425793 6.20538287635406 8.072155971099722
Li 8.191452195112308 4.769547740046961 5.464784943254268
Li 8.012339442385656 3.654473376728342 8.464232763914312
Li 9.415009947484856 8.675253868363296 6.463998779836957
Li 8.292996775196947 7.229703389155677 4.019591631830209
Li 5.666729217863523 4.165037148110286 6.8547924124996245
Li 6.707041714611028 5.9038532998460616 9.492535548995606
Li 7.996594914146844 8.416460723964152 9.022451528897912
Li 6.782451851277741 6.998611633759475 6.736408094620238
Li 6.750996735702599 9.565721173130685 5.125306045180223
Li 5.83556307847231 5.592209919774081 4.308288103059524
Li 7.35151211318297 8.072914548802252 11.830685682056322
Li 7.824768515689999 10.842299806586466 7.500304515572418
Li 3.40321103440838 6.519563728327178 3.0871545345510496
Li 5.719461672099449 8.126928127084176 2.898114518817264
Li 4.948948024933602 8.060614294588635 10.177047834650729
Li 4.09699432178249 6.596015256008833 7.925279313758624
Li 3.2118960745859546 5.174324031777672 5.626011253591242
Li 6.4612215729438365 10.552872444597684 9.994234660852262
Li 5.231899406199197 9.322933708049531 7.618889709075774
Li 4.237536802259852 7.986373525634338 5.410792956951829
