28
Energy = -41.23714519 eV
Li 6.0894377627367735 6.270507735371007 1.7849770104054576
Li 8.057086274057639 5.403132199961878 3.9272519757942943
Li 7.062703809683375 8.624829129346681 3.819905466914896
Li 9.604577247513438 7.706118486425902 4.854417811214243
Li 11.078208477005825 4.914777210827542 5.016493919397163
Li 5.762944693781097 3.6212043942681995 3.758339142188219
Li 4.198152084037505 8.41438578633613 2.8687793648775646
Li 8.568668139631423 2.931409764182842 5.890588740638961
Li 3.3965534828946486 5.379676938936203 2.839780460938999
Li 11.107132419987535 7.181252094953789 7.241473290219884
Li 5.362075514946355 6.391743196707807 4.532897757583862
Li 5.0374669481903105 9.273985933379759 5.933985160891302
Li 7.008303504994937 7.444320267644331 6.630313144640159
Li 8.976167793534346 5.540217157169011 6.5996887243530455
Li 8.304416428676872 9.666835330355365 6.847933376154769
Li 10.65354350074379 4.2009580024061695 8.035972056108486
Li 2.740927039518534 7.286482727525125 5.419238109867998
Li 2.7824280136351534 8.939673228348177 8.079199340712035
Li 8.677838859310839 7.164139628924846 8.98262802417152
Li 6.213308822792517 4.621869625660587 6.591612308514776
Li 4.429635955643444 6.673972081639929 7.664117793723377
Li 5.8842335003978095 8.952084271793117 8.94254550559758
Li 3.4558374335648723 4.357134275704607 5.868719353958815
Li 7.704596940480645 3.9882404850725868 8.822163493832608
Li 1.8061528367949637 5.909120077477839 8.054516676826243
Li 6.189467538339935 6.178117167459241 9.97877954876347
Li 3.427583980523676 7.072919917326797 10.344247337894382
Li 4.301930616501474 4.15009887075637 8.996624717332603
