27
Energy = -39.6069463 eV
Li 9.284204522849329 4.020576450240162 7.887479869289363
Li 7.353415314378083 6.315814230526195 8.396414931937915
Li 9.644679953362404 1.6684076217266417 3.304499371348365
Li 7.420669468338864 4.840135213436277 5.956152025407886
Li 7.905864436720134 2.0523994967591674 5.941908553391206
Li 6.226428201105198 3.48475139270586 8.276512312715234
Li 6.624609764049958 8.22475316271701 10.604345651217509
Li 4.828858568802444 5.753543888367833 6.810727935549525
Li 9.920841939521154 4.158665649116154 4.780923053777144
Li 9.59632950847449 6.860499527205637 6.411340153118563
Li 9.887958733035518 4.403407882194923 1.829048306184222
Li 7.4848583363293955 3.6291946474769947 3.33085647788962
Li 4.68715406332197 5.903913266539683 9.727381881549398
Li 5.030533283549661 3.250984681480768 5.344415672730693
Li 8.115098582101158 9.203126253410316 7.95179569921721
Li 6.876426494446498 7.725504270578944 5.768539644937463
Li 5.245326545033008 8.365617617085652 8.120991608167264
Li 8.405037103760687 6.56864528588403 3.5702463218093254
Li 5.419501119618796 5.95202827361918 3.897395883575916
Li 3.5721586790717286 8.814157463691748 10.27481513905564
Li 2.522371316202333 7.149578526472688 7.8254470335211375
Li 5.6902888595556655 10.849225700591175 9.214002811125324
Li 2.618955868823299 5.390148368958096 5.146294842617216
Li 5.9773162625581175 10.446524825743028 6.054207165789826
Li 4.018359895669297 8.198390091569514 5.308998209415287
Li 6.280073525136768 8.937917808728935 3.299015453436639
Li 3.222801603845545 10.22332668994197 7.534966627107411
