28
Energy = -42.16378509 eV
Li 8.753092784590978 7.720279553107853 3.2836747354180695
Li 9.551687275858756 5.760916428892156 5.6148184490756785
Li 7.851206248623344 3.0911893234431838 5.778708317720142
Li 5.5589160538396225 8.352675660041319 3.4121234377086527
Li 6.643918709540653 5.527504196744722 4.08165511641847
Li 7.780102421275412 10.366978074891327 4.511021770894248
Li 10.332928199780492 8.67967097730708 5.956825316689018
Li 6.4736060082644995 3.160956766002276 8.558401360427075
Li 11.725628592556246 6.389962455223994 7.747793467313829
Li 9.40956842406424 4.296983492195051 8.359926505386793
Li 7.4689183680804465 7.917247752977925 5.69056123877554
Li 9.133035304690004 7.199576853077124 8.18750345577727
Li 3.6166175242005854 5.7834030952804545 3.464965090584574
Li 8.173214346774646 9.993695102273325 7.66539647840952
Li 5.209202736989788 9.782222089627286 6.072462131329166
Li 4.614524971997895 6.872031951680748 5.799891439752504
Li 7.243852986426615 5.750871580448667 10.040504335892225
Li 10.310607591757732 6.327661547427731 10.549931844186657
Li 6.997566137023627 5.3787128951243925 7.038573502011675
Li 10.877724235982233 9.067760189863796 9.086722605233373
Li 4.897104645691376 7.756951378846926 10.694530558192804
Li 6.14878171510302 7.878864856445008 8.2486274193152
Li 2.6915604286113184 8.50205439035239 4.739243527787481
Li 4.687460065986318 3.9698993285125987 5.864406178374684
Li 8.110114713992752 8.560045731786841 10.494963384320357
Li 2.1225023698793466 5.796166795142967 6.223344646339913
Li 3.1675338673758695 8.227943246046832 7.877442839506926
Li 4.3670419942395915 5.56568490607436 8.508677578960947
