23
Energy = -33.23323823 eV
Li 2.9740911781732255 6.537935124013821 6.0950788838471235
Li 2.282205404182913 5.280428460487339 9.025328267011925
Li 3.7216364232011143 8.043992431999094 8.732899813439092
Li 3.379240491563453 3.4961405768330556 6.699963711133377
Li 5.60673214114318 7.805512466742089 6.439301139016305
Li 4.627703619209536 7.500948746589755 3.6732177118464326
Li 5.408851124300523 5.109258930597196 5.222639229961633
Li 4.622926816854383 5.946586019020895 10.884704499091832
Li 4.913872277615713 5.458597184930536 8.165806143692178
Li 6.787805937976626 7.620709708311738 9.139893862691554
Li 4.412095148737307 3.1586674978699207 9.637570938003647
Li 7.554935979959546 7.0029963747688555 4.306513392287404
Li 6.333212043557214 5.222801892664999 2.3796253826732596
Li 6.648212657407711 9.755604707857875 4.443721692094363
Li 7.22122750403865 8.168374959844533 1.80498377759361
Li 7.199196694322126 4.582831461886297 9.727930145398457
Li 8.434384091186873 8.58625566391473 6.728682374068551
Li 9.35340030168564 6.050949935976548 2.4180942625906585
Li 6.4548279592219755 3.0746713596584443 7.092560209579078
Li 8.108655824317012 4.042385399082897 4.669774339458119
Li 7.669777943467709 5.756320638551173 7.029282476322981
Li 9.545390788682607 8.831386268109524 3.6871515973275133
Li 10.130789681757005 6.299435197223997 5.440713453805654
