26
Energy = -37.62880233 eV
Li 7.583339366648021 7.439698332184188 6.14282694908287
Li 5.643100389433506 5.331214178514265 10.036003122192202
Li 5.155139332533094 3.2885472620443186 7.32409526854639
Li 12.034711565596673 5.935395802150287 6.270439649655816
Li 7.485485325690059 5.0349462727700685 7.756705208276581
Li 2.9722858134037238 8.168779333932825 6.171441893728054
Li 5.552711584609716 9.429185989064859 6.85239557026577
Li 7.736348954671404 6.625906169906091 3.297801098399185
Li 3.1819744184763086 5.047947088177988 5.562242142156169
Li 6.988021177714324 7.840862220215224 8.959255799364907
Li 3.0131479759548347 4.78409860671068 8.745116796563014
Li 7.822179483729849 2.686159640860643 5.839444535987264
Li 8.81905818347696 9.798488126401892 7.138512650629619
Li 7.3942509375676355 9.54959100529117 4.293121973433611
Li 10.165002068338222 3.935765084921564 7.844955432529138
Li 4.24875598322823 10.127666356573533 4.113607232271803
Li 9.867525421858797 6.975370846059639 7.904380325018209
Li 1.1114289199106404 6.4960468119336845 7.598369328595872
Li 10.124529273169385 8.040025004033753 4.961791085549627
Li 9.35956436511193 5.199630968193334 5.423587133567247
Li 4.818912339618792 2.6236694500527316 4.413547683549276
Li 4.9156071706139555 6.394698621156946 7.434164976073121
Li 3.5526224249252545 7.787794814603112 9.265548184663926
Li 6.1971540670934 4.937707476878118 5.151858050366588
Li 4.5972786190233785 5.382501625474387 2.784586222690359
Li 5.187962996041551 7.511736616846769 4.607049897993024
