27
Energy = -38.11257543 eV
Li 7.1806779908047025 4.713276501446956 9.712739990848064
Li 5.728233489220235 7.096791218841475 10.181812398586317
Li 9.539655946002645 4.935133171018824 8.106785857248312
Li 8.377843128467207 7.261105452354133 9.173818670616951
Li 10.46032990199687 7.684954760966407 7.404148881619083
Li 6.986537853320411 3.08253808948547 7.356045236795649
Li 4.559689258596526 4.718752137244348 8.63493671358834
Li 6.935290024991648 9.64408503098213 9.28887336840642
Li 4.334713160696478 9.563607920385781 9.502504748134335
Li 11.127400118848298 5.715665133844788 5.778294273095568
Li 3.2094534892424345 7.126397986116719 9.069153936686012
Li 5.5219958992946205 8.019901230751785 7.383831168066716
Li 9.288301311941844 3.653794453374477 5.7626762492270345
Li 7.072254714530075 4.2082394150860924 4.343204187267136
Li 9.681021704479372 5.290211120293019 3.572429833757136
Li 6.5959049068138755 5.575353811856018 7.134396573288294
Li 2.8712003490500435 9.13580145183008 7.275620578129904
Li 4.6782656774415345 3.9870319599067585 5.897670124445892
Li 8.411440165163304 6.578352115162416 5.775142378091926
Li 5.378152599482589 10.637339645440278 6.9762608082672735
Li 9.991033572496395 8.075952550715087 4.447478097938909
Li 3.258279192523893 6.379545505032386 6.419134780565145
Li 8.245334605946208 9.34979162324582 6.928299268528215
Li 7.61289297683556 6.843355634229595 3.0599889277019665
Li 5.235194097298188 6.346373907386038 4.368692177089601
Li 4.123764064435736 8.82490273316673 5.003495529689261
Li 6.822676835317878 8.928765465771166 4.764202086709321
