22
Energy = -31.76817373 eV
Li 7.576580855608218 3.526287265978337 7.515834013978574
Li 8.823030244321634 4.787604483833272 4.92436212271708
Li 9.019201035859506 4.801957552205279 10.02266772522926
Li 6.144072131434933 5.860188632622928 6.071326283134212
Li 8.686196624263605 6.112198168274054 7.392601856811759
Li 11.033400675828439 6.899971506054123 5.786064258235605
Li 6.337638874563493 5.7424458470986925 9.192330617751223
Li 8.332918846838828 7.8062592493123075 4.968908173075427
Li 4.07016599005528 7.583823169395966 7.801280279909816
Li 7.211589707375355 6.447281779476916 12.023594979397307
Li 6.687476371230727 8.333339256137007 7.533794908942471
Li 8.488772656010084 7.706552575750679 9.851874382074321
Li 10.536984161278408 9.925887499401675 4.958772918184501
Li 9.614133709167513 8.905621333484705 7.415125431474053
Li 5.791381529073212 8.606400021498974 10.304047419456234
Li 5.272411519735778 8.828167572699462 5.245745220346705
Li 7.753211719400088 10.662508438959154 6.107265688998541
Li 8.223572434476347 9.43259462432982 12.052535820932786
Li 10.298106134437324 11.630431595163197 7.575214550284554
Li 5.057215171610532 10.5125335427408 7.82957826285332
Li 10.666532604067628 9.683557999582169 10.055416236475134
Li 7.96731177881987 10.573078902834197 9.233459150317515
