20
Energy = -28.34534585 eV
Li 8.843537725894796 8.76982775766456 6.376943605626852
Li 7.730130597586847 11.165570117576586 7.816546132389246
Li 5.785211454553304 9.14798539315036 6.594921288451529
Li 10.121046293123054 9.557719617860501 8.986312773145151
Li 7.342458918316005 8.605888952647685 9.00732685866668
Li 9.501444897941042 7.316180203896296 3.9599902075104008
Li 11.57888690596252 7.967287854914797 6.519951055171809
Li 5.116447226512931 10.289196023341598 9.351347527051743
Li 6.451318981031117 7.634370143532456 4.193031169769764
Li 7.7745405902742935 10.572541648140827 10.937430695686745
Li 7.285575633443425 3.9429235190217122 7.237400293752259
Li 8.905445103803913 7.739040587122793 11.2593361473293
Li 7.192511157007832 6.577964522850138 6.686620460814837
Li 9.580081278024524 6.72605017316132 8.481698572607892
Li 7.051615024934473 5.792101647509882 9.608169014939637
Li 7.48194910272294 4.877858067381124 4.283919125476325
Li 9.822033952207065 5.4548137377122385 5.98653312940775
Li 4.76724917933493 7.199943561146179 8.476750092877474
Li 4.834014638173853 5.511147218652801 5.882376629439827
Li 5.837739545226673 8.154827458791978 11.356633425960577
