22
Energy = -31.35422963 eV
Li 7.367644605128952 4.830060890668144 5.20853958461039
Li 7.630544287411675 2.4567364955310964 7.095163216420181
Li 9.590361218155085 4.958993618082301 7.2429354456717885
Li 9.120965067872945 6.720155409970294 4.109316796484826
Li 5.7986827889507175 5.539866696819226 2.9935722252871497
Li 4.883691969002923 3.2274477317758117 5.711938479852304
Li 7.959340840199174 3.938573914083734 9.759561159826626
Li 5.146834504848746 2.899949043221399 8.86558114352646
Li 8.346918318457243 7.362711630630235 6.797169807081102
Li 6.959849009258241 8.484247340675601 2.5429363505877407
Li 6.463584761708998 5.041002383249689 7.708936393196651
Li 8.65672396325042 9.655529547365065 4.902618143557895
Li 6.330250429804884 7.759336029924462 5.097801188968831
Li 5.439200796948324 5.565594867527078 10.375954991787873
Li 8.084464708161734 7.099869336308983 9.51515810152527
Li 3.3572379881369994 5.373698659397303 7.980778265258464
Li 4.411190159900784 5.946970327554516 5.489872552142703
Li 3.9607099936319625 7.999264388292312 3.321084729771574
Li 5.6129439162242 10.344680726231756 4.6021200529633575
Li 6.948739374805844 9.784163761181022 7.455176858770531
Li 5.484732133834929 7.488601944615061 8.050644846707783
Li 3.579727852022987 8.580269374647091 6.316529373123123
