29
Energy = -43.59380998 eV
Li 8.74957486596203 7.821521742108224 3.4553245857177277
Li 6.923247400844487 5.1845573148101 3.7992730722140498
Li 3.8533492502690083 5.476441059047685 3.745876730219603
Li 5.705033671946402 8.122256722451299 4.315205632412437
Li 10.347225568498414 8.387079028943493 6.121007295905558
Li 7.812228040758038 10.028211366790961 5.678314342190677
Li 2.7806391644349935 4.568154648379975 6.507683954896749
Li 8.207489086318157 2.4181236796079757 4.270139652276951
Li 5.155437812572887 3.0601176152660274 5.117845501554227
Li 3.177812988855177 7.947248459086918 6.060988648343224
Li 9.750040426175739 5.05720621223782 4.883811132652311
Li 4.704268361289537 10.753444811532118 5.839083252331133
Li 7.846024985750933 7.080091035870462 5.935826708247659
Li 9.86635728928225 11.135045694361306 7.723465609317284
Li 5.203442535413931 5.750537579983603 6.1481101773098095
Li 6.7491293094343865 11.111113504997611 8.352800466074571
Li 7.619639763318449 4.063023427504261 6.503443893449426
Li 5.662591271396778 8.602222739632582 7.235397980636496
Li 9.895721794693557 2.630351790661567 6.911960736242607
Li 8.821849090911687 10.294124050751883 10.587682390009876
Li 9.712975549149188 5.768510227102403 7.853253144093887
Li 8.487177849776339 8.75875550405296 8.30293891230893
Li 6.2076629567969785 8.690453880815452 10.12080503495007
Li 5.217815626198538 3.7091145171875297 8.173579751612884
Li 3.728497519226591 9.891770257139237 8.594108223944
Li 6.928470278859163 6.2299473825896055 8.503973652005268
Li 8.21735401232768 3.798501937081115 9.428049571781692
Li 4.01860075282516 6.698235829882601 8.742705250600041
Li 8.815354460785668 7.069497130158036 10.596005702655667
