24
Energy = -35.31844753 eV
Li 3.873012975601674 5.727875571011516 8.58919143190712
Li 3.0959506370914522 3.0398224232128457 6.88489736889202
Li 4.13070749516765 3.6486854997215716 4.0806620750342635
Li 8.006182072628906 8.633179422409107 7.664915987297814
Li 3.019119682202319 8.792183783334002 7.739493386747562
Li 6.889147074465544 5.8220275788939775 8.556500526328803
Li 5.760663750121074 1.6616097097863975 5.831998301981692
Li 8.79572082663849 11.105575900057461 6.298612929116608
Li 5.323135030519299 7.5755480926610765 6.839163827627205
Li 4.0345698661182245 9.079550588350106 4.909198112854656
Li 5.586784900822836 2.977345308846939 8.648124542410846
Li 7.273891101238422 3.819538522594306 4.126443850827067
Li 5.507020772223094 6.470890832529724 4.1478776794336865
Li 10.076749225632712 4.761990389280097 4.924480130568288
Li 7.1688885770273405 9.041750150373602 4.984388411496152
Li 2.9922864058633305 6.1336211156405325 5.7977873623103715
Li 8.375226668412836 6.691979295668819 3.171640167133561
Li 5.687816599966497 10.515497656875608 7.166824069162816
Li 8.142298229217262 3.4128223402804836 6.870651338720782
Li 7.837752244941792 6.182808149441437 5.843149564732791
Li 5.40144209581909 4.44761775835349 6.35656227718764
Li 5.460429784144933 8.404485748391867 9.477612876004308
Li 9.820850416643093 6.002688218375568 7.774418588458046
Li 9.952928260932882 8.210413207613898 5.487986572359635
