20
Energy = -28.95649412 eV
Li 5.563526702559589 6.927432173899764 3.596990686454954
Li 4.325874660051796 8.30532792730612 6.178306160476972
Li 8.091907859834722 5.519257248337501 4.562626930242844
Li 8.439069819660036 8.310964527878015 3.2447374430741616
Li 7.252050821863703 8.035509446513775 5.688702836468469
Li 8.979921001967538 10.374577018628989 5.644259225679523
Li 5.632656198096638 5.612683564874114 6.254026245820909
Li 10.086060383824343 7.532326715812306 5.765149804400066
Li 7.398919530177713 3.263838089395161 6.694911338252347
Li 8.311471735520533 5.910923119985448 7.506043087325346
Li 6.040960968703691 7.635903498595609 8.393068017770199
Li 8.759628724028852 8.78508144135729 8.124163865279133
Li 6.304868641838926 10.315817045579799 7.361233502767732
Li 9.2018315791326 4.011320167886606 9.257459090636967
Li 10.814893220858277 6.743695673068796 8.753313854414886
Li 6.180366859134075 4.742732327197882 9.062332185399864
Li 3.4940816382226503 6.208219797438953 8.212727486177995
Li 8.170307287960863 6.769798733734645 10.258113602777387
Li 6.935018985482551 9.698985372656384 10.26768802829186
Li 3.968865763146403 9.247888491917504 9.126428990353935
