29
Energy = -43.13477006 eV
Li 2.2548803444766063 4.783045908505143 6.316215315716596
Li 3.181373928845135 6.446532659401179 9.061123310314908
Li 3.595054018199476 7.628198152741771 6.266008309195393
Li 5.811497940245192 8.803257433731853 3.6820539794879905
Li 4.95294674944584 5.153844947132565 7.053281696772552
Li 3.6679482819158586 9.582731886024378 9.03937388272348
Li 5.635338580518828 9.92699509354852 6.645003140809783
Li 4.694592646851215 2.8827087463465895 5.4035653674536945
Li 4.477771978264603 5.551368794244513 4.144499095448486
Li 6.445044363269269 7.3830348656890505 5.718413462945855
Li 6.055940980004037 5.099336130356714 9.881270142870822
Li 6.9783722504731065 6.079051933532402 2.5432113471886
Li 7.291275220855641 3.1542224474291394 7.315880679759747
Li 8.339919118965335 10.373967350528947 5.464439510988075
Li 5.636605316370022 7.762341809001132 8.531426322010718
Li 9.855398486147319 5.593917512069439 6.272796967545914
Li 7.190865693063197 4.755630910783914 4.979509605750474
Li 9.230184592627914 4.563285777254537 9.365043677884065
Li 7.6388627230723305 5.901615644550581 7.751880243639939
Li 8.065936483890281 7.57546271237424 10.18792732418681
Li 5.1158133185734345 8.026492070039493 11.1897939958037
Li 8.43685639089179 8.526835182086769 7.401079453306292
Li 8.826088898691335 7.490213006548625 4.345664125260467
Li 6.506616670234468 3.09713553702614 2.881424314636645
Li 6.81348373948794 10.198331671037474 9.406361296902334
Li 9.41190395247559 4.485163180381623 3.327437250441807
Li 10.609419895501624 7.389716793329216 8.68913167715111
Li 9.925177198952147 10.44136305778258 8.566206845604134
Li 10.971134009759025 8.827708830586 6.127267415310121
