23
Energy = -33.54942447 eV
Li 3.63633780821267 8.382938729637715 7.048152668125168
Li 7.422047467522461 8.366084994448903 3.584867212746346
Li 5.012653774469483 6.8003952699039045 4.682890024790782
Li 3.277194363283791 5.149883768059198 6.8559357453640875
Li 6.401487040524773 8.493100341260572 6.338177569443302
Li 9.337151774255235 3.899781219360967 5.019970190950004
Li 3.6323357406095114 6.578759460944352 9.659929753784365
Li 7.509526381132172 5.235080129211637 2.9789642204705347
Li 5.086746516962186 10.23258612623079 4.903776861755265
Li 5.602054533490483 6.227655222912441 7.652749780747153
Li 7.107390533453275 10.725205537984644 7.588152055152363
Li 8.252221828320053 9.273149325175458 10.35997015560215
Li 5.491792365205965 8.896677264900081 9.250542090025341
Li 10.046770400103844 6.594145745588836 3.7649693503334456
Li 7.93794932980051 6.267463995069816 5.531937036768984
Li 6.128518195808817 4.075388338236774 5.805997132549893
Li 5.201379600081423 3.901641403007354 8.930572628984043
Li 6.711830801967881 6.448692999087084 10.393508942139952
Li 9.242488700489154 8.97035402858118 5.912099918795221
Li 8.141998033835598 7.625375800844877 8.200893661605129
Li 8.105721694353786 4.717239031972786 8.06720961536307
Li 10.444337048642616 6.1963219556698546 6.8798669889782555
Li 9.819766245848639 6.433068758890147 10.051106514554169
