31
Energy = -46.61863938 eV
Li 7.252435387536028 5.900295333795787 1.8400922875056795
Li 9.208530186738965 8.211650439236337 2.9576200917480717
Li 6.666977733916561 3.3946235384098693 4.346541899113354
Li 7.517693951478681 6.342732573903417 4.536783367051284
Li 8.082644301482123 11.119499952500778 3.505541751293226
Li 6.225304825791247 8.527516309483152 3.0458397672981397
Li 4.736478977030196 5.687459120726486 3.804841819370627
Li 10.146402182686707 7.0830685747024145 5.78025487333864
Li 8.924912954440341 2.7775199751387634 9.302426482921572
Li 3.862228713146021 3.1136820194017147 5.7331124960887925
Li 7.9924226219555985 9.189446342419318 5.419929772568323
Li 6.371860907967048 2.3746960080224317 7.563241403653005
Li 10.571283956458787 10.117653570501707 5.139877457936357
Li 5.5170701039705445 10.745719110181161 5.320668766313777
Li 5.720388807103651 4.9535374445856695 6.441418960972766
Li 8.624990727056971 4.291929612028783 6.626521443222798
Li 6.1659174830623975 2.6192734583919406 10.752149499485595
Li 8.30888817300798 11.693534900404046 6.542918018666474
Li 9.496135264449364 9.071520541792507 7.983467336433158
Li 4.1228910830202965 4.078531626096099 8.82237213192349
Li 5.309026121500648 7.88069742552041 5.816926558069744
Li 3.0433949035961168 6.014411824413236 6.646113855082082
Li 5.026594812619144 6.911574656283681 8.602476674745212
Li 6.995714581710819 4.775624592698104 9.170251197255775
Li 9.846379221631114 5.896762708358785 8.858281226874942
Li 7.686806066488314 6.977028161925233 7.371207467613251
Li 3.3295533908372503 9.070560876043508 7.504591842164405
Li 2.497607235532212 6.645559068998901 9.599177337445466
Li 6.407572223939644 9.614553935058925 7.9663233898022545
Li 7.502962815461714 7.56456280221171 10.151005370944528
Li 5.084634074596234 5.60596157472298 11.239393091564617
