33
Energy = -48.83199392 eV
Li 2.5083832069969842 5.753393776977585 5.959844073828756
Li 3.5294658333301547 3.3632018258613456 4.707151446630607
Li 2.7031761990335577 5.587711022454153 2.718683245840349
Li 3.0197233739204856 3.2372978499500475 7.650368853665765
Li 1.5761308026210967 8.011656620692317 4.193661500068542
Li 3.1620792913062217 6.017759127320331 8.83821010089308
Li 3.510645239255958 8.541217838273091 1.906135529831449
Li 2.3631140975477276 8.480712735055054 7.142965288093739
Li 5.375802857248863 3.8609196894617805 9.350750928966884
Li 5.469307219238323 6.210589786107772 1.493674716703636
Li 5.290932903675676 5.168129969700142 6.874126149477364
Li 5.814925509588222 4.833125922912526 4.067522666579031
Li 5.8034601733550595 2.4436970731242638 6.589703733623457
Li 4.338459476830295 7.16605952951089 4.279356830241017
Li 5.820618913063293 6.863597001627515 9.736921231039922
Li 4.022762147546272 9.877987384156643 4.749834187150584
Li 8.119127183714195 2.7857816503400343 8.760522571856256
Li 7.473611268899022 4.68983070357916 11.220225704316903
Li 5.0996055851442375 7.995310454872125 6.960723042015015
Li 8.116095417948076 4.220133523332111 5.75985087747357
Li 6.376006184964733 8.551961115144826 2.997942217978126
Li 7.504937776087024 7.160368750461766 5.484848877905098
Li 7.010744346888978 10.019421987381183 5.524574522818975
Li 8.053348356878015 5.563310763593827 8.371942285744035
Li 8.271504168947317 5.923001408592712 2.9606894268551764
Li 9.257281182129555 8.728301370380725 3.5258895477498498
Li 7.741787887001307 8.543198890349785 8.163219130058145
Li 8.906789322802162 7.270331484773555 10.623204509123504
Li 10.247131629382315 4.585851386523462 10.174566041975575
Li 10.658091867441255 4.027217741883285 7.2410008969542945
Li 9.85215322359475 9.118138056754885 6.337016842068954
Li 10.27749269595972 6.323950725879335 5.215779395749309
Li 10.58872726172741 6.880405617494449 8.167229074661872
