36
Energy = -55.09795608 eV
Li 6.922101052349614 6.432903584098852 11.506072251055166
Li 6.508780986138807 3.258074217758294 10.817525439296789
Li 7.583805928231052 9.700415793777877 10.84263748195504
Li 4.1451631506854625 5.383114548470798 10.496255537036483
Li 5.406394673602021 8.022882322174272 9.495868736862723
Li 10.014132591336981 10.004994768917403 8.472008727183413
Li 9.191734592858838 4.780291778336186 9.898694142559199
Li 6.564040884337962 5.208668437159296 8.966238860626135
Li 8.335954234929181 7.608054728953525 9.090392043505279
Li 7.696491107575089 2.7735188472338828 7.9126032282441345
Li 6.532877586245301 7.308379167431728 6.797137789965808
Li 7.106052123092573 10.007216942249437 7.823307726258453
Li 4.279914503389993 9.084623581706106 6.76881334170952
Li 4.667868704364567 3.1379764300066224 8.141479347780699
Li 4.114828733702339 6.069960570355271 7.584883674584119
Li 2.462383464225233 7.811495473370755 9.171016584721952
Li 11.086234262117417 7.041585729373928 7.990323175216258
Li 8.833642421713957 5.508041018933722 7.061652741775046
Li 9.191737188880534 8.378244202372823 6.254828327387292
Li 9.150269808825632 11.073736161425586 5.620083389565532
Li 6.222891042687307 4.542794389694135 6.091985093323727
Li 2.143299986872172 7.303539794857912 6.039301080961583
Li 5.858516629333127 1.944316983566183 5.330969392466957
Li 4.734474459423037 6.710641602972332 4.494971519490044
Li 6.671607560362712 9.2957579365294 4.792435895494748
Li 11.696939801304845 9.26768205324947 5.751238867717885
Li 3.5453676759362818 4.175004278990874 5.079077956663142
Li 8.665442268708144 3.554079340281476 4.8679596847430915
Li 10.79598075282215 6.310837024770966 4.923760629934304
Li 1.9497977922558414 6.2832413077115605 3.365997684417339
Li 3.6705638999648453 8.889872612310018 3.40694887757565
Li 7.878798956303238 6.401157787777444 4.367125928843093
Li 9.507841797209435 8.81270554229353 3.4903183833972133
Li 6.1329716848215705 4.284153366437829 3.25549547663405
Li 6.573067967965338 7.7925605318584985 2.2824244716617574
Li 4.2654797624551115 6.046965646495863 1.7566612576897362
