33
Energy = -49.31120757 eV
Li 3.355874178504986 6.643424123971964 2.542166710598228
Li 1.965775049894969 5.41603875163013 5.319287328146801
Li 5.918398098267347 7.310752208996941 0.457786134548209
Li 3.396219133445203 2.7844757105589286 6.134183509459934
Li 4.802714454067132 5.05308953101691 4.6666921334891835
Li 1.5740743040874452 4.197433198459921 8.402919608506483
Li 5.769044269339433 4.83813963066332 2.0614525826116235
Li 6.164054858208606 3.625228982233037 6.721602526571542
Li 7.507531968321579 3.245069236682661 4.071376136206246
Li 6.044357837451377 7.498651005703085 3.277265406929812
Li 3.9510108809300353 7.682279372536258 5.466723863525003
Li 1.8754577658156335 7.232162156989585 7.870629224016142
Li 3.865089348905138 5.332519309431673 7.497461869769495
Li 6.405048113818812 6.533926424721958 6.681749859430888
Li 4.358860571778169 3.1582622344304503 9.143064940389216
Li 8.465666326931759 5.996241795943631 1.945278970959978
Li 7.728325161965936 5.811128262019187 4.5945599825252215
Li 10.424269520749975 5.232591328036396 4.545230254526563
Li 3.605157709559666 5.99493452828832 10.22726103812016
Li 8.845115999029701 4.541918480640365 7.226072477984068
Li 6.476816806268417 5.500355394685418 9.212527566991882
Li 9.038620224225818 8.3283582333811 4.019448643931702
Li 6.69315576850436 9.116206712843981 5.849776505569332
Li 4.8150249103028875 8.11037870702628 8.383135156854367
Li 9.490087901213963 7.1498233643550595 6.5798845212692125
Li 7.839734464946044 8.315891950838425 8.425931101569716
Li 11.656299383204619 5.492665327279364 7.614882623538921
Li 6.514337078547905 8.058694057272133 10.851133714498854
Li 9.41891386399011 6.399774713408645 9.649253971030454
Li 9.178277028717302 10.320143996138201 7.065671546606391
Li 6.512926960607574 10.678491154561732 8.70406109920076
Li 11.12543611906888 8.445013911533238 8.454240435971409
Li 9.078371062033387 9.862822660151734 10.2519789004954
