36
Energy = -55.68889226 eV
Li 9.114467666568098 9.66996297060319 2.9361736259324793
Li 8.601130634505942 8.301948876759768 7.589321063695381
Li 9.54321012286727 5.8933269911655035 6.2738709227275615
Li 8.152861576070169 10.670669972399335 5.844300104549487
Li 12.157429492712097 5.93646275310816 5.874468249176071
Li 6.94526900406114 6.0540430666765666 11.549921724971364
Li 7.9288762604961045 7.906288245549475 4.687737783370901
Li 5.080465179553933 11.516353678105595 6.448120900224265
Li 10.256681167257131 10.380279184153364 8.315651610167002
Li 4.183930586374768 6.636758185916911 7.410022101961657
Li 5.10271250445519 6.843600176976225 4.43488666780336
Li 10.804048873370364 4.080783210391552 8.133496994129995
Li 11.065196740703792 7.32083790278666 8.520451589283647
Li 8.332055589250988 3.208587875004548 10.3410890664037
Li 5.939379922356857 9.790256433992571 3.7877312380777104
Li 10.331830270309476 3.605966312462021 4.974549228671002
Li 1.733070907218055 7.439506717852854 8.12056106650959
Li 2.7211753078409706 4.493435346252343 8.342738536278786
Li 7.186843478763582 7.299640845854621 2.1134566982121448
Li 4.126300632222659 9.4596151989592 8.737949608758258
Li 5.781162107399646 9.08962010955091 11.475701468550268
Li 5.9217054794865085 8.918018743211091 6.580257458724891
Li 4.925666087573937 4.1233978619626805 6.086620412405925
Li 7.533967443951002 4.9239593785185 4.271823248983205
Li 10.056535169953754 6.528800577514714 3.4413088369562916
Li 7.975996909853172 3.4971563688207414 7.183608583349969
Li 5.831480092934218 4.609967702421061 9.07606871068832
Li 8.812511493189811 8.476693485447242 10.512462401886864
Li 6.322132683809516 7.628047406114365 9.236997579941482
Li 8.60968577942823 5.734511644557975 9.154573727988762
Li 3.2648656503556253 8.946788633364694 5.693503580340766
Li 2.3162060261086355 5.860317223469698 5.5286363286003475
Li 7.0530192405935255 10.517760030399563 8.821185162592059
Li 10.599567481810025 8.733823097028896 5.6219512967061895
Li 3.926397529323608 6.705776072290491 10.366677317849566
Li 6.829280380531951 6.185256484453787 6.753028554238868
