37
Energy = -57.19877391 eV
Li 10.574821585490634 7.354996472899079 3.855724876078605
Li 8.70202605762565 8.302032878373819 5.846145158611759
Li 11.286467414725585 8.95206679573549 7.089598527550174
Li 8.616667297337605 10.583480969730125 7.894265019315796
Li 10.606412877740398 9.740581461875644 10.228513724130613
Li 11.660454437155302 6.908066486974678 9.445380667903324
Li 6.347745282133614 10.182931138784392 5.432559845488517
Li 7.3979046404817685 9.476733088732107 10.503179030302913
Li 6.61064134128265 8.519783896667512 7.9074315355445295
Li 10.487877436836591 5.9901993013032575 6.641967078265266
Li 10.627427006994061 4.218758269320656 3.958536714485342
Li 7.517726676030349 8.229628809660909 3.063294313702651
Li 4.224691177816959 8.714625960179003 3.7572061522211726
Li 3.3879027786774234 11.221684651799105 5.563799308663613
Li 8.358451507861963 5.644522896084633 4.442426200000153
Li 9.263647995810857 7.090490395862963 11.557326704131793
Li 9.242632026844198 7.868118160281502 8.776932158374557
Li 6.072136830362483 7.200122487629129 5.312244768168878
Li 4.0336397132632555 8.782412659272593 6.745355361078508
Li 9.238447935706908 4.821943125566158 9.41949876119542
Li 1.5939322919822425 8.664736718497169 5.593100198356039
Li 6.8558937676450915 6.510034959991342 10.02023705641631
Li 5.767161449495749 5.702888144697044 2.952484337389455
Li 8.839529000358464 5.633180583745743 1.7813733724657568
Li 8.78173470671143 3.3979784094497005 6.454483171042919
Li 4.41103286649564 8.380723642747098 9.782897358972384
Li 7.712860410713421 5.8877642215377906 7.267038483328829
Li 5.344346901498343 11.008661690074707 8.29689028820925
Li 4.860590179805753 6.1622273009303425 7.8237367524010235
Li 3.37607474070043 6.096263376258707 5.335187665181693
Li 7.270427487942578 4.438797767752856 11.819048897236337
Li 7.745902697138876 3.2045307164512518 3.3942901284684637
Li 2.185625951296505 6.791569298723858 8.19819218263113
Li 6.408472228898797 3.767511111457326 8.828390962576321
Li 4.182061473353169 5.244042143239227 10.430110497885462
Li 5.877863034320709 4.232504318674824 5.719359934710236
Li 3.2899968043636814 3.921656348145678 7.638988160213016
