30
Energy = -44.86619646 eV
Li 8.194663181777466 11.345437787018444 4.363519070672902
Li 5.534159176695335 9.84031209375829 3.953264439342299
Li 8.3388424801363 8.721925360230275 2.77790566747213
Li 4.084135984418536 5.527615544652737 5.761442107069348
Li 7.81441211725214 8.828116236713795 5.530537482146185
Li 9.37140514270105 6.395260994240736 4.831786287317386
Li 5.36735424720115 3.9777514227999617 8.124321680153432
Li 6.396269020481298 6.757189475231866 4.052575323294789
Li 11.781813534156505 6.37544271490668 6.771650356786982
Li 8.939164981947208 10.984598919797632 7.264378526896
Li 10.371239776688354 3.620552548389228 6.885419502616128
Li 7.384990651744172 4.011205214677251 5.876379426124949
Li 4.70257495722189 8.497834704934954 6.335773068169835
Li 10.557125754697461 9.25063211090686 5.003058053200536
Li 6.479415132861392 6.391530310179963 6.7656687009332925
Li 9.953416444722304 8.409071225354172 7.832797690704276
Li 6.105993988672589 11.018569197666835 6.705138771749684
Li 7.1063903468143 8.518226521559152 8.3747129041988
Li 4.419560508213942 6.708562107477527 8.826443573912453
Li 9.019031274400033 5.853293632295811 7.53361422853953
Li 8.122757822302669 3.271803815814827 9.16436197159876
Li 7.152267428157739 5.7844285720846775 9.549668126602755
Li 7.575259077791031 10.528244387109305 9.997745589688751
Li 10.512772108172374 5.1734234892616895 9.643478971168255
Li 3.2209859006708172 10.936037489621564 6.128968107423376
Li 4.566482832525977 9.883624337578295 8.905405043217483
Li 5.277589336678862 4.5411117348979335 11.081629607419949
Li 8.212055907771932 5.06035204734522 11.902233502148167
Li 9.001799094779873 7.723709304898455 10.495773461862333
Li 6.104072410744626 7.732137320995694 11.228349379968849
