38
Energy = -58.09706608 eV
Li 12.559870203448927 7.278119847712488 4.81754547778875
Li 6.3839260250912835 2.722883157186156 10.42798942848568
Li 8.688219420494244 4.674126852438588 6.488556258793112
Li 10.041146317981335 8.213099158374595 3.2676789812643587
Li 9.278750529155573 3.1979158831721786 9.030534801194056
Li 10.241739221829986 5.204935437742933 3.9628645429295797
Li 11.594142828087904 4.973470990964011 6.887689216420645
Li 10.095415773543069 7.300049889346548 5.97899489709698
Li 12.096445157212482 7.916573595801291 7.836190824076865
Li 6.583345025738686 2.5923379778551436 7.219761259835602
Li 7.114530759737394 3.6824909319921204 4.112583881294114
Li 4.203521193757311 4.064812756892362 8.385672160694925
Li 8.358748574589411 4.981861152336932 11.466355125392461
Li 7.6847660222037 6.59083192849273 4.340269829368765
Li 7.038610599822848 4.9295415239733185 9.007184578848829
Li 10.972492232622113 9.92973533173049 5.7308860541404165
Li 7.512460681001474 7.277241726749346 7.266734958905174
Li 9.727395760173053 6.183710163539738 8.903847806492768
Li 4.027587014939526 3.3202758817918947 5.147119000068451
Li 5.846509096350129 5.1456086398681276 6.250870029891427
Li 9.297720422142255 9.168306697444299 8.336658821858558
Li 7.905729826656992 9.42655864536964 5.307985435936493
Li 2.059319898131006 5.297279444708154 3.3214518324331497
Li 5.290463969029971 5.607558442350624 11.092108411420075
Li 3.0843543761809378 6.0484069323367065 6.007896136295083
Li 4.8447711150993555 5.88117153052715 3.588381844724489
Li 6.14926405150434 9.812976336935279 7.930546524178095
Li 7.365906712418173 7.702102867580276 10.16080979426917
Li 8.52467531786588 11.567794425462777 7.100993833238763
Li 4.910345274899381 6.908789497419473 8.373183949618921
Li 5.289787241813037 8.015626026257873 5.6170104806350105
Li 7.154700548107448 10.9841736181038 10.13178884365307
Li 4.707609652203958 8.797673619010988 10.465002998702337
Li 2.8927282287183487 8.34586856089438 4.1018649474975675
Li 4.856078646664113 10.91413951250921 5.6813685966302305
Li 3.1486235423464626 8.913262185399889 7.253511454801649
Li 6.058522149807182 12.835918161244535 7.844858702743789
Li 3.982658690172917 11.25509686415868 8.98458025334929
