30
Energy = -44.55614647 eV
Li 9.750070763152904 7.887818244628472 2.5913845926787897
Li 7.659915520324166 9.986407234363734 3.542728668777076
Li 9.753105745721447 8.95989842537511 5.6082533388805045
Li 6.619750227406749 7.580818896538707 1.7212728718323949
Li 10.178469459298427 5.840962036426408 4.963336961776298
Li 6.826176424494248 9.391599427874773 6.465551715590225
Li 8.304481067493082 5.108537935191035 2.6057819335010506
Li 7.7657691648224905 7.313342562678162 4.357588180829725
Li 4.967705603151176 8.498867816258239 4.062509839801538
Li 8.577169468905783 9.129761466671477 8.860218703344618
Li 3.431840654561632 6.733660271833452 2.022467687944235
Li 8.427995501446388 6.778121685335189 7.202467696283508
Li 2.98114634862005 6.324150120805742 5.126497639094727
Li 5.628096656502634 10.051368708607464 9.59419577066727
Li 5.471277367636319 5.554909481108578 3.5543211891600035
Li 7.502175573223929 4.51150960587056 5.556932018229795
Li 3.01824160429624 3.9017053978789265 3.646583899971341
Li 3.949999546151434 8.811156774921491 7.083695205219648
Li 9.213805443049724 4.078254042361218 8.178471391511607
Li 5.649548401238559 6.66636065987987 6.206040909181998
Li 8.207872942201234 6.216504955021501 10.281243833588672
Li 6.468636754559238 4.784771009278229 8.431785628474124
Li 6.08809532444488 7.556245850009284 8.805986427231675
Li 4.602081622764309 3.963776089944784 6.225669117118394
Li 6.790111021673625 2.1866281087366675 7.626232840643617
Li 1.8387194294064502 3.857574180819737 6.786841536280536
Li 7.191765963643257 3.2268060030163985 10.529904284302464
Li 3.585059376718968 5.930130506740344 8.204604487238734
Li 5.199383901026636 5.658712508488961 10.848085843761595
Li 4.197605496181889 3.1704910428928295 9.12238847645544
