34
Energy = -51.99116009 eV
Li 10.92850273224687 7.096349805828656 2.6782247255182536
Li 7.893715396050727 5.888398821048373 2.317418881668105
Li 8.508350996863808 8.49045905506037 3.8415155454887255
Li 5.952641444844379 9.189989609889068 5.58556144800874
Li 5.464767007759855 7.9130745093581085 2.7894201695803784
Li 9.531905152455149 5.846977817938229 4.8238241973298095
Li 3.7409090834528023 9.109927773620473 7.834380592671712
Li 4.685378815143636 4.903762307942733 3.3200529982549796
Li 10.881695777506057 8.414453068973172 5.695087116637306
Li 8.492556639051978 10.576884642864107 6.363636309608851
Li 6.530464850811024 6.4329699108827985 4.81533101002201
Li 3.655056613173727 7.121406192974979 5.27618757424337
Li 5.586476978381181 11.637314447898708 7.327418166878381
Li 7.2579621664890155 3.6340793889954193 4.4967248150348205
Li 4.84210010791485 4.477262870407067 6.307423715178669
Li 2.256565162071746 4.26174261620303 5.43484057575329
Li 8.308248857687136 7.822802242665234 6.736840340139641
Li 2.97240957840079 5.876969115378345 8.157471609669178
Li 4.461374919182038 2.1724381106922155 5.008173060470112
Li 6.632748018469687 9.342863777253326 8.577810736119792
Li 7.7163013072094895 4.970793795343555 7.060112642793164
Li 4.982153885597226 10.71116176318825 10.285922657225752
Li 5.565026138844615 6.941220746181776 7.542683778848041
Li 7.8810723602458514 11.532515167625986 9.382730836768403
Li 3.460165573924604 2.706004994203057 7.886458050872546
Li 6.664242843320682 2.335210060043662 7.292194105793494
Li 9.735460347865756 8.98518302255393 8.82287159155993
Li 4.9196261272670005 7.549095391918893 10.293659454052877
Li 5.627291779492144 4.560374960498056 9.245227606304883
Li 10.378090633661582 6.033683925817173 7.766389969889137
Li 7.513685776337483 9.113061428533701 11.24321521688008
Li 9.682783863112052 3.117805229663684 6.355954748732067
Li 7.853918143037019 6.713829710806906 9.484450701106304
Li 8.732431164512061 3.7379509127817454 9.278099356919185
