39
Energy = -59.90403994 eV
Li 7.017529456324396 4.88672220832734 11.165259894222183
Li 4.69387174730569 2.9960753547109724 9.48170663051108
Li 2.485917738818504 4.907127472386071 7.953333871059819
Li 6.866129574864691 7.29977308036272 13.533738790214894
Li 6.063222018397167 7.820924834814219 10.798299788114909
Li 7.520410665573341 3.681002265877229 8.252326449382593
Li 3.3556777396603414 8.01576632403954 9.092253628731736
Li 4.903494744437503 3.853017359303204 6.483670520744949
Li 10.071432987407949 4.715324352037653 9.766178652729149
Li 7.99324704324372 3.8069007541237063 5.144190390580652
Li 10.315919370034473 2.873174333416699 6.9399563189509825
Li 2.704692632840508 5.002674793948034 4.599764424428743
Li 9.02312826613866 7.372504862966932 11.484091574928282
Li 8.053167272427766 6.539100021312457 9.034980805769306
Li 5.176815675448 5.6497471685393075 8.871499729757915
Li 5.669624554754313 5.657173259527975 4.01922144992042
Li 3.9747030274858592 6.786891634001596 6.362542451527307
Li 7.532523723586208 10.066227817598913 11.992872090584894
Li 5.909093485276031 8.285795195611465 7.990681094972389
Li 8.28916441882012 5.172509268966186 2.247279959080852
Li 6.985339858260495 8.068254059116754 2.4693759607157437
Li 6.885710416732808 5.993997807807002 6.533472515354002
Li 9.80952275365748 5.572953532445516 6.920001884210776
Li 10.240074745654248 7.601516048271647 2.4424252225058454
Li 4.041635488429472 9.867890497656994 6.536084846752341
Li 3.8462974851462928 8.079168685047346 3.716126461299925
Li 10.74788853128877 7.7828623572489235 8.814587532461138
Li 6.255329881386534 8.434902515283854 5.202840785308721
Li 8.254677730082454 9.455950010301487 9.322484313573382
Li 8.67815469881383 8.293050667142312 6.812060549804712
Li 8.620829022113789 6.745840759590049 4.435048365971533
Li 10.788559044269224 4.928012121231286 4.239052190970514
Li 5.463927255091169 10.605127912984493 9.53003858972542
Li 5.702466987656919 10.722469111988728 3.900360786677153
Li 11.14521265721322 7.936526697486495 5.519784357476309
Li 8.830449333279937 9.785587836751354 4.382015792209879
Li 10.20479884387296 10.62765676952666 7.350009059660768
Li 8.23628704461875 12.194497054787819 9.511080166766078
Li 7.078340533286838 10.88128934055258 6.875935812701476
