30
Energy = -44.76040362 eV
Li 8.828597924584715 8.123439649044563 3.978580414448952
Li 6.297742692900854 9.364948729470344 2.8317342487416965
Li 9.055777505516884 4.917857893284338 4.551007875868614
Li 6.425480763728399 6.223679220260867 3.448517955395675
Li 8.195415747326981 10.73701032414776 5.429082602207806
Li 4.983674133732674 10.940608164900201 5.051358133458856
Li 6.563743235530228 3.1296364187429613 4.691077870540563
Li 10.791539338278866 8.822928154036733 6.475724628668075
Li 6.347322550637103 8.564113349291436 5.531143347543826
Li 8.633335092652924 6.859711007756578 6.356498670382482
Li 3.942226459672659 7.887441946839139 4.466625130909344
Li 4.004728813185626 4.641654678271225 4.759552757855779
Li 8.502825573112553 3.4925956800199973 7.2697965546477645
Li 6.304013795835323 5.515250478182558 6.172342736274236
Li 9.658010077427852 11.13120817030651 8.666946228339738
Li 5.333057277011341 3.379308541307075 7.544273220403716
Li 3.9779132117950087 9.229815301996297 7.288241509765999
Li 6.343009458550624 10.874384497499962 8.02195229033272
Li 3.7623476677563072 6.294090703163257 7.277430888446457
Li 8.38528538707987 9.055831130494804 7.673054757089819
Li 8.048804819788321 5.729550986575476 8.815789007627489
Li 6.135575930637979 7.66941292422392 8.284545882633582
Li 10.754367575726084 5.61146720570293 7.40898222735514
Li 5.205964270732427 5.448262723763109 9.755509837277332
Li 7.616963161541195 9.360418688970054 10.350963629892385
Li 4.63901763119629 8.43995262666361 10.300632016459579
Li 10.057741709257277 7.783592075391336 9.483689205611999
Li 10.085418595671694 4.663326354434068 10.276715366170732
Li 7.325072929775232 3.4105205801239755 10.216527718767956
Li 7.552425090889724 6.455380216667412 11.379101708414478
