36
Energy = -54.21595575 eV
Li 8.79660278545931 3.820372930677248 8.395012914409097
Li 6.178353133844748 4.645556710554308 9.476819282578791
Li 11.128576853931223 5.709080459786829 8.283435444289042
Li 6.442451829104398 1.7481227510469635 8.836770990727373
Li 10.759260221122515 3.8105823934244043 5.8543221863660015
Li 8.515107140925902 6.70988506496884 8.989113720697489
Li 11.53554968279059 7.053662245073793 5.7106144140098545
Li 7.740453532441763 2.7158096159834644 6.1069810415008385
Li 3.4285975733990366 3.4024518593620527 9.455398708158498
Li 6.446084773489152 5.870702899593378 6.90191807676991
Li 5.87931808882981 7.767744895765009 9.237925542764483
Li 10.224029837265745 8.743858899390842 7.657148926285867
Li 8.903834852603955 5.893221892897365 5.7022395321767485
Li 10.452771540929568 5.914758805114445 3.268450999496226
Li 8.862742787994678 3.4397438416409276 3.4221062056024976
Li 4.973074399150763 3.4230835817172363 6.868572830492034
Li 8.178139052303157 9.791094504205702 9.540483484390942
Li 3.990063985851439 6.17110135037595 10.960995967893256
Li 7.531079782146484 8.669533243453994 6.955042293490009
Li 3.8140336081255106 5.930018867241785 8.100052501410268
Li 1.4196244070404653 5.884629260358352 9.227251309359836
Li 6.2669923135597 4.455139679108464 4.198503240810065
Li 2.0176594054425574 4.1814854468892415 6.690810776518952
Li 8.64301956602513 11.22346392036457 6.7202610512145595
Li 3.132139864233419 8.64649360551999 9.100180035814006
Li 8.98660546466417 8.672585453116534 4.4027094677710465
Li 6.306840321688175 7.45860221561565 4.357563037086825
Li 5.7448487548362595 10.681453084817996 7.956506749738243
Li 7.731124647268826 6.232186422501954 2.3200727936408705
Li 3.959860387207513 5.845823428955722 5.11491636870988
Li 4.645034985297698 8.325936957030946 6.596041597664537
Li 1.8647280232496302 7.378047206751073 6.380266708716955
Li 6.307473226536257 10.339465846450928 4.871604948062668
Li 4.760731362402268 6.346665878052218 2.1866280199763275
Li 6.467714910520209 9.03927389036344 2.0535398133520935
Li 3.8044651628976154 8.741987455243928 3.8032818795262884
