38
Energy = -57.70889738 eV
Li 4.150024496773533 2.7954179516102524 3.8300453936711363
Li 6.514838460683649 2.400524431810608 1.6543220215294685
Li 7.31738533101926 1.677968167753565 4.606619723550552
Li 5.6948007553511095 3.293408171038999 6.196459964020147
Li 4.487834177655687 4.646590371411035 1.299053352988042
Li 9.199978969533932 3.6087057992639533 2.886484244773939
Li 7.814923353107937 2.5087751721189795 8.122371650888969
Li 3.5274673821308964 5.808969174266135 4.042778447695092
Li 6.4122606838492056 4.468518668044207 3.5040607460363637
Li 7.438504790052711 5.174359452000381 0.8649835580035998
Li 6.88846166370986 5.148168265212586 7.7728271188325175
Li 4.905158601769902 3.6611422015181505 9.306529688688796
Li 3.4666879020529144 4.729167794157862 6.819836176386032
Li 4.8218007424665785 6.511169616691083 8.861656819512806
Li 5.75016128948721 6.462233988783937 5.580724129485716
Li 2.811760526071589 7.580708604899875 6.899967169189237
Li 4.314796187156945 5.932536526952383 11.506762063879956
Li 8.45477393615054 4.185642593250079 5.638678963083143
Li 2.1744844453230856 5.737186413112588 9.436242920399666
Li 10.931470557370377 5.781102432090534 5.390933474702188
Li 5.76939493170971 7.1861145272647455 2.61670659667884
Li 8.592543187033106 6.486339057771855 3.495166300470171
Li 7.32316039939004 5.317423639690315 10.520884593412712
Li 9.665361498396635 5.157220713796603 8.294084973081796
Li 8.53511425864255 7.064360637762431 6.212027223108495
Li 3.414459702628109 8.665998130469719 9.801190295325563
Li 4.077533051754397 9.053294102371535 4.610176298665966
Li 5.456390116009512 8.813602289328887 7.129036769959466
Li 10.243061807948559 8.877679324481548 4.845354993192683
Li 7.165878324532793 9.025767230985403 4.609558598840152
Li 6.134296572427655 8.262502857928087 11.046163801419857
Li 3.2573864063827993 10.57585895913571 7.292425101755432
Li 10.555655908280126 8.01627229811699 7.870075976146808
Li 7.592076725007012 7.719959515318705 8.728488538449689
Li 8.347983891333353 9.996405281321556 7.161477169085274
Li 6.029107161855735 10.558353396872743 9.14007615173493
Li 5.854716834656913 11.414389852069895 5.964544161817079
Li 8.892186316034138 9.558046928125778 10.245707974187027
