37
Energy = -56.26945068 eV
Li 7.908144225471681 4.956423251090406 5.384556872729105
Li 7.683516317687679 2.20300897918028 4.7730962702766835
Li 8.818858312836953 4.947978957932564 2.9285441174463753
Li 10.386043633802817 3.733788849848421 5.808618764048268
Li 5.792774401593806 6.855030624131563 1.759583977526788
Li 3.3413589369338617 6.028240519625181 3.646772434979379
Li 10.27381540826306 6.748386272849732 5.240382134710115
Li 8.06911242129943 8.017510630423159 3.35281850059382
Li 4.850228959607275 8.938961528751042 3.7156611564198236
Li 7.541219312730138 3.0220693505731764 7.625316268020213
Li 11.955477753177547 6.636815935345511 7.827737639325191
Li 9.982777011813846 9.869522809808183 5.500527562642008
Li 5.775111696552512 6.474626919678081 4.605211211352949
Li 5.879109412237826 4.090948847899611 3.0613841640639077
Li 11.616760715841615 9.630312561233103 9.145382703616393
Li 7.748084168253581 7.928863864856406 6.056334349998942
Li 9.737653012716587 8.359606709365297 7.845419121544586
Li 5.193175388502076 3.6504757259336436 5.816134663073126
Li 6.286484744695497 5.779488656369782 7.492185547611144
Li 2.611430086734813 8.688617988028355 5.505172865694525
Li 9.842537843606785 7.136371805724756 10.400265636975226
Li 5.5408350618801485 0.981996476602102 6.9125616803257435
Li 4.401234219630938 11.073000438122197 6.583017173502984
Li 9.204539040212701 5.532632739296979 7.87752437142145
Li 6.963590637579895 10.434396305081716 4.766332158033276
Li 3.5612900890206167 6.057292509103162 6.7916805237085836
Li 8.643467636455565 9.909849911638117 10.316184663232029
Li 5.171276351779792 8.51372595421367 6.838141584630169
Li 4.787695421356089 3.601375368685422 8.718046179758094
Li 7.30866230905086 7.7788728157555775 9.018853964331743
Li 7.261491884148511 5.055196522785627 10.143397473474094
Li 2.768493800792163 8.841247153720065 8.527848736451135
Li 5.352638360463625 9.758422004688617 9.598545343353363
Li 4.586429945642564 6.746110800814512 9.631942461733717
Li 7.552743881810324 10.418640311114197 7.582913256811168
Li 6.596088270181017 7.815996870323682 11.678043801382323
Li 3.451098013200902 8.558117564802336 11.625750656308142
