31
Energy = -46.24948717 eV
Li 10.734366528838367 6.250649703797706 10.035451637422524
Li 8.427705749361905 8.625909879441542 9.951872461246696
Li 5.645684329223902 8.12099586350568 11.23584688481344
Li 7.655367944398988 5.656923648328781 10.501670507803748
Li 9.361884182076349 3.7266991170048422 8.590283015608113
Li 6.493412421044912 4.474488749933739 7.906208178053515
Li 7.318606933981012 2.1426992891519028 6.395818965055051
Li 6.131777347577718 7.305290358273231 8.650949161887985
Li 11.373382230918624 5.593117894554018 7.0979891636581245
Li 4.244498978413947 2.719962892705089 6.520861733530892
Li 10.70280916610292 8.605204461783536 7.9136243172631895
Li 6.008970316333401 10.204739696393178 8.98655063533786
Li 3.420393746799251 8.297673606718947 8.833000631365886
Li 8.792029683358335 4.492518215493074 5.57354641315075
Li 8.88739666110724 6.399177267627702 7.971229263771531
Li 8.86780223971556 11.363922191280606 8.332425078839325
Li 5.716686390371568 4.37059794154284 4.980320438183631
Li 4.928286702863262 8.77954350678383 6.433974672917187
Li 9.548292329609811 7.473822967966894 5.169790855968494
Li 7.317452462990762 2.7467311159642294 3.3654886695294346
Li 6.923594164406433 6.732990781801285 5.95069456566238
Li 4.077004854249902 5.91292560933843 6.989762982630334
Li 2.704315396944193 4.790918063992252 4.660592621641682
Li 6.415560273688845 11.328551357423652 6.1079530949347784
Li 7.933839334822322 9.110264314944196 7.055126827075849
Li 2.2270453952259683 7.9047802219079255 5.817101814577305
Li 7.34804837291614 5.91506663657042 3.1900475304231213
Li 4.757617707471614 4.278537049233995 2.3899046405129303
Li 4.557451598085532 7.0014095277868735 4.064247780819489
Li 3.9494017555837115 10.077238905932143 4.201298891042675
Li 6.916217213887609 8.97524601161171 4.18239288299253
