36
Energy = -55.06970605 eV
Li 8.544709490599088 10.526175048623479 9.031988885367635
Li 10.394129178236902 8.548521239573217 10.367620671223557
Li 10.301811022091849 9.02149254306863 7.221522627473289
Li 8.873967468199535 6.09226453248044 11.362300541662798
Li 8.179938599947501 7.55585445972391 8.954093190600393
Li 10.530617572294942 6.110155339387427 8.458537128899305
Li 8.619226084739772 11.777766837861456 6.190528171349555
Li 8.153845907469751 4.27368154596269 9.12691094893043
Li 7.4210611615398845 9.409026257257672 6.720999273568489
Li 11.193442088867878 6.61402608428482 5.418478151939593
Li 6.417690715923067 9.00046716770985 10.7230193322742
Li 9.364041340426684 4.246478510276791 6.244096924114379
Li 8.449807912563692 6.835013521293679 6.10034993777456
Li 6.095083228696936 5.981321701576273 10.526316591623495
Li 9.106906859221445 9.03393681535774 4.375199784926199
Li 6.281652141353661 5.642180871212261 7.531269266085815
Li 8.27222129173069 2.7988457479310744 3.7500704375462948
Li 7.101963405647382 3.4647279855098905 11.7584131718673
Li 5.819629831924219 11.226490879703638 8.128128200081644
Li 9.106757218526123 5.807301880329471 3.4106240528635285
Li 6.2264647694146715 10.499678520676277 4.559399473902845
Li 5.540366611858537 7.610774758343933 5.44803618975698
Li 6.709069445141502 4.8949742430831975 4.675241330862221
Li 5.221975945888277 3.4624662070431533 9.233748723452338
Li 6.779863835111365 2.789756244044477 6.635954962061773
Li 5.402264722926412 8.237746526827683 8.26311915691217
Li 3.932310368471638 9.96366610601351 6.3884396993387
Li 3.770532844900698 8.792171174085574 3.563004026753992
Li 6.566509019925044 4.701505523508976 1.911435284978349
Li 3.6218317857818487 6.197599639443185 9.02093796485072
Li 4.130281008505234 4.439097470668219 6.405818845810017
Li 6.706490152542891 7.616507038984976 3.0214358374415555
Li 5.172199930856374 2.724863334690974 3.95433160510472
Li 2.8743242899083343 7.302495777478843 6.337724214597869
Li 3.2576671659765 9.347864869583168 9.406214174575638
Li 4.179987735633096 5.766770142527075 3.673937310300646
