36
Energy = -54.62250815 eV
Li 8.051851387985376 6.505945989248501 7.262357959807544
Li 7.297672755161913 1.8911462928154477 6.507447905888648
Li 6.993026834664918 7.236402400972645 9.833371059202436
Li 8.999572427202612 6.121589616269511 4.5357425691857065
Li 8.327122828934334 3.328016285825451 3.846436312684183
Li 11.377701185023943 4.847126827219609 4.313975047654599
Li 8.778083270535724 8.217141709506924 11.698456453259979
Li 11.108101026663379 10.121712724314849 6.48127835101918
Li 5.203131441168079 2.505439145535701 4.303066211759493
Li 11.075917687184168 8.22759341908006 3.931886303302425
Li 4.6561730189387305 3.207436095403383 7.314481917258111
Li 4.395204261837475 5.552262653045714 10.064283773433013
Li 8.230704692536879 8.469751946590625 2.7162101134844656
Li 5.666667461846441 8.088349724223427 12.117402410948435
Li 9.422612280306733 11.03761732793659 4.037945219494864
Li 6.410233949439409 7.175855843917237 4.75670138718844
Li 6.591815369978 4.438080785244665 5.7710174192289045
Li 8.855292207092056 8.835618122073898 5.525199169436564
Li 3.8775879590328493 8.216429588817865 5.7444152275734846
Li 4.042393796601642 5.362906731107803 4.559369929913647
Li 1.3221376331551749 6.932072102530788 4.863848101136154
Li 8.083838587115707 11.174129764002444 7.037984782573308
Li 6.3825978733526645 10.128441930817235 4.66381531221731
Li 9.471274703766984 4.132591767889476 6.691559177006084
Li 4.67688981803207 10.753350310452495 7.501293908550345
Li 10.88077635294292 6.89310086775051 6.725320036433826
Li 5.087898784554434 6.249840206392112 7.485088493245238
Li 2.1085182249598913 7.844463625810599 7.8937721561273175
Li 2.5405314861166226 5.228929828213498 6.980012010706846
Li 9.271415865843124 8.75875268390498 8.604396554077177
Li 6.470245429674719 8.777490110068896 7.269760801227306
Li 7.2010366559198005 5.465679889200466 11.780755475242907
Li 4.468430282660208 8.449404227252904 9.374931509551022
Li 7.043473293210366 4.287347582293777 8.806611527446856
Li 9.627632758305642 5.915910959275899 9.587847189420843
Li 6.883655306288092 10.115529457383783 9.952881068889555
