31
Energy = -47.02042864 eV
Li 7.637702496752157 6.34681376471298 10.514710575297347
Li 5.298619462009558 4.493408845625217 9.358974750099355
Li 8.455230035145062 8.225361520811628 8.322844432901686
Li 6.803057642864451 9.365997502958935 10.548391100992209
Li 4.6744005040983465 7.03858266807737 11.358525252946205
Li 2.867923132327375 6.237933505503501 8.735171046905382
Li 3.827584251557281 9.408284856394728 9.563182406357674
Li 10.239705503683556 5.897046549429204 8.519431709971316
Li 9.082293632657214 10.949456551362108 8.619766012378046
Li 9.234228724876829 3.7474798308679396 6.068612384865988
Li 6.25395641808862 2.9535447527808523 6.668562259984626
Li 3.1603001149434933 3.2822589757874194 7.273498336010548
Li 6.250041149467733 10.087985890441168 7.645410145355364
Li 7.499482092631535 5.518086555342893 7.659369789193618
Li 5.573975714875385 7.408297155243775 8.833351666411586
Li 5.654820804444699 9.784079219194316 4.546510477021744
Li 4.721598619186729 5.426193039661436 6.653274464159555
Li 3.7889002425706995 8.294268796136041 6.574710633308249
Li 11.064036064882016 8.79955961562466 7.189818145224874
Li 7.023797769923008 5.0609552219155605 4.757588384454924
Li 7.452167994536369 2.599473127516665 3.6829630233801427
Li 10.892812884272233 8.13273260423588 3.9224801113459318
Li 2.236268840592883 5.63233716114564 5.495683027548162
Li 9.370987009212934 5.13981731031951 3.2021429475812075
Li 8.675092097765472 9.663626115303726 5.751491165481656
Li 6.4964793287477205 7.64947330241353 6.069427872352054
Li 4.712892489917473 6.806737192533478 3.9672001202648737
Li 9.34874142512953 6.76290680002905 5.831673430987831
Li 4.45633074174917 3.7162935002430277 4.261854384000555
Li 7.7432788940307935 7.638021879990673 3.4897573520456784
Li 6.427590651306502 5.060335426265503 2.0474725821335107
