32
Energy = -48.30677594 eV
Li 3.0246887710082273 4.962334126955358 9.954791542043976
Li 4.508157448278425 3.194916584850055 7.9316289862869205
Li 2.8218745131121032 7.8456088406856725 9.160042257120606
Li 2.8804107138761323 5.651478704497114 6.655977445046802
Li 7.293019494739985 2.039440964984681 9.107777369872696
Li 5.352153217125692 4.237023439246272 4.902331377661987
Li 6.14682469099834 4.849513589868686 10.327378271229696
Li 6.934211431543024 1.9755396297636485 5.985408398578207
Li 3.611766306188512 8.705601302530726 6.336313309424144
Li 4.892112847905955 6.292598160946891 8.322783172980005
Li 3.9782482584202077 6.843996313407332 3.7840246494459184
Li 6.944814955346985 4.229018132001969 7.609087541828613
Li 8.339623280355173 3.4165895679584057 3.4809807018124386
Li 6.1466108159979225 8.275949072970285 10.04524179197559
Li 7.116714773554916 6.432923392469263 3.144486543029199
Li 5.764217249571799 6.7541059370466945 5.7987130810438705
Li 8.132380111592349 5.165882926311042 5.446274186577188
Li 6.039860054362405 9.158522257471246 4.25980365049589
Li 7.678872633997634 6.800876329284743 8.01379662160047
Li 6.237197333147225 9.188227831494117 7.306269495234844
Li 4.213367469520369 10.495340980754257 8.844941695228965
Li 8.458469166289408 7.972938289332323 5.441921157864392
Li 9.071142960909093 4.746813381537601 9.328364249987763
Li 8.981990538214031 9.134676694648126 3.017226019203687
Li 9.604832871764842 3.1872438068583624 6.6291543185945585
Li 5.1738094900882965 11.491823430678867 6.154386705692504
Li 10.208668642197495 6.183831945900892 3.7927727403941014
Li 9.246483281400964 9.050512452070976 8.139290274628783
Li 7.121695639084465 11.288378858145611 8.762663356807199
Li 10.346214702714127 6.321775494600372 6.93975547828044
Li 8.29191232677238 10.763175781128599 5.743570972048146
Li 10.965599241698827 8.992440062281668 5.425376602823137
