33
Energy = -50.21500257 eV
Li 7.22509323292479 9.922049612689966 7.301920384809652
Li 10.335115579060007 9.086197740876043 7.149028143006696
Li 5.557897188008575 11.488029909811624 5.160231239479984
Li 8.416730814902222 10.102626365008453 4.460928876286601
Li 5.836271454103512 10.074322636069335 2.380735673009467
Li 10.387439622036938 6.020909305321765 7.104774963177058
Li 10.565618321613655 7.751497009654418 4.299709562873396
Li 4.109771526929776 9.583421374088212 7.151059115179598
Li 11.30787042156278 7.168715599700301 9.641271111613886
Li 7.650113086574724 7.5324022115210205 2.9501631333452534
Li 4.4369201300691214 7.171681881185437 2.725364141024509
Li 8.480872252376027 7.497298754347364 8.869241836048353
Li 8.266120663065747 7.6270163984188795 5.780043651440331
Li 5.868194900236096 7.389628332316294 7.392060404778857
Li 5.694260359614901 8.799004801724818 4.790141229844491
Li 3.227427627091786 9.761307019398258 4.022792423419531
Li 8.836447507791322 5.040898991964863 4.5228185111889845
Li 5.731436091090008 8.775733442249386 9.753070445271137
Li 4.584101941491379 4.704611566174324 7.169243068724723
Li 9.18573780026368 4.694852572044117 9.578796773550147
Li 6.113518974947518 5.598322132060365 9.676289956135538
Li 6.011651484684198 5.913628713600265 4.854600651280864
Li 3.3478967403011444 6.727682531533771 8.741153063428433
Li 7.596013958279181 5.129314039950527 7.202754295780969
Li 3.3498942138261705 6.965358985231935 5.618750001791316
Li 3.6594318343056327 4.190581005119808 4.435536212762152
Li 6.466594510120187 3.093318482865906 5.3942369083654675
Li 9.16575637946127 2.84031893610101 6.893689058201733
Li 3.6046359726138033 3.64716572809339 9.544084206382873
Li 3.966862848098601 2.0246401363384248 6.855789327985774
Li 1.8730330811228184 4.435237411981574 7.069202926143533
Li 6.5051217662871545 2.839525377002522 8.520239071790716
Li 6.878319291418191 0.5770311257077951 6.682520568904731
