32
Energy = -48.2795257 eV
Li 12.566117259981217 8.337344026500027 13.274675007554427
Li 7.254673726553307 8.57958364005913 12.979732975029053
Li 10.01814037467361 10.998995127821965 9.56037579959986
Li 10.108299020721347 9.855250595975411 14.313029271246274
Li 10.22343974074567 7.620788610942132 6.276442749799007
Li 9.768398427059447 8.530808099775733 11.959280838896568
Li 8.349934371863522 6.356497308054827 10.885071621805336
Li 11.457383186793985 6.411977922909755 11.186349467734303
Li 5.2756160713508375 6.600490761987214 6.856575713002705
Li 7.729652360270051 9.299635291577832 10.080347237173164
Li 7.164754822423316 11.614577347980678 5.741731064304022
Li 8.739990360590769 11.333199754140143 12.010958364081864
Li 9.846902746054885 10.319184347719748 4.810987758006154
Li 11.757297054415618 10.02253556021214 7.4108234343482025
Li 13.1927720676919 8.576357966127242 9.804123723443555
Li 7.979197455471307 5.45433004954412 5.901805629545753
Li 7.336245539701132 8.451686050835608 5.256302706842363
Li 10.037638312909042 5.449511233145433 8.470923668198274
Li 7.446735041277836 12.100307899572066 8.957026887269814
Li 12.672466325363969 12.066965402754489 9.679931026834772
Li 11.649413995587638 12.33775802451235 12.744951478673164
Li 8.70195342548214 9.928006776129445 7.257753784706184
Li 9.972673690773203 12.57907767166819 7.176663228325168
Li 9.994168836422205 13.61480722549176 10.28045668322288
Li 5.591969898348149 7.249443484673642 9.964877713119918
Li 5.850238256151583 9.57846169860473 7.725808733537952
Li 7.743842057951174 7.222289382497739 8.008398710805654
Li 9.79917775949645 6.691386623812594 13.899983360300462
Li 11.722338261512169 10.117188098422742 11.39686475190652
Li 6.853465201523393 4.664249682426404 8.645046329259536
Li 14.305610132135962 10.708543167428124 12.043762223687631
Li 10.352672470965484 8.216470927008528 9.196021052671647
