36
Energy = -54.67571286 eV
Li 8.993127941466602 9.397491008010535 4.176916611044365
Li 5.119351469142886 6.0504287366057925 6.38413823457037
Li 3.0991517033714047 8.34995673307147 7.8134423593691364
Li 10.5273580444312 11.827256744326727 6.483175548652221
Li 7.012541735786779 5.146181370728347 8.955927221626663
Li 7.8126047764830755 9.57824581791998 8.91836597663351
Li 10.160517751977407 10.762724295128026 9.173189606807169
Li 6.9820408521310675 6.795653385352999 3.7532327391671947
Li 5.713106992491282 7.895482171397786 8.326774633423904
Li 9.50391121795193 12.093650173290587 11.624826293920764
Li 12.417355149217096 7.241667944361592 7.154719495615648
Li 4.1715568685729085 6.015142345406732 9.604778274905124
Li 11.024481346949282 8.114910725805911 9.605560054057145
Li 11.305000499542967 7.738672703618741 12.761783111266555
Li 8.123957905503277 12.58554202546368 8.892421484228155
Li 4.459295895086417 8.9027878246022 10.66549279691286
Li 5.249354495360811 9.051176593383081 5.50786021967322
Li 8.04279079369733 5.006272959749946 6.1546663598250575
Li 5.219613381462051 10.735215313435196 8.307011993866588
Li 11.57889783637069 12.993923308229613 9.387160203164731
Li 10.166509971910395 9.084283467771947 6.8314084921476645
Li 7.588966995918085 7.795279613913513 6.153074813003543
Li 12.792535184233373 6.259271578351988 10.19002020122514
Li 12.039249256592855 10.353349340262241 11.350340110346009
Li 12.69984463327203 10.158081391549558 8.116039581645442
Li 9.607974086139793 5.985680639805085 10.998658087421326
Li 8.791727928094437 7.109409932669168 8.450657414633616
Li 10.201710434182798 6.7531478892643 5.152187156633866
Li 6.977193318930316 7.442651727855038 10.888525491960538
Li 7.477180067582076 8.723495252794626 13.56282503990736
Li 10.606175934267458 5.130351466712601 8.058606800316543
Li 6.827585018405317 10.717713562547287 11.216277680630848
Li 10.138310243370224 10.305852524231138 13.959333934054014
Li 12.102640736091278 9.443065758797411 4.912205652205272
Li 7.651010094256313 10.745210704588347 6.4624420827359845
Li 9.260206838866461 9.15561036810701 11.49079164151334
