33
Energy = -49.75354994 eV
Li 9.213819425522571 8.401472274803893 10.421308388904006
Li 10.228691500923865 8.363396563416428 7.30734491384641
Li 7.812523426645183 7.041356240197651 8.720527615847379
Li 7.690349862834808 9.859644604619497 7.612320298606272
Li 10.311086779133579 5.51790810318225 7.47813961151893
Li 9.319621629691067 5.083537572076277 10.198892321300965
Li 8.951498993389373 9.227007512712543 4.461565831399518
Li 6.874252792344829 6.367219715718902 11.363326583743373
Li 10.634646565776178 6.705443020932442 4.618649702035077
Li 8.001883786786616 7.11240280357714 5.927800258462439
Li 4.646882587694277 10.690703073405928 7.756599377870733
Li 7.673102002791178 4.4315248509091685 7.930585780914306
Li 5.997423266357266 8.953231365563907 9.99539496407869
Li 9.552986060570431 2.4834217757595187 8.074737876466063
Li 6.018793555171164 9.713317089932868 5.031689184885308
Li 6.694983160352167 3.304604905131438 10.049786641748124
Li 3.107995681118816 8.880140278891202 5.819354876282993
Li 8.990329071798337 4.1724457561069865 5.326048525835259
Li 5.404699885281558 7.989210725262337 7.267467228871513
Li 3.815494520810814 9.015936443692322 2.7772681325823285
Li 7.951119327981605 6.353645817251176 3.2682377292891838
Li 6.753757144873431 8.654244710413726 2.25892165086154
Li 5.144981591218351 5.847865997754859 9.12947317406892
Li 5.115657163558188 7.075082068362862 4.316254642611477
Li 5.9163644093116 5.236045902983509 6.154287198390238
Li 6.820465272653457 2.2985475662258965 6.310471947483424
Li 3.199904673207445 8.245999930600865 9.035791764486898
Li 3.1353209010241163 6.08349126983575 6.779550638884313
Li 2.342595456010735 6.59956959629294 3.822639491873076
Li 4.428907090346792 3.4023767935006113 7.766195035109754
Li 6.566540819402737 3.9219826106521354 3.6516626227143276
Li 4.917827006582658 5.99569719806037 1.9001764450676086
Li 3.8630610851589555 4.100479898333125 4.606777927563053
