35
Energy = -51.78846218 eV
Li 10.00844423213893 4.001600531224552 4.91559426448218
Li 11.011609299802545 6.634077852233919 4.92981185354818
Li 6.280740402011943 7.227449390708001 2.1624026834071706
Li 9.422896071259181 8.570519976681037 3.553123565832869
Li 8.156699256426842 6.002448359414037 3.964163003065907
Li 8.998734424159132 10.645673770470225 5.307523343226429
Li 10.10367225693102 5.365598713684714 7.617979300906563
Li 9.230534098588771 2.374303580140066 7.014936142855354
Li 11.186077951798833 9.157528098676288 6.438434637350893
Li 4.035319536609145 7.653515880111487 3.8851258145749457
Li 7.232661370534938 2.8482014209844277 4.47886359119929
Li 5.461761482947313 5.203638093962702 4.2285688428037105
Li 8.742426523086493 7.67070007302821 6.3901793796654625
Li 6.46550244552405 11.299485190668062 6.538817080597864
Li 6.60753496184539 8.667959178414774 4.756716632221734
Li 1.604899106957265 8.32444125557587 5.27697243441617
Li 2.671395007736223 5.649450218959438 5.661355010684478
Li 5.076457871878022 6.546506518465905 6.874885613306817
Li 4.152891982539169 9.513760845414556 6.170193507072777
Li 7.362331330896772 4.6905454808769536 6.572326162261369
Li 6.512905432632493 8.760198625579532 7.801320178978176
Li 6.4764652554051025 1.8253652011690178 7.427975299674061
Li 9.324448015516696 6.040294827250542 10.999135613744437
Li 10.199780990491954 7.879134615799724 8.98478716316434
Li 8.371063383808293 3.7371049507932983 9.402039260051538
Li 7.523391578447681 6.365766053847158 8.767166604455353
Li 6.642951099008225 11.026875740901158 9.544782251427373
Li 2.9598281823878123 4.96024598834614 8.607940088453923
Li 2.5500041324737115 7.68798836290731 7.953195882243241
Li 4.487142621267887 3.5536723991159938 6.406764408201157
Li 9.077163526562357 10.373101331021777 8.175191048602093
Li 4.883114413319105 7.002629065955214 9.848910931615151
Li 4.120866214509952 9.738803930677113 9.162860555579798
Li 5.5934701445662425 4.122082230244061 9.076089033036803
Li 7.418244448605184 8.458814646246912 10.7110804826157
