35
Energy = -53.6713029 eV
Li 9.144898831617274 9.737617831778481 7.248238877648616
Li 10.871920744933227 7.1860271827540085 8.005450447402671
Li 11.108308976499075 8.306507481673146 5.0903768427097
Li 7.7738093229939995 7.530507383276417 8.942046041786643
Li 8.272567315509924 9.283675027317 4.200140868738331
Li 6.310146619425581 8.816799809003736 6.484264254218196
Li 6.050500138564458 4.924872070689988 9.684237245791524
Li 8.786100306646219 4.727022437454969 7.954302438307089
Li 5.5799383389639985 7.628910650307139 11.292339869728783
Li 8.820870747319518 7.20601969202769 6.151042440142444
Li 6.325141385406528 5.832828547312776 7.003001559373483
Li 9.065362316755973 6.574426994544527 3.217972606376007
Li 10.70136824942083 5.1213798753051325 5.534488444335811
Li 5.934803315601099 9.965326419072777 9.174534458397716
Li 6.454969171507801 6.919587817577554 4.339155639394343
Li 4.697021835079128 7.395762869967511 8.673739039008245
Li 3.0420991907703283 8.957488359917368 10.079054503843315
Li 9.19157610921351 2.2564817530262626 6.0229427294308024
Li 3.1522627873033935 5.884509573675805 10.411182919145304
Li 7.8721879361957585 4.488792135255835 5.1542435768004635
Li 9.289691526274312 3.4129742266775223 3.1656999431597432
Li 6.270511551255022 2.9273572566182366 7.128015624350489
Li 3.981210467971157 7.019355033962004 5.8234971621458715
Li 6.612640870198639 7.901145785835054 1.7753239352203503
Li 3.445499000612907 9.57076138110637 7.022691768781398
Li 4.8880164447278736 4.379440494863164 4.847711449373165
Li 3.749258963950913 4.5527597774338515 7.647580751865649
Li 1.87006651068496 7.021569045149198 7.6765890773362315
Li 6.408962689484074 2.113347370319333 4.105029654997123
Li 3.9095088998460947 6.424157955404148 2.935559477183742
Li 6.488923899344012 4.81806698620046 2.3986914908740244
Li 1.716544755222896 8.135574282671891 4.753662337582468
Li 3.563699590278213 2.0896798845430355 5.583600823597141
Li 2.0973667293298015 4.943993269262491 4.982104408458458
Li 3.692997759903944 3.237913686475487 2.6550906402524768
