38
Energy = -58.58677366 eV
Li 4.419349835291908 9.23772111087399 10.687415040836212
Li 7.088430513506247 11.301202687707155 10.122191817235018
Li 9.549293412907717 10.849673388677349 7.951665941323386
Li 4.636744296292634 10.377228312761094 7.891223582176165
Li 7.039495139874985 8.58502862617964 11.73265824117832
Li 10.970279508164912 9.665137652038196 5.397612480572562
Li 4.968173095293892 6.178648753479178 12.092742670572171
Li 9.524216457400039 8.770784173683467 10.128045039862249
Li 6.958962098881224 11.810093069124832 7.02202540218717
Li 12.164833536288787 9.255357024605377 8.531423979024735
Li 8.598688602613374 11.650468310590428 4.493311485692469
Li 7.188658683111359 9.06081231807677 8.63141538991962
Li 8.327913866786318 5.992971398133277 11.190374768543899
Li 3.0550348088992676 8.923050333293478 5.517913072551238
Li 10.068336644264381 7.9035150854708585 7.296453254484157
Li 5.75577232293506 6.957661149027183 9.673633397668814
Li 11.15523067395851 6.351939749823078 9.449631281404383
Li 3.319560155821019 7.708412353154017 8.332456105577979
Li 5.686834635045832 10.31541786938792 4.736754793672316
Li 5.504603060771917 7.970630190756033 6.623721346251661
Li 8.193061424174534 6.197309796843374 8.417796361549083
Li 12.595313226922379 7.004420463339789 6.480768354267247
Li 8.054681604149783 9.307093309864209 5.95627532332731
Li 5.300717394673184 7.29171373615915 3.93598249396605
Li 7.997877573923889 8.81578261880177 3.317608097667208
Li 5.652844684193163 5.321670516200243 7.340816245123551
Li 10.313090838224964 5.001899768295559 6.806055676073671
Li 10.21928744884695 6.8813307790486595 4.397803468131479
Li 6.426768035836239 4.046089596515009 9.818661430308032
Li 9.509390272482703 3.7401053538724556 9.43414465687107
Li 3.6135287602200714 4.953135511936655 9.295107639531036
Li 3.4159339471379897 5.71724706797808 5.917716684769747
Li 7.70326792408843 3.462926665490234 7.010503520341297
Li 7.62621822563638 5.872446742921701 2.5789671045958005
Li 7.746997244409782 6.363483614253392 5.47691268352419
Li 4.622098879358238 2.7814839528956945 7.13305009980542
Li 9.054787644171816 3.9187230894448377 4.34726197849382
Li 5.875792528439523 4.280718468832707 4.6053290494660875
