30
Energy = -44.93807192 eV
Li 10.502775668280064 3.453890771367486 5.257620230489591
Li 2.392395460276894 7.303363267341082 6.74815278402841
Li 4.617305123084355 6.559686815107254 8.511982934099008
Li 8.081835003141201 8.208141634034936 1.9017657415429279
Li 9.045540832496535 4.371317915164533 7.811621757601108
Li 3.426239212178077 9.046562008569285 9.037611346585868
Li 10.031092170358175 6.571691770717507 5.900720307667752
Li 4.94014933388235 6.416623406029458 5.4127196321611475
Li 6.604320714393104 8.593163326716144 9.362270767178442
Li 5.991692034567303 4.216872870793262 7.307513868323833
Li 4.6144129986038465 7.037938324303848 11.225016006421866
Li 8.43796046043083 9.21675029483297 6.440715344694563
Li 6.802582523253125 5.3516822334079475 2.3864828022093056
Li 5.0367338326492135 7.560685501660254 2.669511363791074
Li 9.701594217068411 5.6336386426101654 3.0643799716243105
Li 6.315260422547426 9.80452585990526 4.0183286640600695
Li 2.1233965079331476 6.158603265797989 9.579927522754776
Li 2.7264850423220395 5.813881212374404 3.9735819539268666
Li 7.964247138911373 4.626528431221897 5.118738923577249
Li 7.050570391195913 5.622623085487687 9.918229305241637
Li 5.319562286077411 8.914621745859295 6.698522525949011
Li 5.270378820975693 3.745833000710436 4.431474145412088
Li 3.256587800969304 9.006371344821869 4.63723213845876
Li 7.343750325269929 6.75642267307421 7.215027755720893
Li 8.313789938458315 2.7747689352390315 3.187785735916827
Li 3.138304450653741 4.463497396809645 6.908392746667284
Li 9.462910463400517 7.345495675598459 8.9098121480388
Li 7.493840173957348 7.318829152498428 4.369199399612328
Li 7.718097599659411 2.083915740501923 6.131211226384761
Li 4.385827198390779 4.1185382502585455 9.899559030750902
