35
Energy = -52.55173645 eV
Li 4.43418606273294 10.297472401303903 8.451053843392268
Li 7.355238603117111 10.220367516131285 7.736132917806833
Li 4.916499978509573 9.509555278512968 5.809828256657663
Li 1.9676948426644374 8.857546141195813 6.9081988175025915
Li 2.9916176476511507 8.133499479753572 9.928098528047506
Li 7.379850614754381 10.766594867041789 4.769455177703145
Li 6.1083025215401285 8.027352585411437 9.46114873824927
Li 9.911691435841659 9.510743890738885 6.287343208751148
Li 3.1047390211895562 8.357286907986127 3.945977177182209
Li 8.867239336408971 7.741884792666401 8.663023337509488
Li 4.147006278361872 7.305807377287221 7.499197322727198
Li 5.940964219997228 8.478216622541012 3.1794904890976987
Li 1.5192412506937933 5.968818380642536 8.385734471963184
Li 4.454147068083188 5.5362047213522025 9.944538320892663
Li 7.31555711384207 7.968663478072206 5.947428139292017
Li 8.950460797718447 8.443535634482865 3.6340791904898437
Li 2.220698171273039 6.1265339357910875 5.450111964961311
Li 9.808915984478006 6.567098624383865 6.0729174480872885
Li 3.699057350148962 4.408298067880364 7.391730293583257
Li 9.965379745208633 5.020843005387943 8.454504090099368
Li 6.682879171180664 5.478644107850171 7.755973703316207
Li 7.545678725643535 5.228583487351968 10.366391849041538
Li 3.1503354232496554 3.4943090194989166 4.549231045201222
Li 4.092857034446726 5.824042477634895 2.4708408286127135
Li 10.267751580940253 5.74517466981354 3.4347322653155294
Li 7.343936110256383 5.979942907323229 2.7925556546716823
Li 7.9741831054584695 4.522643571239901 5.187211732882982
Li 5.15419495185265 5.892032428555902 5.021994652502128
Li 5.617960596799403 2.8681899973538934 9.18643178812393
Li 8.191476687815499 2.9219671905935103 7.778330077725529
Li 10.432600324609142 3.43452244140559 5.702252621993755
Li 5.882866332422579 3.3796557874228847 3.299804079337822
Li 5.685773827279073 2.961202166110967 6.150899571488946
Li 8.824644007543416 3.1910345260720727 2.8607868956434976
Li 7.894151874490448 1.441505570282436 5.162523836634388
