32
Energy = -47.96843343 eV
Li 10.968123760364788 5.8203089011627664 6.9332665035015175
Li 9.365212965724696 3.875341068832799 4.915275209820717
Li 8.736338971417318 4.2753919778068035 7.800751384196207
Li 11.464814354341275 6.643223713413578 4.2397179558131075
Li 9.759236745352423 8.772587160137478 6.574833484021318
Li 6.626839640168994 2.526853601443393 8.191286232252967
Li 7.708929973392962 4.784443443547346 10.732455682611308
Li 8.968771876987056 6.843258580494829 8.702686644463459
Li 6.824663372767661 4.68634526483923 3.2525250560651138
Li 8.696048486743091 6.642063051869689 5.005072200988416
Li 6.538748835457618 4.799820335346057 6.138878760760935
Li 7.070227870165673 8.246527080449292 10.139809113880677
Li 9.466753361967667 5.707671073942812 2.3275708057923254
Li 5.90481778914238 5.550275762146166 8.901533939020448
Li 9.74856687372001 8.86880925558336 3.4160013875074475
Li 4.807180518330957 3.4655317908924057 10.465884200133432
Li 6.789015750814373 7.71256656993075 7.133478427636258
Li 7.218709449089373 7.689506086173245 2.3031824473497595
Li 7.222348735059467 9.51363336387947 4.882389893648083
Li 5.038917397675062 6.386336720309755 11.45994753419542
Li 5.6329761115777215 7.087938255810686 4.442138088241585
Li 4.035518206574683 3.597942315093232 7.390605160543121
Li 4.025589021679191 6.433644367797377 6.750100174809774
Li 4.010629346758958 4.534286069936317 4.479498460766285
Li 4.404874944283844 8.262874535593216 8.970938571590619
Li 4.492932940277764 6.324083042399612 1.9366952672222715
Li 4.402997546438956 9.29526606327895 6.094901585141361
Li 4.735771701414757 9.36502591492691 2.965551381104686
Li 2.8733474378183463 5.679959101051207 9.23345575392854
Li 1.5825244526537394 5.117810220823541 6.291022334052828
Li 2.7193294850966456 7.363075548043065 4.324864003546811
Li 1.8184141541466317 8.090282371439809 7.295592145332968
