34
Energy = -51.70412579 eV
Li 11.27360929823967 8.033765519993775 6.018286963084589
Li 9.04503174205345 7.157991913588019 7.359005386524849
Li 8.464606244890831 9.653310236968505 5.97041896399288
Li 10.283910254763608 9.193234110542742 8.70416618868405
Li 10.27243670575313 4.896183112903391 5.7614583481600725
Li 11.315136956196858 6.197617781828671 8.615047202273457
Li 7.177349646591335 9.123232711908216 8.663530111860318
Li 8.685607206545047 6.938786230318895 10.252025006435245
Li 8.838137493172171 4.39089326168787 8.45426635178521
Li 7.24076962639606 9.194412887292392 3.1507493287510178
Li 7.408500868974925 5.229544054242348 5.963929955682982
Li 9.042013735036543 7.1221877058600285 4.174397340121435
Li 6.3769780691985956 7.768287013429871 6.047860647110916
Li 6.390919282951371 6.271621844329787 8.610377713556796
Li 4.4278603120934 8.653959659536783 7.8664503540391415
Li 5.309620691992825 7.487010364246315 10.774198638117637
Li 7.976166317226397 2.589151889618472 5.800938916114302
Li 6.780277526941262 4.52073971119024 10.809189155278954
Li 4.806876731867349 9.626424693501171 4.929311071461471
Li 6.408109307379459 6.590267475597518 3.4349662671125483
Li 7.654566495013423 6.772854379348222 1.0915461115042067
Li 8.055995495174637 4.362253565669116 3.178277695627996
Li 2.410040335143713 7.2723292412931295 9.409623523807207
Li 6.031551212057474 3.5543080941384186 7.943786819597414
Li 2.0361881037172043 7.829108328930509 6.259574536649337
Li 3.9931480560566293 5.79232350264988 6.966687788551226
Li 4.79037353248379 8.094429350237096 1.74437761541383
Li 3.838430430432789 4.7010679614945055 9.682187729219942
Li 5.268784794969739 4.037771366221131 4.793678800633242
Li 4.9139468534466895 4.94440676154194 1.916456249726634
Li 3.981950720588355 6.943269170591523 4.321379157854346
Li 1.4017368969800843 5.109324224017468 7.664179056501671
Li 3.352198354545367 2.968033223335605 6.995100700533362
Li 2.357698956006592 4.685339736711312 4.597004430366499
