31
Energy = -46.31622692 eV
Li 7.992866920557326 5.844169812018429 10.975570675185995
Li 5.100997322773123 7.233505033393308 11.7609229990178
Li 5.241815888431966 4.279744896002078 10.912359743050082
Li 7.6041870441587385 3.7933756763082123 8.62392917858671
Li 7.545074014892637 8.768944633571952 10.047262739899706
Li 8.092706482352442 6.665682149312432 8.056182936517422
Li 3.033707370204346 6.471927003797932 9.069164449735776
Li 5.834433330627741 6.454775527099609 9.335577932409302
Li 4.566573192051994 8.987472894889782 9.393292138409302
Li 6.7921245082942665 4.717209238367475 6.0970088299190435
Li 4.669204728987678 4.165216479093829 8.08011987932931
Li 9.617610976555461 8.877802941895306 7.05270590615474
Li 9.886273594652112 5.485566700554117 6.290939278584093
Li 7.753013656598814 7.401350018784778 5.314550998403163
Li 10.240923399298717 7.834725730152431 4.182791353219622
Li 8.553630472769195 5.143957805483683 3.632923603564971
Li 6.500780262039873 9.218489903161716 7.225813491642335
Li 8.659162932692 2.73536243908206 5.602023436698491
Li 5.83818471933314 1.9375990122681244 6.5056806416654
Li 4.930129351576601 6.828737061259267 6.631467346677648
Li 8.18859099668338 10.107494433131842 4.688308425425062
Li 3.141041125533459 8.980702045058463 6.764746021006827
Li 7.534841938604483 7.927794927813476 2.4910705634373294
Li 5.605287367259846 6.009846805826243 3.755823917649453
Li 5.2520743742556695 8.871793919146269 4.445521781453779
Li 6.196290271193281 3.0572965884605194 3.6679967630426216
Li 6.551736243005567 5.183886302252086 1.3237032706753378
Li 3.8736884705308636 4.020104152548342 5.301544801202172
Li 2.913987539122223 6.786123977054643 4.489287071387944
Li 4.445569067397434 7.493238724342576 1.7434788962880015
Li 3.7034652356147792 4.51926580855247 2.32987592085943
