31
Energy = -47.20693757 eV
Li 10.359890764217466 6.2077768398667805 10.194162152223196
Li 8.519318300120908 8.914017655289555 9.900099601750783
Li 7.630506547426464 6.2696955304723785 11.618726175077386
Li 5.6312396625719074 7.856820369790451 9.713742529688203
Li 9.97923701133496 4.571805170150496 7.503007046505298
Li 6.141476208348283 10.833448245127112 8.721347867972131
Li 5.519912870366414 6.243131580792279 7.312177499367837
Li 7.991603342043034 6.127009726620217 8.894451761149414
Li 10.037225895633096 7.830736184640652 7.456254696379094
Li 5.54852226501623 4.670931732039523 9.761666988153411
Li 8.92570573665679 10.827573278191142 7.279173411511344
Li 7.088658234447242 3.6152590658737784 7.328285947820445
Li 8.529415006404738 3.6886135610921453 10.138370379444893
Li 7.245287270192225 8.659788846556356 7.381163438795999
Li 3.0790285272367663 6.355664152017479 8.568617751135559
Li 5.74591036856967 2.014103513270376 4.947632014152969
Li 8.4308472381157 3.611021219259948 4.598416348522817
Li 4.050062425727199 3.766088384743393 6.934006281524892
Li 8.092000542309973 6.197005793024102 5.9673909108102485
Li 4.270100153970491 8.929825462227184 7.0953164425150765
Li 6.244112857213519 10.695011421902379 5.492868812420554
Li 5.804824613595891 4.791674740266848 4.767720211425428
Li 3.4636830213302776 3.752272792368164 3.7726306420304176
Li 5.912170492231324 7.837442970643227 4.828193012437781
Li 3.3529786360058864 6.479106488927174 5.3964884309743875
Li 6.196878529319863 3.663574300653959 2.345578052105218
Li 7.721963645233289 6.391239848043949 3.0607430199476995
Li 8.658179523197207 8.925822750686818 4.795417236189347
Li 3.708086444880984 9.335891269773315 4.043554208762356
Li 4.6863700782277755 6.565686794184713 2.611788350512229
Li 6.483832035101452 9.30631055828171 2.5853976240545427
