35
Energy = -53.96104928 eV
Li 11.333448496272965 7.8750218478682115 8.474470407141517
Li 9.383583395321052 6.444204220932067 7.061382615797038
Li 10.923160984747133 4.650356580687375 8.5187187459801
Li 10.568087404223157 10.969210093486893 7.978533889254848
Li 10.347164785337219 8.831622133357579 5.636301498068403
Li 9.417167630140549 3.8090278496378764 5.853897853075014
Li 11.815981999728896 6.0058533547159625 5.844480494369874
Li 9.74799243891349 9.681202650090679 10.67802265008092
Li 9.224554016976773 6.373067172552089 4.040474870873767
Li 8.347185423037276 9.43189216619371 3.2117943756620666
Li 8.918910896798298 6.70237687269638 10.016789941621456
Li 8.643599762434016 9.129900872196885 8.212909208082015
Li 6.202753707014721 6.991280830248358 3.3055620726688253
Li 7.799023443907018 4.29258090675362 8.489550758856987
Li 6.737244628234742 7.098363086250782 8.09514435947634
Li 6.982474183709357 5.431549354212526 5.741761574030746
Li 7.225258012993531 3.860123674773189 3.490693425765817
Li 7.751111779801741 11.607142830931112 9.13202611384393
Li 6.322250935326533 2.755846823475262 6.352304630162302
Li 8.053963555880609 11.061456862631951 5.955883135882444
Li 7.56802368850235 8.30320250149243 5.605602829036491
Li 5.799736719275539 5.716080118291178 10.476850137572974
Li 6.6504009826836405 8.913556189738916 10.352202075868728
Li 5.240166180885744 2.7947133941250435 9.407489986237918
Li 4.890716560196691 5.033855926616955 7.764576367286297
Li 3.120553590699588 7.575579982159409 3.756375065717211
Li 5.727879489218745 9.883965335905721 7.490894001466557
Li 4.794166547245204 7.446046830479125 5.9409259445787
Li 4.437320425291722 4.812483299854496 4.696678884343775
Li 3.9611322718186033 7.736702288395743 8.813969070016816
Li 5.382364206163184 9.824454939418601 4.380607575495092
Li 3.217256028834009 3.0919359212857938 7.06324630128496
Li 2.832708997707682 4.860255688390667 9.581138496008693
Li 2.8599988439700086 9.406852647898804 6.27456214277859
Li 2.3854768041343033 6.198847784855546 6.6402628353558875
