39
Energy = -60.45566027 eV
Li 9.279918286343163 2.7682064737402445 4.861391966924855
Li 10.21864426654595 2.6500849535426125 7.919402415475569
Li 11.407668999992104 6.027806403316097 5.692618502450432
Li 11.468216528641221 5.416382999617164 8.761017174582495
Li 10.899469167110505 8.874222367150162 6.275220884420668
Li 11.935084275066528 8.588322696740736 9.042460598205077
Li 11.151377589569325 11.53966535134398 8.236821578747788
Li 9.419768166690172 5.665185777669642 3.4568990711171423
Li 9.162602238041595 4.792395507303839 6.601162492398455
Li 9.71710935158924 8.928669917816912 3.4114466266933463
Li 8.588464766717399 4.797327012727103 9.62254629190288
Li 9.529097919256058 7.150820125256472 7.984246774314646
Li 10.665069675156385 10.596907921331919 11.206730978532617
Li 8.979611083586333 10.860803583896377 6.221537671840102
Li 9.907241109084783 7.393271638650798 10.980344860868065
Li 9.272153939559619 9.622237571361227 9.052706199683481
Li 7.06633547267231 3.117791777202268 7.4689278111834945
Li 6.860650870963289 7.41089513689676 2.8035338106063628
Li 8.448441983296352 7.4326294362287575 5.319556877795439
Li 8.306656383372522 12.015077535392887 9.463410771819687
Li 7.125835801020849 9.012997155499958 7.305529068794979
Li 6.849176356829406 4.816112024607426 4.815251461882448
Li 6.741247928910558 9.900035047388828 4.447896291926842
Li 7.25939881094797 7.490271109921536 9.829235248742863
Li 7.72012487655622 9.483474742708772 11.700506989989385
Li 3.9169402416812797 9.053583775504027 3.537463397514076
Li 6.854821928042481 6.084631646100037 7.418131458057709
Li 7.292231168289201 6.216482462013549 12.317055284374778
Li 6.4044853159506525 11.902934744843595 6.951871583069808
Li 5.372870658200765 7.3867368568673575 5.342296971228131
Li 5.540344402192744 5.042391069284558 9.850122145026374
Li 4.367003260022129 4.93706784671098 6.965596347256596
Li 5.7758121398519195 10.12590091054436 9.402296095335528
Li 4.3890880934321785 9.834157578476491 6.453755359119
Li 4.731791270712527 7.794735468803651 11.188471771136586
Li 4.664281329579962 7.551782732267225 8.309478282793338
Li 2.570810113537923 7.504433526841283 6.403312965998596
Li 2.7348577842428425 9.306118909317911 9.098097142874957
Li 2.5848019998219436 6.179571512298943 9.394183520739604
