37
Energy = -56.68889099 eV
Li 5.989032255248249 7.2553187519446585 2.844087937900653
Li 4.800001131377003 10.050309522739536 3.7107131624617082
Li 4.24179961826163 4.7444558818875375 3.000769102622157
Li 3.318650687019205 7.401120134379675 4.578878920617982
Li 8.224374537471792 6.506962227026385 4.752944260553725
Li 7.417131268424641 4.175076688118784 3.274840883499392
Li 8.02898456305414 9.394499137641324 3.915432537256407
Li 6.601101242552789 11.011745126505046 6.352992880935279
Li 2.5367555339458807 2.56858291958908 4.062413514095219
Li 8.453736070598655 8.633844911683063 6.708281108607536
Li 10.592272633224951 4.721316962386992 4.80852830237037
Li 3.047926812566102 4.646775526333996 6.044376253584127
Li 9.905738953700846 10.823705137567186 6.059008362168403
Li 5.569269749765915 5.416154117002358 5.256772590172761
Li 10.81185039875419 7.931806937605563 5.052780620958452
Li 5.794592302408889 8.275478716568774 5.525471102329609
Li 5.32498873728863 2.71227399179056 5.1587713691776145
Li 5.327964316462475 11.501108674922254 9.241226609716637
Li 11.000399229369943 8.624840819022562 8.067731474267244
Li 9.854981557338379 6.074160229093442 7.230650758291356
Li 8.019688479607394 3.9123469061873553 6.3272453970732245
Li 6.020811470085622 9.00692521550573 8.405446601388347
Li 12.54821822369211 6.061127570713807 6.973322858445386
Li 10.830959675314135 3.5912668301295305 7.773966277246798
Li 4.061173020466069 6.9210118303553125 7.691772201370836
Li 8.361617051245492 10.581919158258856 8.87396985839412
Li 6.885833356305355 6.352682604588348 7.5431231024719345
Li 3.7535598627291087 9.876740992282668 6.898144605587277
Li 5.325042160061067 4.109516656411442 8.115481391330079
Li 8.540978910002359 7.624105615076573 9.511186397730448
Li 8.247409768947602 4.677459158138716 9.460548540802707
Li 3.805862476968899 8.816581849757945 10.1877313712774
Li 10.955173309728611 5.977266146552329 9.890064224807174
Li 6.614888963965274 9.197122333727215 11.215116330921186
Li 5.772029041655748 6.5143530340686 10.231552300833595
Li 8.048414829371161 6.496265763112482 12.093763884724138
Li 4.992043452804481 7.365202117863213 12.87342416000878
