35
Energy = -52.9841891 eV
Li 2.8621283016310883 8.524957892187995 7.563842768087912
Li 8.222543594523101 10.561157048092287 7.603578133641876
Li 6.920362616808636 9.848029389304552 10.164384019243249
Li 10.3427255114347 6.322542112918817 3.8184826693977567
Li 4.71813662205334 1.6868973333663981 5.5593013795104875
Li 1.7452895543368998 5.7218337324001025 7.7595219913887705
Li 3.5818832669750105 3.2925741480029664 7.956682286317347
Li 6.429986605955671 7.1584729581831255 4.963842832928792
Li 4.5595933246934885 5.956636309774301 8.843667419984861
Li 8.851867467538776 7.960347359453883 6.12690745437659
Li 4.991169531769924 10.928320753791725 7.801002652672794
Li 6.063960395951088 8.414523480590356 7.777797486443393
Li 8.338903073616622 5.005398618214204 5.082803493723627
Li 4.069405831762187 6.439817202738095 6.1969712445756215
Li 4.115205363180561 6.59032495305929 3.2542777074584275
Li 10.651885425576454 3.396266663719905 5.056893322380539
Li 7.700484441573701 2.2098637612775307 4.97624663375594
Li 3.9650362599206876 9.118872037826684 4.991399548883768
Li 6.429535022760613 3.6913078470855827 9.485635059294564
Li 8.689881581608896 3.2637010616482964 7.526360467909858
Li 5.8341978894236535 4.112351443374247 6.510146219508367
Li 2.8999370885427234 4.186987304406111 5.183208233773887
Li 9.091593418122596 7.9918333849312875 9.098336683237532
Li 8.666738754418002 8.953775363669772 3.421223893771417
Li 6.813017087815263 6.788025497421576 10.562340457483437
Li 8.823542683013345 3.7968748988094867 2.596332038083148
Li 7.493201486966228 5.909062749990921 7.831151751714378
Li 5.772164495365235 4.1546456289348725 3.74598429099656
Li 4.25248135491485 8.55777686668221 10.146661831701858
Li 10.417981593658974 5.711683705413342 7.118648843913306
Li 7.427779664949824 6.457507012165203 2.4804259190087734
Li 5.809607665549876 9.051307445723314 2.536864462569474
Li 1.57104757194822 7.1192847800537615 4.990296851025323
Li 9.293837733911431 5.0415278230531895 9.950748514622948
Li 6.603714139818268 10.066317582213884 5.267916948959498
