38
Energy = -57.81478849 eV
Li 7.817432694228504 2.9491142740162455 4.483543194545882
Li 8.293537116348144 2.6568884215898487 9.315901574412395
Li 9.671076741016876 3.9067461262794074 6.733716310361607
Li 5.00994390147861 2.295485346601585 5.806198364526087
Li 9.763438510991708 5.4808520115976656 9.379678116316446
Li 10.473465721547576 4.24919261545116 3.6628505564776823
Li 8.490351644183763 5.85159202207517 4.675041597195887
Li 6.796430253078848 5.060991958877184 9.588497050756693
Li 10.980642314338022 6.482661421927396 6.070138355137223
Li 6.8856205953522185 4.110535818017964 7.030329017000632
Li 10.236209563313343 7.189525078182264 2.967159237348948
Li 10.196814782399175 8.591835214885945 8.320258433062518
Li 5.344698433500021 2.5441397670519272 9.009540556776399
Li 7.900316408802339 7.8092590724202156 10.089608561984742
Li 5.72461301864466 5.0070885411748645 4.66291067278745
Li 7.650406173597576 5.149891502645322 2.1585815709536407
Li 6.343890369794754 3.7467403579588776 11.840754398730004
Li 9.166387999063707 8.765000407825031 5.430951337641489
Li 8.256867953352597 6.618349757472005 7.367883378809802
Li 4.052968454590597 4.762729602119668 7.122580536984184
Li 5.473866195744239 7.079806222198058 8.155635340354088
Li 7.308247076063351 8.156947615588242 2.9505432969248804
Li 7.393593339961211 9.417694219564481 7.670456493594397
Li 3.9374196228581577 4.863484843458647 10.008576948813136
Li 4.700507247271298 6.63077763556649 2.7006529608827607
Li 8.39679829504778 10.88074700888707 9.895727898699192
Li 6.19474932454888 7.763919825635924 5.418526191722417
Li 3.0828897158245296 4.302625347253259 4.225591274869602
Li 5.325135425112834 6.997326391551303 11.24510771683611
Li 9.330079880292118 11.446311608606477 7.132389772282515
Li 8.962227004278429 13.764881088368178 9.117050033705013
Li 5.4169359993182455 9.664895479325926 9.723150610537658
Li 2.950261515064902 7.633581438314344 8.748114946711093
Li 6.947813520040791 10.688044057936263 5.144771637536901
Li 6.536162814847249 12.132038819451807 7.949959461813965
Li 4.506454816314419 9.480536987271178 3.8019392833948067
Li 4.563743049457208 9.79476411383134 6.884824287458829
Li 3.413931493092018 7.151718057182408 5.533381888432175
