33
Energy = -49.18337727 eV
Li 2.3333091804754384 9.588160014103057 8.590518831442967
Li 2.7752518576322647 6.463393230070525 8.707853730502956
Li 2.758226987286241 4.991017540793805 5.920100892371779
Li 3.2743066362554356 8.207703358673173 5.723382524704413
Li 3.930634338338209 8.368073891360934 11.005411958977614
Li 5.535026310616481 3.846460046168127 4.795643115101071
Li 6.615854963098837 5.283317393439335 2.1602448558007836
Li 3.743457527740326 6.165143992029633 3.38226957855415
Li 4.874972518704798 11.001806119750967 9.851896186667517
Li 4.879492130842168 3.5731036628028408 7.888308636122067
Li 4.395441863341842 10.950397054190896 6.7607012172154475
Li 5.699517703468726 5.906189030332379 9.846889296155062
Li 4.930472809335371 8.67195381708237 8.456338204197634
Li 5.174186952767751 8.786682006000525 3.142105142824877
Li 4.884616703355291 6.285370300392292 6.9906790508618295
Li 8.043089462462342 2.6785208878737183 3.1170432854957313
Li 7.539178329865737 10.198082132563703 8.098067089177498
Li 8.023758609431747 2.4652260015238285 6.30302832722681
Li 6.159891647562891 6.598171251194325 4.630970063002551
Li 6.281075136857678 8.950164096118174 5.841046514768954
Li 8.529512436390936 4.982713186971574 4.53326544289799
Li 7.020719390959202 8.675934489281607 10.677409404197894
Li 7.803702220156821 3.5877676003304426 9.24561796463532
Li 7.19520134482797 4.959805198921749 6.982688792436649
Li 9.871810371653973 4.892858872437385 2.173431631921619
Li 10.67170040676112 3.2557193151150763 4.763172082452552
Li 8.300496257647199 7.649231116445062 3.0770933540214314
Li 8.780252061900548 7.594067031373479 5.9097772597849225
Li 7.482393629470611 7.3422768512592596 8.209318690419755
Li 9.975440069514727 5.150101721752454 7.403351644308832
Li 8.945798622498073 6.143467366757322 10.218832438662265
Li 11.079333097711821 6.307060052300499 4.694907054775145
Li 10.154057092402285 8.218542250591621 8.424899843837201
