34
Energy = -51.84074549 eV
Li 5.5963906162638235 10.428417875247122 10.196874360608057
Li 8.046785378040491 9.193541901152697 10.524302377140877
Li 5.9643606337405135 11.16700975722281 7.237061200371074
Li 12.198512541436772 10.178681272026706 12.331507170736364
Li 8.897777232339594 10.768441054517734 8.346190895652494
Li 8.421552065702139 12.84482167931362 6.412069813633105
Li 8.44373731090556 6.330464905282033 8.914513245198558
Li 5.666298350405665 6.158652417871404 7.4359173238386
Li 6.42165825230066 8.88174407790748 12.883330063796555
Li 12.12785045294193 10.624162424765483 9.236076308700648
Li 10.447000229563491 13.224826506213457 8.696386021758142
Li 7.481708176723087 11.722782626248522 12.330088781638361
Li 4.048722071084297 8.75422766569928 8.164879783106493
Li 8.706285593308218 6.709231328227858 11.873826890339284
Li 6.844193461623288 8.601816261909145 7.8910168991977825
Li 10.928433106891578 8.1475431924654 4.999905930270356
Li 5.522544149128828 8.640965786656919 5.426332146150302
Li 9.283759661324547 14.227005352444738 11.420436938293477
Li 12.632393955803666 8.008459133715661 7.645880528289121
Li 7.428828279403086 12.8181678769117 9.457782633184491
Li 10.757851195550984 8.54490717934351 10.467598978079957
Li 13.579402092578018 8.07450268892013 10.546738560403528
Li 10.253555360587718 12.315633863045322 13.667012568850522
Li 11.390622690500404 6.012509600822887 9.846985890679132
Li 9.92940481236416 11.517650511210496 11.009503242941342
Li 8.348447451299158 9.900407280683167 5.590781624621585
Li 10.79903182348657 5.6628892878671975 6.866249191695451
Li 8.18823300906589 6.938516340835752 5.850030693586963
Li 5.821244196489775 7.308961139304999 10.30327373122904
Li 11.639545533603771 7.146376968028308 12.78310503250523
Li 9.954022845739567 8.28980630187961 7.662302027342853
Li 9.432749885594642 9.379869150156402 13.11443163645052
Li 11.088539805097545 10.877997929934667 6.440371534718537
Li 12.193136276474243 13.05993010782979 11.23646231020412
