36
Energy = -54.15197883 eV
Li 6.201108356501951 8.405535005313494 4.976762673967536
Li 1.9451629228844491 7.430593908880774 3.5652630714609095
Li 11.41557205345054 3.097519150216193 6.454694096446811
Li 6.228709281084258 5.499724048771803 12.828507873546322
Li 4.8074500883328914 8.279107756467557 12.151744717540417
Li 2.8191594310234707 4.685216645796355 4.9399566088134215
Li 8.120922128682098 6.693167902139322 6.243798376667505
Li 8.573514312837107 3.8048832482329606 5.793959538945906
Li 8.968748850739974 2.6677503766967634 8.664638126610306
Li 5.7671386682217145 6.45363369397234 10.276145008765964
Li 4.040870956883005 5.1842043847384085 8.133979379975889
Li 10.121576253981557 11.237928107264905 6.1950374488220294
Li 7.083487425674431 11.124750437076589 4.564416539432929
Li 10.038135325303378 5.244887590726338 7.869627050466427
Li 10.70981568820404 7.178140976735599 10.185026441662771
Li 4.1637306901602935 9.713116059785467 3.7663114128123842
Li 7.7352591306914 6.143030102203271 3.558847067809812
Li 7.930307734539395 7.903336914353547 11.737247460532462
Li 10.492339671045093 8.316997027629927 7.13224558185783
Li 7.031257319452516 4.8436431338771095 8.208395362250684
Li 4.832856316876486 10.181447567342978 6.810296423939994
Li 8.349518866143475 7.453981794118622 8.953581670397483
Li 8.4370384283961 5.033431701774064 10.661752700346002
Li 9.749285551355603 7.362494978103314 1.8613351518732721
Li 5.9136661223089995 3.3818863821829654 10.345194157627263
Li 10.53206958672332 5.858654652410658 4.836266720813074
Li 3.570422605582583 7.398181103148533 5.90228411571519
Li 9.142512790530116 8.847661419761312 4.386674274787575
Li 9.505968390267538 10.00461181267102 9.437393301638533
Li 5.818563495353033 7.54727665369926 7.665014266175523
Li 3.561481014835341 8.311964096317942 9.152620892948308
Li 6.924611464085011 8.748264727792913 2.2841378483852286
Li 7.883795061073538 9.688405315787856 6.990807569352912
Li 5.71224181514964 5.24879636885382 5.649241873987752
Li 6.291563741250315 9.48794048812451 9.662800389315473
Li 4.687025089930489 6.6447210965867765 3.2608814338620014
