35
Energy = -53.11711274 eV
Li 3.1671342186056552 8.45858277506503 3.69400987974512
Li 6.105537194118276 9.177225476382116 2.7582901109113562
Li 5.434402489761768 6.263190594320496 3.6667450639709376
Li 6.414807700754191 3.4616802311659405 2.5739906217299846
Li 8.026993549725379 6.140059545701381 2.05258794133618
Li 4.247510277528555 11.220221253933529 4.588553015291267
Li 2.7658901546810903 9.192385538589756 6.748170523303753
Li 5.203433170942395 3.8201589829855376 5.419889031219425
Li 3.5232678260537824 6.2708441695396795 5.94037201726371
Li 7.3299447254024805 10.755840816079562 5.18414296025922
Li 9.538721733647161 3.3447370155973077 2.771763457363816
Li 5.209234942215965 8.774024085896952 5.400855155792724
Li 7.778795760835382 7.648573473925931 4.627315312747645
Li 7.916177549718791 4.694517382769997 4.494058412524188
Li 7.561423888373098 1.9170806183208182 5.021716811097929
Li 10.355772256538794 6.150067826678382 4.056621406057217
Li 2.6116262044164427 3.4824299477001754 7.120767977732216
Li 10.099233379165334 3.5565171842725527 5.88055730222563
Li 9.924833113562194 9.149819885841469 5.948713556959647
Li 5.373017221558847 10.76317191012307 7.5203762971322
Li 5.221105514433726 1.927732061497556 7.816680896831667
Li 2.400576250320675 6.17118076173338 8.781621238354901
Li 4.776921161332051 4.709670422088528 8.2468528045791
Li 7.449848743455568 8.77418088644669 7.273066226856729
Li 7.455567082192884 3.8581943615040752 7.3009946782338915
Li 8.468777776200072 11.150052061696908 8.123394591771742
Li 9.103244160168225 6.260055314461843 6.7736535214385505
Li 3.3669297917206347 3.3759734709603637 10.156417590228791
Li 4.8948694345326835 7.65787634915465 8.065485475019747
Li 9.60927002282085 4.529172978191486 9.101173189951764
Li 6.576917969517423 9.163007806062964 9.94215459414078
Li 4.788928998684985 6.180342218701656 10.7136162269936
Li 9.508432947674244 8.206490505979886 9.002099336901948
Li 6.523293388241236 3.5744444753606004 10.155946294081733
Li 7.237832016165013 6.267851223279849 8.997186219788201
