34
Energy = -51.56221826 eV
Li 11.188144083859068 6.653534681975305 7.832919594003139
Li 10.419998220597176 9.400183885610138 6.37229987306653
Li 8.905083267740023 5.130200637485372 8.191319940569775
Li 9.251129110792663 6.506881368432032 10.645564408919457
Li 9.638357019750876 9.814642541423892 3.4985815771249356
Li 10.750877953419426 3.6091185635741336 9.35080941718201
Li 8.796608711698843 6.758937153279315 5.964430298127379
Li 10.766594837005112 6.840967691339981 4.251371688405139
Li 10.602303223341252 4.186854523256982 6.2163843191011425
Li 7.670848933090119 3.921125027510771 10.378181447782094
Li 8.170290603141094 4.335809245466432 4.454853379426929
Li 8.583460131531062 8.165393639406416 8.313552637422848
Li 7.757754590374927 9.56321660613148 5.635957300573805
Li 7.329189896430612 9.185262975769282 10.905344580892677
Li 6.6426580704861165 6.414457419890002 9.21235854670551
Li 6.0827108534014265 7.580078409237577 6.581031685565544
Li 8.060714811443153 2.5715613235131025 7.412236387237393
Li 6.700463835897448 10.728773822818674 3.389631159432707
Li 7.590006611056657 7.62543319122969 3.5329843955409133
Li 6.607789960198587 4.927583538808634 6.701499182033136
Li 5.791235432758327 9.183701674450331 8.714847936288583
Li 5.36087040956511 2.8487197180255226 5.639231164575457
Li 5.116790849734784 3.9093850322206554 8.749406448937348
Li 6.003789169457874 6.448886276482035 11.797626171191578
Li 8.67204888536453 12.113244195712625 5.4588586368196745
Li 8.137616466356118 10.932873375919888 8.299381427332454
Li 5.380242088047524 11.694995065825212 9.607487175984534
Li 5.4585281395226835 5.716715930101968 4.264574438227513
Li 5.635008290154769 11.101445744242717 6.50402807543305
Li 4.209154147031963 9.229374974205523 11.042590436210551
Li 4.683026339476491 8.781616684361381 4.7271568629658685
Li 3.3160082213201765 9.245267297095529 7.728918228153795
Li 3.8196480784314457 6.005319062338251 6.730759948040311
Li 3.931279772379355 6.755928550377172 9.561052932338285
