34
Energy = -52.26492401 eV
Li 9.46231951769389 12.230428488278328 6.939743908784912
Li 8.284946939221932 12.215391179515098 9.884096308683016
Li 11.154260757126487 9.499054235816189 6.267257498600151
Li 6.523467089762464 11.249132810186357 7.473474493014138
Li 8.275370790823265 9.76673278449981 5.362286442660813
Li 9.354250026738686 9.440968526502292 11.290549062568271
Li 8.963680387974 9.948560590078138 8.383528394949687
Li 11.885013385875766 6.400467249234252 6.388160019069717
Li 6.5000912272181814 9.669295324780949 10.122387026389447
Li 11.191272865934506 7.9510724780052415 9.088293135903893
Li 5.222831925515714 9.133172906968069 5.123238431633307
Li 10.061640955159872 6.279811319472311 11.54104092548224
Li 7.106499817638598 8.311347547100635 2.715145207949123
Li 3.9793483034741084 9.06578368266852 7.947273223322501
Li 9.394710832034015 7.4027511981216065 6.934932153236665
Li 6.672331189897886 8.334077542024653 7.499528985891271
Li 7.191958485869514 7.312277648567892 12.166923727894261
Li 9.848428415911105 7.365739655334106 4.084815991158558
Li 4.65564828800132 6.48044964718819 6.580967144880878
Li 9.194951222461196 4.696403033405064 5.609956295460847
Li 8.36077132890337 7.340011291304507 9.691651299488376
Li 2.5207659930452526 6.217234378996697 8.201785909727326
Li 5.319621280345976 6.78316894616438 9.623577161391172
Li 7.181154909925261 6.857322901311006 5.035077056387913
Li 2.4490770645543325 7.62950131808563 5.463689306701725
Li 7.662338365374787 5.216385837938368 2.878661263030027
Li 4.746373272196906 6.3462591737286616 3.6689665723541465
Li 6.105593482593009 4.079259545881672 5.384409353424461
Li 7.467940849470135 4.64116313390344 10.383130318700326
Li 10.019988492942373 5.038038404623576 8.61875631552983
Li 2.9837342018149307 4.525918978801519 5.658526288840199
Li 7.233818288295824 5.46841600698569 7.650927046601704
Li 4.864645662069937 4.0092797340112725 8.253108249171
Li 7.778743963306626 2.7693986392765804 7.756889666999983
