33
Energy = -49.57342267 eV
Li 3.26946833278656 2.2964603683977 8.04171123195558
Li 3.118266001321525 4.689522217227925 5.837380201206587
Li 4.021142329751896 5.04545638744027 8.710689536069507
Li 5.570065294582407 3.538236275930406 6.751671103607107
Li 4.792755661890274 7.883408062964019 9.501717597228083
Li 2.9134577586914876 7.659012758877004 6.7560642068444805
Li 6.185209368941917 3.069188910991522 9.581390474372675
Li 5.325660885599666 6.55311947166341 6.484705054964914
Li 6.58843417860712 5.968854727807595 11.175694435835759
Li 6.968683012052 5.579080619857427 8.573408977692804
Li 6.746754223461651 5.236436624945169 4.411240774136858
Li 4.109167449243363 9.824255106517597 4.716688580328082
Li 8.496915578431253 4.179193038871381 6.7712387252121955
Li 7.4806396040963925 8.24108969235912 9.083519045330103
Li 5.64972412132759 9.255602548653858 7.054439631382331
Li 9.364262869737349 4.420449416767675 9.737865215427616
Li 7.014964427157565 11.052704939077117 8.913282928299456
Li 6.74823735717116 11.32488085857269 5.161579492383039
Li 9.727311422305299 6.83958584177703 8.451195074528094
Li 4.378361215042147 7.0386462059745 3.764286108807036
Li 8.075538668356055 6.97527498601568 6.3715561294681615
Li 7.13857012868826 9.235954509551865 11.527635190991962
Li 9.374923284183646 7.1478089330898005 11.189788090621233
Li 11.261497821396583 5.27241621351577 7.008091159441968
Li 9.96196627919711 9.578947990326169 9.478454184823054
Li 9.630265627921183 6.604156683114296 4.326498503098556
Li 7.391729992089598 7.269818942049463 2.153724741124638
Li 12.135208825528679 6.952838801326636 9.566353185976807
Li 8.553774132977441 9.629911301127526 6.758628527865082
Li 6.678215872063165 8.491626457605115 4.496722161109921
Li 11.146738599141113 8.327485324687034 6.63059971790377
Li 6.09063960894349 10.032419140049628 2.3429156316955497
Li 9.032769562726099 9.579955590674874 3.691828889716392
