39
Energy = -59.77790068 eV
Li 7.0685576533832295 11.126926004044826 3.628366506967235
Li 11.506997221651327 8.72765583770823 5.281935887235113
Li 9.029625970344965 8.718407374448308 3.518740691827075
Li 9.193702945542638 10.50634158141809 5.949031034461727
Li 10.46623942083265 5.90302964973753 4.069378553470253
Li 6.086643307964067 8.335503709423113 2.707897542343862
Li 6.259081443095912 11.595421175739947 6.531214885709327
Li 4.355469806543414 9.8345930781355 4.778154709005161
Li 11.83949486456018 6.246395720617883 6.913693144052078
Li 10.569646802949523 8.588690830277024 8.361283960302417
Li 6.8480488082849 8.982002937135771 5.4980567240640745
Li 9.182127378462852 7.36798465568862 6.327380979475651
Li 7.546586142626154 6.2760064572613095 4.331182412936838
Li 8.214919660286325 3.6742583393593735 3.8036838194612788
Li 3.1106546965961024 7.643369770545931 2.868225493220118
Li 7.531781736407284 9.38788245538171 8.363624076390424
Li 9.577021101463169 4.429290999624344 6.573297612706242
Li 5.449324879298915 5.272993609447614 2.3829988557201127
Li 4.405972249114127 9.604502460643497 7.949151882068341
Li 8.886559561616096 8.143101550374485 10.950040373026486
Li 6.817250535268808 4.773916788854932 6.694234529928895
Li 4.8639515306598735 6.639099394408243 4.768027177774567
Li 7.718433049472438 2.0096428008465756 6.289027776866339
Li 10.389733769938314 5.5374208441896196 9.587718618269424
Li 5.827076329526594 7.871769071904893 10.354282568910083
Li 5.608696946628208 7.238104414208814 7.397350383393365
Li 8.039677230350604 6.499098220737581 8.82185362880315
Li 2.6570822855841016 7.6748377599658 6.092296504235228
Li 8.059385379004189 3.4822643609269517 9.042246398571473
Li 5.246421645398213 3.459246412024545 4.841831720939043
Li 7.72923408294083 5.406680941354862 11.449116527662637
Li 3.768685935102971 4.947451492822267 6.993810190016818
Li 2.585169234201288 4.966055537162105 4.3280739217151
Li 5.207252795122607 2.5614252620211038 7.884097340948006
Li 5.464546242994847 5.054257345211869 9.458849785382087
Li 3.0913875697266016 6.890355130175868 9.019058591868955
Li 2.4965682143453924 2.568267206269266 6.3739369174770175
Li 1.0232737977674045 5.1986498561774885 7.0866506483275
Li 2.6166726925205226 3.754967012096726 9.274648791161653
