37
Energy = -56.1299327 eV
Li 6.004595569446862 1.570035920917136 4.188810173250064
Li 8.832254751726522 2.491046968780763 5.386871801900541
Li 6.623088408979524 2.204868909252501 7.328444084474229
Li 9.594356512821912 2.786715053508182 8.799278669010855
Li 11.110202118058053 4.199001576306677 6.347351812314535
Li 7.658126436591464 3.625379389400367 2.5912992611508052
Li 3.885698144234054 3.0322383557488655 5.90948180048918
Li 9.027757071204025 5.3905035389468825 4.5942137709808915
Li 4.513809019748498 4.145490787504423 3.050910521107342
Li 6.57819655466938 3.6907200231563295 10.01644502019447
Li 6.545615492080099 4.090738605708735 5.173639231470749
Li 11.21226420972488 5.689143371755748 8.861703825492647
Li 8.515022666401762 4.910829448669835 7.70389235657818
Li 6.516867421994441 6.389532410645618 3.35287751294573
Li 8.688084274102756 8.285108968198955 3.7983950274913956
Li 5.383891705026783 4.797361818810547 7.710627924818645
Li 8.995493885686043 5.397651987926754 10.72352075693674
Li 10.379304158858659 7.242454026132311 6.369833284737653
Li 7.272349469130426 7.010558187115172 6.429277778251592
Li 2.3558708860439412 5.3859174837507595 7.302257553609487
Li 6.184280441742975 9.03660925658427 2.097601401214463
Li 9.140992114227888 7.944606518916648 8.928133758703684
Li 4.452416707439772 6.0406730682134 5.348186640761468
Li 3.7454697152985834 7.473352836032079 3.0140275550727904
Li 4.373801376743895 7.477494289073904 7.8387105986090155
Li 5.731371065046771 8.895246926974277 5.16534562440501
Li 6.5993185054812695 6.657220409241978 9.56182099365748
Li 8.65795352487934 9.806213675108141 6.300155137526311
Li 3.789587232621717 5.662930867309792 10.070558408307019
Li 7.387149823696039 11.054184045263353 3.8194895153167256
Li 2.537882910461656 8.17759183076853 5.7529929369900525
Li 1.8976341287574647 7.9725081668102655 8.94560778929849
Li 6.544086800070603 9.312976595224985 8.22062037999545
Li 4.0978274012423 10.652905219177033 4.095504749992912
Li 4.510689228208701 8.785469866627812 10.36632413155438
Li 6.119375181360603 11.62160220050634 6.397011568173731
Li 3.744849901176547 10.189241134689237 7.550102596506348
