31
Energy = -46.57263806 eV
Li 7.214634125541588 8.855064873462997 9.029542022818267
Li 8.33861770511658 9.079394861889291 11.483350718038944
Li 8.738931506664553 7.073763129296306 7.02269961829154
Li 8.01668366816458 11.395169692023241 9.448173351046703
Li 5.451275499528907 10.027804521872707 10.652682986522347
Li 8.890024451261725 6.416225337952544 9.802656147241748
Li 10.106249190575001 9.013025961419775 8.748058217120233
Li 11.41533108936397 6.550204175597042 7.198389774858399
Li 5.9942793417754165 6.911141325799862 10.876249328068113
Li 9.380699679713636 4.308558207466024 7.663900178288987
Li 6.329380225447966 8.433213239911758 6.412564850226976
Li 6.733492170481038 3.6604038799633463 9.105401793361523
Li 5.481175750919792 10.81101447378476 7.569260081027718
Li 4.080868945204952 8.041194862223664 8.274148269840172
Li 8.422480623299 10.182191392571816 6.549431670175466
Li 6.365143731248509 6.231861794157541 8.235877996864463
Li 3.8600107595624746 4.66773542615192 7.834820299800448
Li 9.525925879240173 4.955920276601991 4.784272584571884
Li 9.693129440807859 8.08115610011084 4.628914084223673
Li 6.7849982632064725 9.150374111522577 3.740197423834277
Li 8.411961318957468 2.1893724973824886 5.709682114033517
Li 7.213575148666973 6.602337955433442 4.6054462052670475
Li 3.8463504461690694 8.92995180918798 5.240626356631482
Li 6.873910709331137 4.456270467886449 6.318563801959965
Li 4.685169524856477 6.285297242173384 5.837266050944838
Li 8.007797101094377 6.493362566111158 2.0954654822917482
Li 6.6813723094113735 3.950417606616309 3.5975716557686193
Li 3.7169269848830635 4.071644402798064 4.665530775878445
Li 5.412685600550018 2.270771966662766 6.442461136754775
Li 4.792304203911963 6.606168132183852 3.1049938845429574
Li 1.9974888875551535 6.411220461205817 5.61424933241258
