38
Energy = -58.22937782 eV
Li 0.8744157195091582 5.2927735895713965 6.996480627992901
Li 1.6884911936314617 3.6376174660670886 4.391647913734733
Li 2.5210067638968456 2.607042442239437 7.213984486975694
Li 1.9346514630756924 6.767254311989626 4.523431215835019
Li 5.428792229398475 6.403732899140457 7.789648608929182
Li 2.9699503572295294 7.770790188818411 7.346312945603192
Li 3.329836661350517 5.0797242715602 9.012816538206945
Li 4.9166134698335355 2.574040721585277 4.8193824278048565
Li 3.040809591452367 9.683492114243636 4.861535895391159
Li 3.4368559184686536 4.933170824309147 6.0781413046889785
Li 3.735911100401438 7.944442220846912 2.3627416033937667
Li 4.227985289465082 5.00921226395472 3.210037485612787
Li 5.445347381744744 3.2639530505390644 7.605570285884646
Li 5.614261139588565 6.4515642149863535 10.674742778260688
Li 5.454525626754753 9.026190652136396 8.971148070838868
Li 7.106507981319644 8.35889411404435 6.623008591251743
Li 4.751930573724409 7.4818109541199656 5.00162401900411
Li 5.676279747490536 10.660256232837133 6.3163724239915915
Li 5.5121685206592685 3.3594884637385762 10.609924005320599
Li 6.1681405736789685 9.427576273111416 3.654504130749724
Li 8.234408349630662 10.369543646276508 8.150864849767915
Li 8.107319963629449 2.1924321769166735 9.403742983268833
Li 7.245676620733903 4.7088259052135895 8.995615322823612
Li 6.552249228269286 6.66120217597822 2.2940312089142267
Li 8.156058268013531 7.40837102409584 9.327787688787103
Li 6.196771627030442 5.145099048697174 5.3855990980718325
Li 8.362065036673217 4.842644454682711 11.37653520446905
Li 8.150371922323682 3.0597083870238073 6.404830572402748
Li 8.756778264020106 8.912651643374716 2.111766363104787
Li 8.381089211517917 7.1768114793149955 4.285931378354101
Li 8.753066573576238 10.08579132303275 5.105466412650321
Li 10.105820330827603 4.744771841398731 8.571420658290302
Li 7.679378410124992 4.0493411806764765 3.437742036988995
Li 8.323207059263934 5.831977867986066 6.800008379766428
Li 9.708333809577775 6.023481954778736 2.0659021672852704
Li 10.141199408596464 7.873198601895684 6.960038578458958
Li 11.01315760586347 8.020524070107475 4.002902791368452
Li 10.380559515366013 5.128305736318448 5.100554542067726
