30
Energy = -44.88328503 eV
Li 9.26116011186454 9.063084469731658 4.137127153827455
Li 11.642622442618157 6.775757082522387 4.722165367953341
Li 6.4792299317992095 10.971496220782113 4.877893003770496
Li 11.07254208290823 8.994472660984169 6.8042364667364605
Li 6.548809814928858 7.955096166625548 4.8388241505184135
Li 3.83226060918126 9.445264307891309 4.623305523403723
Li 7.024102816386396 4.958573120265928 5.689350470356161
Li 11.543763119152352 6.076451462244727 7.7422870140838995
Li 4.26785338187369 6.730129659723001 6.370952680064912
Li 6.702890985098311 11.948178296384304 7.925622273112307
Li 6.795113551635417 7.111270849227067 7.616135483304741
Li 9.240999532929228 6.933066740520825 6.078751741148775
Li 10.172785662990302 4.115994460651912 5.831585599575237
Li 8.144546516221347 9.608738521628963 6.830857264996737
Li 5.181696389791424 9.57473955633193 7.09195872007656
Li 3.8869391259163133 11.923304177080432 6.489123362868425
Li 8.800212061096502 4.993869482380465 8.205847166004045
Li 5.81304244988219 4.624755761660321 8.425713981762604
Li 2.4662051254965442 9.307097800449714 7.393760319069847
Li 9.458680846468898 10.762418619473268 9.201622621848037
Li 6.914818639082484 9.419871839524452 9.593218728671353
Li 8.090736500397094 2.434948422399296 7.44054784188111
Li 9.37856111672527 7.831422889483332 8.930518086593471
Li 4.514061461502187 7.650393908200272 9.24506055719575
Li 10.83145636009878 3.141040962764783 8.746414611831838
Li 8.236727615589267 3.4102712271265356 10.34651264723755
Li 10.33643366918539 5.696861522195942 10.654501975297189
Li 7.335682095397352 6.444305493031474 10.448266191408385
Li 4.214379574337917 10.878098787842443 9.4182453080372
Li 9.162727765373404 8.570066886800127 11.630635043292793
