30
Energy = -44.67343203 eV
Li 7.690129912273043 9.807810968628306 5.281819286260717
Li 7.360508739430891 9.991086170490343 8.267360751306825
Li 7.222877343339351 7.114765084201525 5.371555999856436
Li 5.037496706730787 6.044109471904866 3.8306322494888723
Li 6.546078060171816 6.797254619120702 8.149808210661979
Li 4.946426814977228 9.268280805329672 3.8519105199511863
Li 4.605488148952079 8.810577978869983 9.082162163413752
Li 2.904264547172172 4.328571325695786 5.348381318106183
Li 7.31399053661066 7.842306452451564 10.489255783021433
Li 9.43990745241405 5.899235921838141 9.580243045023268
Li 7.680115426806902 2.544129490107874 6.455086709978556
Li 5.739526370816243 4.87664335034308 6.349036361434346
Li 4.943557474007314 5.567056943544605 9.856613780647388
Li 7.565581029115861 7.719489741304238 2.8167096387256825
Li 9.957424889859313 7.368654659877123 4.903681074175879
Li 11.504721780489374 6.738008078347817 7.628654803394163
Li 8.911432171756617 5.182089866278638 6.785579706290515
Li 7.936491811845637 4.701027818378405 4.082118883291885
Li 5.357656838208637 2.839121930480185 4.511067325893629
Li 3.3484984720781035 6.317226875720479 7.470036869448359
Li 10.224361987043084 8.965999190839897 9.666997512355117
Li 2.5853313451379267 7.401427646689282 4.724282642163169
Li 4.946024302716069 8.259979138003349 6.33429321962691
Li 7.35341351786813 3.9720900307855573 8.937917292704345
Li 8.96140177542164 7.89700491899997 7.560972190427059
Li 10.466377662433711 9.97399870793163 6.797921688514718
Li 5.03204204296753 11.008861878432896 6.511130880183646
Li 4.555890809951992 2.9474616987769466 7.695083532373514
Li 2.466422320500301 9.403301780227258 6.89306218814405
Li 10.382042989716012 3.308884395047592 8.13873806517853
