37
Energy = -56.43445378 eV
Li 5.4456905866126935 6.993800882315363 1.0327238766330729
Li 5.134595634001936 9.777426944025787 2.3142873016987906
Li 8.094082706854666 8.448298598740218 2.333247266411908
Li 3.007531104780055 7.567335680217484 2.9397459409766467
Li 5.682140466995719 7.4305246959327915 3.733397820052351
Li 4.528454751842321 4.7615794647912555 3.1285655776497925
Li 4.090694704070458 9.31602530164745 5.206276831953299
Li 7.0422308534049 9.821439527750254 4.920259895163681
Li 6.035169958985782 7.538872813498244 6.668421926665938
Li 2.9445253229938397 8.426822582021327 7.863024760551377
Li 10.168901374643168 9.363244130646827 4.744217331997172
Li 3.6628362425720478 6.2478503914305 5.781730454498235
Li 8.407456540076497 7.184936396203891 4.8065611556444905
Li 7.670887374196098 5.328990010843682 2.6654514953609385
Li 5.583956964137915 10.14601972673977 7.846465435447541
Li 2.9419636249435333 5.2366964228338615 8.657678861022776
Li 4.296005614214193 3.231386855349456 6.004941393196004
Li 8.51175027167305 8.785936681801228 7.350653724037717
Li 8.242568063692325 5.7250309525869865 7.26752419640428
Li 6.4347697879308905 5.008975274273411 5.176622172452207
Li 10.813115275724702 6.817236398298708 6.409043797068628
Li 10.579035858406879 6.620833366046873 3.2594815655156375
Li 4.682214652087148 2.521479252077881 8.976991445890436
Li 7.469450952472765 9.473596145250909 10.088279245992782
Li 9.366576695474917 4.255407403039111 5.09106445951935
Li 6.657869838379765 2.5341999457054425 3.9322726128772687
Li 5.0675450200528225 7.61469555140146 9.331104830804728
Li 10.16409840191338 7.57552228090605 9.426415617701219
Li 7.534287568551803 6.655452901447448 9.60345974499647
Li 10.201645202796815 4.564385755594973 8.652624018870032
Li 5.537652741930677 4.997715823513412 8.00631949590781
Li 7.502974364335665 3.7561169966979517 9.74136262594671
Li 7.2411795422905305 2.8043831570182047 6.958363783657639
Li 6.2581697787572645 7.688641179774425 12.047369024295623
Li 4.270925334233674 9.91233393942672 10.621276499631954
Li 8.766534175346955 5.793174245804971 11.76151160053849
Li 5.191502293570105 5.08683569059506 10.889827207048246
