38
Energy = -58.0393439 eV
Li 6.149385930439222 5.1057943022798895 2.6748302473981425
Li 3.020292035569271 6.803698651956212 3.1632614047641643
Li 3.5603299643645236 3.660147115934948 3.5409603830466025
Li 8.363643236281906 9.990135549517278 2.669815810736965
Li 8.906138087818338 7.026860321780651 3.07022121866031
Li 5.973688869212673 7.9973940400345 3.1142676420231474
Li 10.411059020516152 9.086707218230448 5.007280279997943
Li 1.6547923414071344 5.1143443082606 5.42220947415705
Li 8.884381301793011 3.9852568330623566 3.706404148461345
Li 6.300374807737413 3.3001827198500684 5.143592393216332
Li 4.4662987897891995 5.742962589837788 5.1761247405917965
Li 5.678872454984193 10.982281093658493 4.054403754590305
Li 4.556559450130414 8.633024309716951 5.509814572029852
Li 7.598009413538636 9.127415398278657 5.161274159362958
Li 10.5957188501048 5.974747701183287 5.273901134563647
Li 8.510551412720051 11.770297777948544 5.200321139668205
Li 7.30782382386548 6.153479199261694 5.128143730813803
Li 1.8482449471352236 8.090414397890456 5.893823575269654
Li 3.786703997340465 3.320811730984394 6.656522155247003
Li 8.644548074394791 4.342446470962381 6.825134392045537
Li 6.18170782044962 10.706876287401027 7.0645969049206485
Li 8.997396761515288 7.463196177904572 7.124929258108191
Li 6.16661584402187 7.614965915563681 7.386088935170301
Li 10.949693640308608 5.786203403208374 8.465955146838366
Li 9.087033943257824 10.163004677241615 7.685443353183977
Li 3.845849765738075 9.17984190958171 8.401175476247865
Li 5.952836486726899 4.901857939001094 7.811380879178455
Li 6.995194219886309 9.072843304765295 9.569037238739583
Li 3.302985164966113 6.298524281731702 7.707162217224937
Li 9.244071244237267 3.312570308730581 9.38427064621074
Li 8.137461055885202 6.097685479917019 9.3903466415766
Li 9.884361860854597 8.191552881526807 10.083844496355958
Li 6.49934504644063 2.2800863186055027 8.173999223053283
Li 5.1477154031070755 6.748045354441488 10.067428080105636
Li 9.874063715171765 5.3962789682680725 11.447781777002389
Li 3.898546183980473 3.936442352640624 9.581536130507743
Li 6.742115713159017 4.2080138036110055 10.830125331547583
Li 7.464180318305023 7.123283354737615 11.999220750496162
