36
Energy = -54.84626019 eV
Li 4.414357218739191 7.8039665417023905 11.88236908247725
Li 7.267945709833053 9.219140471670396 11.139084589664598
Li 3.90420034919659 6.726275694349285 6.9159563168275495
Li 4.691573832668126 3.7524435611845988 6.654472710655434
Li 4.111960874690568 9.775640974945059 7.080543042464658
Li 3.6728826487309973 5.266935406617637 4.106137835411532
Li 8.737181096744104 6.340331934863019 6.395717476427257
Li 6.071399199384034 6.027019833240753 2.319679141894752
Li 6.385316071794961 8.183540230111204 6.535398562453091
Li 7.011270201605162 6.207320292322541 11.005146491071226
Li 9.900884690647295 9.99750878464037 9.153477787516456
Li 9.219622567790076 5.051757775904889 9.244896234713021
Li 9.574999306968547 4.768026613800459 12.225917068711851
Li 12.572017845442272 8.641148050960783 9.744342683979824
Li 11.786449096066429 10.021906303003478 6.700154744145863
Li 7.837387977965286 3.5899296260532325 6.395736189293042
Li 4.102938016647348 5.4707227047214415 9.770325793839831
Li 4.765866751902444 8.279818746070042 4.281681302482708
Li 4.402938050344561 10.42443160583995 10.263550713269277
Li 10.844059033022361 7.646143061042366 4.791939802753449
Li 6.470597711137812 5.59119386974161 8.069484082118965
Li 5.233321898745433 8.036972609929414 9.267839526794459
Li 6.94491792263552 10.442493953186794 8.268039667364365
Li 6.826146492925299 10.688519747244168 5.1508413014947365
Li 12.03032087787031 5.572431227219718 10.316439809234362
Li 2.483965477412898 8.145001130004697 9.370680005272368
Li 6.040539529967294 3.27834923294851 3.7742067603710114
Li 9.11504928022913 9.31188910067725 6.368770234458045
Li 7.889968293763987 8.052319044948785 3.9770195969024864
Li 8.686521726050326 5.082923058716363 3.7279545574661195
Li 9.942334418872482 7.4101485673396335 10.91973243590537
Li 8.100216709542082 7.816006378686798 8.770901108012925
Li 10.900698864860132 7.35179869304187 7.975248901741768
Li 6.19896303119749 5.668078066243831 5.067234537368785
Li 9.374919567601939 12.007070490740452 6.754643312067521
Li 9.875770497277589 10.597458779149191 4.032967150106558
