39
Energy = -59.63372672 eV
Li 7.401691945780767 10.81180133337401 9.98836978881206
Li 5.81794951642629 8.674764087583664 12.562627378291069
Li 8.81044609792982 8.165317690253266 11.405029154251693
Li 10.369329172884282 5.362012702608828 10.239563845369016
Li 9.83202511381409 9.219954389308576 8.555197719460656
Li 10.955115834829183 6.188489227048973 7.010324337501335
Li 7.082486810142956 9.216199513833294 7.508248062043494
Li 6.3999529128109165 8.332093356567526 9.960597924132854
Li 10.860630941855138 9.148904121752999 5.642993497101384
Li 3.913513374330754 6.824366977152539 10.070841779914623
Li 7.872968125731584 4.0165692714344035 9.17219507810838
Li 6.751872660958646 5.868411896723132 11.205553724826313
Li 8.446409397114014 10.981862380290302 5.890805658123299
Li 9.746701400633814 3.7752687966168357 4.589684686214041
Li 10.276729830353867 3.2450043299054507 7.70772059114978
Li 10.317291090184147 9.72185015891256 2.6927971038522056
Li 8.600958743186853 6.800914931948047 8.857374150787884
Li 5.340729502212527 11.353159431980458 7.663592189091799
Li 4.118160488586995 9.896812693273578 10.12136352541742
Li 6.083562923596745 6.225504696949364 8.194107893978822
Li 4.903397032759153 3.7204430495325633 8.887907553155253
Li 8.651092901001231 7.612079886185718 6.125716712976884
Li 4.396275427931555 8.514554555137353 7.637210582854204
Li 7.962427464093633 8.847106951253851 3.8164180091835935
Li 7.2374689230530285 2.1645979246143114 6.929969599433991
Li 10.227504553872091 6.840320617616814 3.844682027566197
Li 8.36076291216158 4.937334158950956 6.4740186995521025
Li 5.841605962316292 7.226530483512994 5.497428454525184
Li 5.551678154045698 9.969069339616254 4.992164831289571
Li 8.460763367968582 7.391320984473929 1.4075252843570871
Li 1.7388665464778996 8.376238340511298 8.186956711070197
Li 3.259240714464934 5.770057229061416 7.099381375687173
Li 7.441264439940046 5.78251096751145 3.7781539543954175
Li 5.739132346353209 4.4133523634694525 6.2597181160325235
Li 3.956011977740156 2.4703898343107946 6.009574952632239
Li 5.3806389162696915 7.794943484982705 2.715712193960126
Li 6.5368568931451145 2.9816186259350745 4.093234609199367
Li 4.207137328557877 5.191494503275239 4.087498938568543
Li 3.0914081103551863 8.08422835754647 5.071904732691264
