34
Energy = -50.25740678 eV
Li 6.568349515284967 9.609013086931736 9.659638772568336
Li 4.0184051292401115 8.197667354522695 8.621736990842363
Li 2.4154987484139108 5.808988601695109 7.3407091757809555
Li 6.401739595556728 7.230555294847646 11.21108356599371
Li 4.648233410828036 5.533684565095387 9.437253322056971
Li 2.7005221544703164 3.321411069641826 8.679590690220667
Li 0.4672565743190845 3.7770749785190496 6.505245004836013
Li 9.053523703287432 10.011610920609082 8.33473079824919
Li 7.425218869827446 4.736064224898318 9.34214216481619
Li 8.84044677157614 9.410632814342149 11.558702512379824
Li 5.812237649677246 10.046743637528136 6.695467470293033
Li 4.288849681076135 7.565633128174669 5.567825493736969
Li 5.643817919332085 2.6393527442512745 8.196054117734892
Li 2.3730590117376935 5.421859163806562 4.484161726287493
Li 8.71135434217301 7.430690422474878 9.533885864804242
Li 5.10190106812869 4.990487566001537 6.726674306872976
Li 6.61062297716954 7.453779825572602 7.6395292010673765
Li 10.275440294225504 4.916057718015645 8.513128047653106
Li 3.337955170270353 3.010193353368965 5.878458997589239
Li 8.020568022782037 4.97823882166448 6.552533358113508
Li 7.04219877629945 7.0130509356075255 4.685994988856153
Li 6.438509615692657 2.668007233067657 5.401342144138372
Li 5.217035588313593 4.943700675600401 3.863345909138387
Li 8.73947016640596 2.472752270930237 7.4891001214088595
Li 5.862927919475873 9.409904105892226 3.6141103431187322
Li 4.17852131104678 7.3452639088448235 2.508326703237785
Li 8.306478962839638 9.397230583913 5.469466495958629
Li 9.769878304476784 7.2452513532400875 6.741056688581792
Li 8.164652977978543 4.504146372406479 3.5481466696702726
Li 8.448052116349814 9.393824362764128 2.4326398811786336
Li 10.538478631889834 4.409155837656446 5.511129782175749
Li 9.724169010348453 6.951026548427124 3.7688531496745163
Li 7.031742683482891 6.935143197328619 1.8920671378746772
Li 5.8300212629429184 9.441317925864869 0.6821552898383836
