37
Energy = -56.35869649 eV
Li 7.686387115204167 3.224662955865257 2.5010264781445657
Li 4.742264340524024 3.8504083483198452 3.391728519814739
Li 8.999410110997474 6.124033270133791 2.4052550987256325
Li 5.989368644311481 0.7826374035510024 3.595596455860722
Li 5.875722566978188 6.260432337801447 1.7049458218497489
Li 8.903801881392829 0.8456815696798743 4.392916432997987
Li 9.651664078671185 3.957818832516974 4.701438759863548
Li 2.486341225003796 4.821809955412435 5.168138776033583
Li 6.973072541635927 8.422557632684537 3.640913110068108
Li 7.04780563459814 2.6371255405951373 5.310698777669058
Li 9.248066483550904 7.138513997907105 5.397698549557533
Li 4.254797715542243 9.005746251725121 2.4176595630580837
Li 2.8484743264837897 6.09831946131539 2.01296711761257
Li 6.722940940620658 0.22218844133574417 6.526252293231257
Li 4.17389457758136 2.1002314455212514 5.996414251102432
Li 9.038422435961403 2.11077391842289 7.402649137256251
Li 7.192824276503654 5.418497421789724 4.280982579031601
Li 8.019978925934781 4.853030545366926 7.109076844351644
Li 4.464756038925176 6.752750348209745 4.164838903423293
Li 6.193575663183713 11.353262024369528 4.186511629209062
Li 6.200789770103662 2.872938976299019 8.285804560284017
Li 6.499568951180443 7.253927457538148 6.306180467699671
Li 5.151925664730646 4.681128762160131 6.186693958838818
Li 8.284636907459921 4.644596742384024 9.994461463312865
Li 3.322199948748032 4.350020430415309 8.29598557342628
Li 8.339327418200101 7.533312186887756 8.512726879595586
Li 3.6805277784687362 7.032389801286162 7.071956213359549
Li 4.748185205230389 9.364832981120784 5.510365062535665
Li 7.691621907193246 9.82861015334082 6.380373284416679
Li 5.62492603380089 8.886533006409767 8.492178095967718
Li 5.854420013748476 5.872404722104027 8.910843362288366
Li 6.636757745371069 7.860685155384711 10.9624136014907
Li 3.612315186563724 7.444853273856131 10.034231721334299
Li 7.6953392046110745 10.466631023173374 9.489048344799647
Li 3.0028745391220855 9.788744657504953 8.048388310958565
Li 5.5042917933693065 11.586580165004392 7.525389431166159
Li 4.761464368907808 10.502580553710244 10.479346216807064
