37
Energy = -57.29626393 eV
Li 6.329329775796837 11.856659368020708 6.236665497255856
Li 4.008468519330055 11.035808444726586 4.280797990083276
Li 8.396986670652156 9.419827237842348 6.434595919010059
Li 7.034468021778685 10.088864471825447 3.675390426827622
Li 11.287579460196582 8.244764245702473 7.06213796109697
Li 6.389385407079309 9.784292830113078 8.719269113121584
Li 7.13600684618549 7.408512355662474 4.556504839370425
Li 9.294622711957366 6.456595652962002 6.293392128712559
Li 8.946004011573887 7.780761064632661 9.018191520196623
Li 4.6386671413371 8.116872114508293 3.2694639292643917
Li 9.882275552739564 8.096231534551503 3.995223371713718
Li 11.683382247414357 5.632535683423885 5.24528908919094
Li 5.3421822045335245 9.3348211888874 5.963337148514976
Li 3.6232445529604043 10.891600680173081 7.368440014202823
Li 10.899444127191101 5.5136419926195455 8.413348574609447
Li 6.7053304873803175 7.240738410745863 7.41933452864363
Li 11.487596509277214 7.740287251848032 10.260481391207863
Li 7.422419761638829 7.515044118176547 1.8308428780734107
Li 6.962914730302299 4.744086416676549 5.966141120534213
Li 2.564454755654109 8.458581920997437 5.606650507812339
Li 9.514505720327303 3.529393939789542 6.334663209386683
Li 2.6636727476140223 5.646000762504676 4.005656574655286
Li 3.985884844853489 7.819386925438966 8.318188880497363
Li 8.930305969168892 5.130010508972559 3.7145298143210477
Li 6.273534196150611 6.806748939059693 10.251024106599383
Li 4.592746737087514 6.450912760019682 5.726594166684012
Li 9.129732286971002 5.7197594475096825 11.161799286794478
Li 5.047470496941331 4.90837898207295 8.232152595200944
Li 5.744771147782452 5.1400032244236264 3.3236139935158415
Li 8.006063472467353 4.918008144006194 8.657184870896284
Li 7.129318180180507 2.433421576262546 4.511667424490225
Li 2.3716487287195314 5.3577851013675835 7.24492454385229
Li 3.335588290818007 5.351383708058042 10.300977479143896
Li 4.348936739948194 3.4584697407576903 5.709159778124904
Li 6.035053542973947 3.708395355058075 10.57134935788696
Li 6.560172609754749 2.4369911089938054 7.626991201433539
Li 3.545748253612467 2.6657564354262293 8.687294302811038
