36
Energy = -55.01495682 eV
Li 5.497007364062547 4.662983622325249 9.75294021619454
Li 6.372471532661072 7.737053779578895 10.667661921696208
Li 8.048920159972976 3.24775454671094 8.430132940629457
Li 7.424991438240453 10.723810854982732 10.353348311594631
Li 7.893867884993363 6.136813130908387 8.64173261017354
Li 6.049469867404671 4.640622866877163 6.840304519323338
Li 5.138466608709673 7.04177672861878 8.107872619057119
Li 9.477038706119629 8.299324852634275 9.985449906151315
Li 10.62071748922924 5.258246788143577 8.450311404121752
Li 4.642122035549077 9.70987039042247 9.059680226111889
Li 8.091719466476837 0.49025002029797177 7.452207923130243
Li 3.223182996398221 4.815882427510531 7.622640232314872
Li 3.2241630876311596 6.936124330011885 10.06964973580174
Li 9.953468915790006 7.806245474609038 6.944144151183029
Li 8.945038538528083 5.059555951579626 6.057790539106033
Li 10.280308926775373 2.6732572895634243 6.473758569353575
Li 7.425256337612082 9.007075604657512 8.219939811013365
Li 7.3748047265795105 2.548474563538371 5.470857029884578
Li 9.554619284094787 10.760348566260932 7.994167820150416
Li 5.224471779994119 2.148357486560555 7.687275229732315
Li 7.156677898457233 7.180233861989563 5.988721315378227
Li 5.245396809566523 9.167657873171924 6.125839753392744
Li 4.334922889018376 6.39973757222522 5.23983755334068
Li 6.491717965221575 11.525900329509476 7.295051975054459
Li 2.635467831283856 8.017461923674698 7.146937235392783
Li 9.611156618684346 3.867085850886102 3.6210045492865257
Li 8.151260579881173 9.739972033750748 5.327551170350276
Li 11.591339736339929 5.5004182157217985 5.443448904707832
Li 6.688671848731019 5.093729846455044 3.915750074106916
Li 3.39093411542774 11.100432031561406 6.421478152692055
Li 5.549240167139035 11.100982650359969 4.221818898176153
Li 4.289666313191811 3.4937578792875157 4.845352115965018
Li 9.248230335305017 7.015227126635722 3.9243286832900224
Li 3.2754436544654744 8.853638209755598 4.0545509979123056
Li 6.121971839921532 8.061809253603148 3.409664934194101
Li 3.965363797760769 5.898221816417409 2.5310054225044034
