32
Energy = -48.65179871 eV
Li 2.015025642766836 4.665736617684001 5.815266810393008
Li 3.2422217415018664 3.499117375811044 8.379201619507926
Li 7.596267743126628 1.6795929321263523 5.815663433462765
Li 4.5077664530485855 5.316365877268564 6.751746899057684
Li 4.513893620275651 2.6943617112811182 5.596770995747023
Li 9.228276075962835 3.6298015151914385 3.9234452633909673
Li 8.49885818457057 1.6685613092822333 8.944930186717482
Li 6.342045515034074 3.3278633962435404 8.00618872117871
Li 4.381242022009287 5.256421462952504 3.7949424574288475
Li 5.2031525267390375 5.731831952589982 9.584997190968801
Li 2.446421756009037 6.693906251522638 8.232884575860872
Li 6.385792635046353 2.7796871755530534 3.0611582713846865
Li 6.8867662843356126 4.377660469816693 5.180744132880304
Li 9.130672009703403 3.9467127065421397 7.061099773907468
Li 6.043295402919447 7.2495448633647674 5.074315158398343
Li 7.228905333686165 5.961455772608676 2.7278536319818603
Li 3.1844916480928647 7.753031669894755 5.480468217041127
Li 5.04369790601904 8.163131411015684 7.746932300806589
Li 8.244502137205547 4.808908005016601 9.780044380497843
Li 2.9922749842233687 10.038920623202067 7.689054253228922
Li 4.864960543388597 8.369865581626106 2.8723163785152592
Li 7.193270274745042 6.178107069493804 7.506845902231368
Li 7.793615545628135 8.966505382820023 6.730000111622871
Li 8.990808888695122 6.539432574326244 5.167529956565829
Li 9.845794361181577 7.253003397236902 8.005747426304538
Li 5.229614855181455 10.063878296699945 5.468779640229866
Li 7.392718749282624 8.1241621149177 9.580083172051626
Li 6.1697037303946525 10.78617089018928 8.268448248713005
Li 7.750036392984478 9.106919854160193 3.815334235401499
Li 10.28555358405245 9.396890007274047 5.631028139570671
Li 8.032083596060666 11.549071352396417 5.789711119501308
Li 9.343929831868635 10.415423890542444 8.394922238574706
