34
Energy = -51.21749735 eV
Li 7.424461773692171 4.445618351062617 2.027144939883333
Li 5.703176621099115 6.282012322072724 3.6383100774213104
Li 8.465147403185787 5.9296248620553165 4.492988167476882
Li 7.674469664113801 7.996703128446117 2.3678409796320454
Li 6.659292681571631 1.4502245130426825 2.969175237720081
Li 9.092879050631407 2.8876696879187302 4.213002882315825
Li 4.4172787702314285 3.7671888261127258 2.6374490780653397
Li 2.8899498732804165 6.918756381871172 3.3489874661457613
Li 9.658954617216782 8.791813220575966 4.729629710612729
Li 4.951517749119032 9.31461477251259 3.2718852113996135
Li 6.495684939762824 3.6201080334866984 4.640480140412372
Li 7.03819319893315 8.465607122638987 5.143743610106033
Li 8.369042826863296 4.197412587955729 6.963171977531457
Li 7.4700749870910315 10.95492633924466 3.9702954964001105
Li 7.339184884377504 1.430385581618443 6.286934573792446
Li 4.497744319837854 1.8257852397916938 5.135720616225387
Li 4.27088542559347 7.82803417665882 5.715533753347994
Li 8.159114886291142 10.18432677095506 7.173480047488383
Li 3.8715403772402435 4.88260291941932 5.4397388295199915
Li 5.044148656098247 4.294963472868197 10.555159776210889
Li 7.677417046491791 2.9617551945592386 9.640082911515426
Li 8.749176746928311 7.174930220879381 7.22613170095895
Li 9.636064057914163 5.339226720639298 9.589909471155856
Li 1.7988972494617588 7.024728221371056 6.33750561144093
Li 5.234455391319236 10.58345439246836 6.063443005248345
Li 6.955757153724772 5.695909443190047 9.195842947430505
Li 2.4488945763013783 9.816508207941952 4.996291846562143
Li 6.144061415440752 8.244771394181614 7.966082651581775
Li 3.3845415542627446 9.103610189121765 8.152877569011899
Li 4.14359248815982 6.125775568227675 8.172429733458383
Li 8.238118251663705 8.133204813937958 10.089014286045725
Li 5.531171626976268 3.5079512836900433 7.563976566702304
Li 7.55722528810356 5.519164726977654 11.867839750830028
Li 5.234032078557289 7.452963757887777 10.710728393682023
