32
Energy = -47.7584052 eV
Li 12.329831882842536 6.060376580000514 4.262254446439566
Li 9.700543382054814 7.07045653071896 4.274067325788619
Li 7.087494760485181 6.7735291683047665 3.032827892745195
Li 5.6948242241987295 9.431350298404201 4.023713011131799
Li 6.493627279871119 11.388737432731004 6.300555870596065
Li 7.830055460253442 8.642621078620765 5.94981237877422
Li 11.201754139386773 8.229945758126028 6.303634636630436
Li 9.42632166403646 4.16248750956213 3.7491266124791487
Li 5.460193742760507 6.722427313343024 5.285035019221016
Li 6.417026630134522 4.0769016286875015 4.0620431531971395
Li 4.3313778681061175 11.13716701403508 8.534584745759991
Li 7.075661304953377 9.546748505878531 8.827283625766675
Li 7.91616800192132 5.6517798112716955 5.927697586243449
Li 10.574218458925595 5.161729999094575 6.4958695683580965
Li 3.4859048740139635 11.109977362055657 5.509052838108306
Li 7.488605768968355 1.5317111480180623 3.366840747843769
Li 8.021855801291776 2.7543436327597273 6.102073608947672
Li 4.845526883776285 9.100000158683264 6.802979183593146
Li 5.10193108429351 1.8740344505353574 5.523055172386553
Li 5.477815103129523 4.265044163446149 6.928432108247961
Li 3.473208073891721 4.632608951934628 4.835866395257
Li 9.16293838633309 7.240125819740823 8.280627804148702
Li 2.1439287020409954 9.17966880814021 7.513846488331785
Li 5.864790496453559 2.0599711260491094 8.518806169294571
Li 7.137383654825905 6.910133092902293 10.641997642643165
Li 2.984165319258715 8.030331893063858 4.735116902152597
Li 4.404509614520859 8.170776699715875 9.638736552355983
Li 7.929662834648558 4.471652534287797 8.618503642570623
Li 6.321241815923501 6.866002512701989 8.054202474877432
Li 3.3951714711747076 6.3274135445556245 7.355759412195625
Li 3.0487643605153547 3.167274544084121 7.6548506715490054
Li 4.88878340661975 4.865392882395553 9.65285724322579
