37
Energy = -56.19689041 eV
Li 5.748590270196792 5.294244475933221 11.167312318691295
Li 5.305722112869754 5.619670905642455 8.276757175778911
Li 3.1755875820979815 4.282518605498273 6.591581589023733
Li 4.543407058680489 1.7364306424895217 5.235521926533663
Li 6.050889085830833 3.063249653720606 7.286937301752258
Li 8.000161487743105 4.334858707745986 9.289302377396394
Li 7.629223840498251 0.861778954220205 5.834551918301673
Li 8.80903897231561 6.179684809864766 11.69851466704193
Li 4.177194453195855 7.744672683039965 9.74867612657038
Li 3.3055006742497 7.329203972895908 6.533208128839829
Li 6.421191784459257 8.146685422041767 12.149014464085411
Li 1.535611101173594 6.143265387395826 4.6032874159151635
Li 8.848379697396998 3.4310988353907725 6.549974152022592
Li 7.247853572236784 7.207440376734459 9.706547136343467
Li 5.56113380659882 5.540490497533702 5.4885122867185245
Li 3.894526703509295 4.313637388212239 3.683047516111351
Li 3.643673666829687 10.114788620360564 7.60439259398904
Li 2.073777044075362 9.34166501520795 4.697420279553421
Li 5.02044649151288 9.844750970531104 4.914988112950309
Li 9.037429781925267 9.082981243314423 10.609921637122108
Li 7.950566301794415 6.105957995195782 6.969682481728678
Li 6.866410433878737 3.286162915016698 4.406449923378425
Li 4.11213989375961 7.383507275402854 3.750435575106203
Li 5.857532307518689 8.322882946658451 7.248189940926782
Li 10.063269443918061 6.603478122864059 8.71676991608358
Li 9.797950389946756 2.755155150343392 3.8839762100471216
Li 6.20438794199426 9.913185432110838 9.641769781049465
Li 7.106748998266097 7.7863461924778035 4.65276368384182
Li 6.53346383688921 5.83440779127775 2.6282153593079913
Li 11.126204575103943 5.057284167382911 6.035524319087356
Li 8.511977130899291 9.04261539482915 7.5948634555446315
Li 8.870731613820983 5.452467950596259 4.335956541622676
Li 6.246968754549941 9.069187966096786 2.2899040035391067
Li 10.079189575995384 7.840701808927086 5.498332885173719
Li 6.620395616049989 11.212872574585571 6.975379399511241
Li 9.149025766097402 7.8710350685573305 2.60690932181833
Li 8.275304339261625 10.191180925091507 4.484639451499837
