38
Energy = -58.38870804 eV
Li 6.949745694320829 4.449460281941297 2.3102007798982056
Li 9.348517523405196 5.0507079910501265 4.13987775514595
Li 4.654192558535329 6.5939478198838835 2.512220440027775
Li 7.779948735423237 7.4605585522914195 3.000219974616203
Li 9.306954236173564 7.633532566634203 5.3141705490837055
Li 4.424939308033829 3.6375748581629206 3.9225597050950873
Li 7.191742062585724 2.8131433492252405 5.173329499579851
Li 4.81103102231369 8.036137929142468 4.962446458713781
Li 11.456140949503084 7.300220397593833 3.7220142293252905
Li 9.92615013054955 9.993751248826054 4.112684153489755
Li 8.277154545047598 4.966169426001381 6.747877329014281
Li 6.274323364358363 5.594418140637248 4.676097020911734
Li 3.0887355928564504 5.8617256636173956 5.597990124749533
Li 6.8296498305750335 9.884984403053224 4.424556634844263
Li 3.7321695632386027 10.554318208823275 4.295461526069047
Li 11.317788258089017 8.917677823391973 6.878932934921782
Li 11.191071298702838 5.797203089810852 6.682060466133655
Li 5.185133670251198 4.239153828419436 6.902714252274377
Li 7.293063228219381 2.7581136027121738 8.54353126362402
Li 4.711916742988706 6.943112730293455 7.7822362397259575
Li 9.717076871660607 4.636883487675284 9.38285139387899
Li 7.002761946331776 7.509833460744323 6.550533577983852
Li 5.222416765852437 10.059792962470496 6.907366198192918
Li 2.433375591124933 6.1382043428973585 8.771818980479768
Li 8.409028074533284 10.047004223039428 6.906440479919794
Li 6.934688778562172 5.5482306994051465 9.048704144283287
Li 2.5743198784876133 8.718526252193136 6.748602438055055
Li 9.302067237466689 7.287704577434695 8.221350641038871
Li 4.040785231059072 9.243771004279557 9.556744077807197
Li 4.622835817924599 3.9919991810850832 9.717944343110203
Li 11.591169907897736 7.2115501631241425 9.66408267036213
Li 6.801770445368034 8.58665431261524 9.04505965010151
Li 7.2031797858534725 4.176788230307665 11.471973720719326
Li 5.195144079337191 6.715075574335302 10.892054385253028
Li 8.508367052998953 6.986800360719915 10.99035308743656
Li 6.6370754900049365 11.373144092504187 9.173123544872032
Li 6.570660795699784 9.41696621176739 11.600889054894711
Li 9.458480907587582 9.694867480142758 9.692924688382957
