37
Energy = -56.56628042 eV
Li 3.376426293483429 6.8699141789617455 9.131624855800247
Li 7.0917772163415655 3.7109355674239937 10.15142985961272
Li 6.540693964323707 5.672214881915757 5.757396091342811
Li 5.245883360235692 5.760249172775752 3.269923355304348
Li 10.591024772117008 4.220488272871813 3.387948154062997
Li 3.948033280381487 4.301962984331262 10.645404327973925
Li 8.819790844033921 9.493146488024037 3.8324424583781562
Li 6.304598339527471 8.328198863114844 4.540698196579341
Li 2.220852720085601 9.069995970311053 7.7049049446547295
Li 5.283720130935506 4.8942756844277095 8.286082579520997
Li 5.919298319755469 7.804657847248638 7.546152568365719
Li 4.267480557059388 9.86767075434292 5.867622650920432
Li 4.634503457621063 3.6173203470240245 5.585168296859114
Li 12.088433437015485 4.361635798355195 6.095058598829636
Li 8.062958442645513 5.8289482223461855 8.367990685642024
Li 7.141277582351293 10.362973112497997 6.470793115813106
Li 2.212338815542254 5.37849931209363 4.364202211538854
Li 6.616716211280984 8.309470513182655 1.8002964092075397
Li 7.369006780712904 3.1427651568131383 7.124257497703269
Li 5.8997116314314715 10.869055722734462 3.517174444493776
Li 4.809390790839598 2.1711513860976095 8.466861175296735
Li 9.446952711628438 4.896413078667949 5.847463733501954
Li 8.348521798351968 6.440953180550626 3.494111157061858
Li 9.958098333595043 2.1447592249515206 5.668868402425579
Li 5.0889911210534455 9.755518359084256 9.092299915814841
Li 10.801831354712135 6.7001048634483595 7.843676408438258
Li 3.6847666478048775 6.839613359319748 6.062304113036187
Li 7.527129621371674 3.5344886835018516 4.083011084902276
Li 8.651497061707257 7.787678234422397 6.205639968847776
Li 8.293180460720214 8.695838001563702 8.984002875420215
Li 1.4740095075493387 8.456000702109487 4.905952796820462
Li 0.8952941918639481 6.491158738510831 7.06708419828996
Li 11.046388187058751 7.061263232381427 4.676718309343324
Li 6.070057524242442 6.776060412845296 10.385223783488554
Li 3.8522426251284734 8.373002443241129 3.170691479571969
Li 2.6291252647021737 4.2034532555676565 7.675545605717999
Li 10.017736592417693 3.643387481967695 8.446450446122792
