34
Energy = -51.62582807 eV
Li 4.9025137554533895 11.218047642152783 5.274387826077705
Li 8.082713341129818 10.14649640608843 4.137765259666984
Li 7.517541928145326 12.07912804940904 6.725709828375369
Li 5.237012300063536 8.628091439761535 3.46758630381715
Li 6.714181193778821 9.456316574896704 6.339162407049226
Li 10.824250186635657 8.20199068803095 4.169501738701099
Li 7.987269730220731 7.146081700399796 3.2834826884586534
Li 9.92434699788613 9.935391246811127 6.5873496064571775
Li 6.104695300968837 6.883251451364985 5.3669992557508
Li 8.805752322864427 7.569175173640586 5.876896986141253
Li 8.120196476839755 9.94416527025142 8.958168687229634
Li 3.839294133560692 8.399713897154054 6.158745154890783
Li 9.832572263664144 5.11246345398892 5.07843996761357
Li 11.531782427326547 6.96356687934555 6.999125205989336
Li 11.26314973624815 9.216630851922472 9.2669238724453
Li 6.851045663705858 4.5089871544403755 4.209516636120457
Li 5.074000317092873 10.393945149102228 8.352073860157137
Li 9.326726609307881 7.381374502757064 8.596636186666405
Li 11.287452519736823 6.230375364445593 10.175327232586115
Li 4.5902977082428595 5.5563862584047 7.3398399302567325
Li 6.073048493579844 8.4098647911521 10.76445748165961
Li 7.5576919690640025 5.139334397228782 6.9911729052145875
Li 3.9136573232347738 5.739679273181749 4.285616738398744
Li 3.4673411488822414 7.757848107645081 8.984509982127435
Li 9.187063284979823 8.221135826375093 11.248553507468156
Li 6.389035338453061 7.4765533283731616 8.329113278971715
Li 10.007539437076565 4.375680441462032 8.094932367311182
Li 8.163264383578388 2.5154449708601954 6.266741166207591
Li 4.877317450947466 5.506557743830956 10.151487110872337
Li 7.959856723253822 5.561049356063406 10.178043583191942
Li 1.991366775589641 5.959269732834435 6.826080053770409
Li 3.077596968655283 3.57217406764637 8.550926624405907
Li 6.283149933994555 3.2811602402666837 8.64228847200085
Li 4.898301623800629 3.2136956800989225 6.014945451425187
