37
Energy = -55.94470787 eV
Li 2.8059952610641288 5.971847862181813 5.3056693864100195
Li 3.3692643137328266 5.923871075190183 8.26424267891966
Li 4.0197291295723705 3.987038649398293 3.3162433073352853
Li 4.773874699272978 4.022087689520257 6.406997246976417
Li 2.990467821216903 7.402018858280405 10.890995641279755
Li 3.4910637793547012 6.914424894590479 2.4649909935959946
Li 4.627268835741778 4.602311507977617 10.628828713093748
Li 3.6114184979129424 8.972105088435551 8.188419565384928
Li 3.567427449986312 8.727125229384315 4.952427318343023
Li 7.068808116597377 2.2991913740238 7.091854404645005
Li 6.813510979650543 3.3191249389450768 4.304219749192517
Li 6.485085748561703 5.031230471953934 8.531145835330697
Li 5.3201937053602535 7.1741364102797345 6.795978952026097
Li 5.660127341222278 7.155633690614189 12.487343135737223
Li 5.621719099167189 6.0963996041127055 4.352155530889557
Li 6.224565426184476 5.698720088851695 1.7164114000456872
Li 5.574992239361595 7.406921586502933 9.817313685121052
Li 4.836176570138112 9.820220338929218 11.205923934603412
Li 7.658266099042407 7.957923352997941 7.8872605330442935
Li 7.515330626811474 5.183792202467639 11.166725948857351
Li 6.085881900102959 8.587626616783103 3.052235029796832
Li 6.060295897364374 9.865892177504216 5.879804271900902
Li 6.270788826176764 10.234616108429577 8.701588503750072
Li 9.01576500879039 3.4079349092001716 8.88673945507797
Li 8.260944999439207 8.103273250087355 5.105179190600986
Li 8.340686796885214 5.272524623441014 6.468397660768801
Li 8.063970464403338 8.755533203061646 10.600150359793457
Li 8.47294409169384 5.497309432852125 3.569775511215997
Li 9.721345312545973 3.1197549378888096 5.503384732417675
Li 9.27928724016828 6.287633000141991 9.327867101413053
Li 8.142160249077387 10.834838775212418 3.9529344137602087
Li 8.88315242477774 10.44499431805431 7.0735816072391815
Li 9.013745548872237 8.18150888900921 2.458073805548015
Li 11.226447974529204 4.88257606871622 7.482187402043881
Li 10.796183912798977 6.357192056644766 4.932703994462655
Li 10.54477901711382 7.991700320668183 7.393107965237371
Li 10.735860780035466 9.45996941531408 4.735027826525997
