37
Energy = -55.8838237 eV
Li 6.702544978692973 1.7216627207376336 9.0946378074039
Li 6.039097837037344 2.1466368051903615 3.98663788576626
Li 4.720336312339849 1.7451266727545662 6.650911927866158
Li 3.255306708596494 2.641853278868503 4.07914012652434
Li 7.887358627709016 2.2432210876370515 6.25755589244475
Li 6.59749424498953 4.529884823075876 10.468973311534054
Li 3.985967385032529 3.2732364549604696 9.281977553701573
Li 8.951485878289233 3.9262371812177377 8.476097417805942
Li 10.428729724828548 3.8567643496107524 5.715976738050836
Li 3.2891200338206423 4.67268116326527 6.515459643333835
Li 8.496196093992918 3.7270594991795836 3.369075135788527
Li 5.447975794988542 4.084357668639383 1.7129676316276614
Li 6.029938592859345 4.030601851781552 7.637028126872541
Li 5.245403165203835 4.868196703313741 4.379060054198833
Li 2.8693561293636995 5.199746057806846 2.7376215705058935
Li 4.551392701962484 6.4288212615096985 9.241477659088035
Li 7.583950604707706 6.44288707567773 8.49039757695794
Li 7.936345720999304 5.2521935402881255 5.706506605253432
Li 6.742421947359424 7.7108534188021896 10.930573999583945
Li 7.332361501730979 6.272891974369756 2.784020777129814
Li 9.883617430443286 6.6578067568154005 4.1081320427068855
Li 10.295650080389617 6.44446642754022 7.27647549761723
Li 5.454351961692987 6.69163246081468 6.7002648962488545
Li 4.790343455403974 7.389990429717782 1.904502487543497
Li 3.2056569557941947 7.2229727611956855 4.697874613988478
Li 5.883389140844378 7.948981866813892 4.471471267591536
Li 9.234585274323813 8.635705890830762 9.233463703588278
Li 6.501498521577195 9.140409343250573 8.273759227678491
Li 8.288899962376915 8.296556930961636 6.080082548738811
Li 7.616968809872478 9.355428989314525 2.9368531894884944
Li 4.373640768373807 9.504246318516232 10.01053910749303
Li 7.232963911035954 10.764044382500408 10.404077245338643
Li 4.0094070353013525 9.184253052159972 6.837182245031187
Li 4.189910138477595 9.938931335691311 3.5778069597656006
Li 8.46201144836009 11.079975350914713 7.562178173645742
Li 6.3304510329859545 10.497343410605364 5.559196818143222
Li 5.42336675425865 11.772031780259852 8.150922766653567
