34
Energy = -50.91677143 eV
Li 10.537198869412597 8.596783599333754 8.389180590575252
Li 5.634892052139155 7.992354583627773 9.184427482169044
Li 8.244936173187213 7.134823457688244 9.91521217774451
Li 7.808238673061477 10.070675965793285 8.963635662339792
Li 4.585042578929988 10.69828711831165 8.820926572323149
Li 5.715105502786545 5.807157626174517 11.271502281968855
Li 9.529778716569302 5.493747270933196 7.873045170735879
Li 3.982957698957475 5.4145280087204535 8.812788506278618
Li 3.592243755729162 8.224119077902607 6.98483255850903
Li 3.7803353199874783 11.099543321203324 5.849534213805137
Li 8.278121250410765 7.923978344231317 7.084824153302394
Li 6.0570122849246335 6.337059994734346 7.069654970902763
Li 6.779331350853288 4.436043378548217 8.91340188773715
Li 6.060835212511659 9.544165262635328 6.558635107135786
Li 5.560631373174965 7.406048285120005 4.644655152430189
Li 4.681983085648197 2.9663862908336966 10.51146821483616
Li 6.078293573966827 10.350804144338023 3.799107378594399
Li 9.045193219764547 10.38494975738586 6.044265926215151
Li 6.560440668297463 1.6099537623786917 8.46878432545751
Li 8.177828842201876 5.514750909220293 5.2841373977271715
Li 4.039942133436611 2.71170349921259 7.406706855426426
Li 10.552139258007477 7.333720459492344 5.462208557650512
Li 3.466493614830487 8.816279402556285 3.8574493401611907
Li 3.7329618006800134 5.390792449487147 5.691044898351302
Li 8.69309598542185 2.8014868225444367 6.67013500014498
Li 5.879896121933285 7.721633825984603 1.8917484310472055
Li 6.152391614845168 3.680720224068391 6.0044575443614026
Li 8.066528230643163 8.285233837864395 4.180045135174625
Li 8.653660879994504 5.9447713552141765 2.5175638658208155
Li 6.190802346124076 1.0242994864112365 5.5180762295319505
Li 3.3290769440329746 5.935457778600751 2.7958330824874125
Li 4.095759796933333 2.875876932212658 4.1232910057258945
Li 5.9787864089884 5.016751351550716 3.3371860682605066
Li 7.928350937702981 2.9503648117433907 3.692547315975737
