32
Energy = -49.06198659 eV
Li 7.263632982810338 6.649063520823259 2.261789973621783
Li 6.39601096845821 9.760156252121755 2.5251350461977102
Li 4.647626269419939 7.438010877649368 3.7587658380051963
Li 9.411446142347703 8.985772988334555 2.9392319975173606
Li 4.959291541012036 4.415226096193274 2.8210141520810663
Li 7.971805791851733 3.621774416036716 3.2293656479614548
Li 8.054006506938478 11.051791537760135 4.827812074900863
Li 5.117493344750351 10.066521625497826 5.461725849695563
Li 7.3880625934232 8.385213252232395 4.663810743868792
Li 9.461921947134792 6.171063889160989 4.396108559835649
Li 2.7472630350964153 8.069557960196454 6.258893512745961
Li 9.92511071784486 8.817327589762249 6.098507734989462
Li 8.158616021642452 6.68346176828784 6.969726499217722
Li 3.7645999316932666 5.099770854170401 5.693592170268971
Li 6.611676016241058 5.445308537312557 4.760263528903202
Li 5.372962881284495 7.423451471929623 6.615471069473593
Li 4.502069790856422 9.244928935080383 8.696434670697347
Li 7.333555646003825 9.588739976626353 7.562412680857388
Li 5.77611540260823 2.740284330210501 5.492110461055386
Li 6.021060545416612 4.708971722383707 7.637316307587478
Li 3.6804359706812515 6.192142190433467 8.679976406945512
Li 10.761280951838808 5.941458519121957 7.2964134548932895
Li 8.576907568398738 3.8099583162832173 6.325703007765238
Li 3.877388443202111 3.073058144994818 8.133341527810922
Li 6.474514796054925 7.16944254844543 9.371478434168607
Li 4.6862367749037555 7.492533072657521 11.393241946712605
Li 9.30663237020815 7.9682950634799505 9.297963102600756
Li 6.944205566777565 9.51943327284888 10.723877236038419
Li 6.876123928317861 2.2500882456504723 8.514869205953163
Li 5.628379599418173 4.542073970409878 10.446047820152364
Li 8.488926815268375 4.894201021698084 9.278786199065426
Li 7.694311197425837 6.681807442990183 11.756226998065452
