38
Energy = -57.49145733 eV
Li 10.901088155146297 7.628049693187912 8.747855429992931
Li 9.69082218924618 9.495277317936596 6.570566212632214
Li 11.445299133216816 7.1469056303506 5.80046539145892
Li 10.551192701778037 4.709514311340718 7.751095603918541
Li 8.448110465765089 9.09995044772446 9.367325967836232
Li 8.92577006808929 7.88030329893524 4.152867987189307
Li 7.592184149602756 11.352987429658677 7.410216728841022
Li 8.512589814441329 5.748405997649272 9.606417694705545
Li 6.887813630943838 9.875323840194296 4.729821388094395
Li 8.723137005555296 6.84863775975324 7.035729194812847
Li 9.497400337683725 5.094779039160898 4.829259496409361
Li 5.7029066259717025 10.367731389747064 9.558943122422937
Li 8.610061516524636 2.4420044626416386 8.993240693451051
Li 6.182107923168381 7.861742165186282 2.703142102037219
Li 9.945377024967131 2.3627944530512957 6.054291221767824
Li 4.69543451782298 10.736274444462689 6.5027431325937455
Li 7.6130723382953525 3.938450924114251 6.975824526115918
Li 6.585324925750256 8.651937674902562 7.240027430868222
Li 6.093858976833894 7.329338112811099 9.969982176858148
Li 6.597527270352093 5.9633187330865765 4.8186397665008105
Li 4.268007832183451 7.860773050589401 5.319942546168478
Li 8.120298465501962 5.66513000352549 2.1569452971807976
Li 5.986835135063104 4.245465473958409 9.788058525308555
Li 3.427451102554327 5.765716089058858 9.94060227328538
Li 3.8894119613823968 8.333215822555644 8.332439230710781
Li 5.2127669053167836 5.760616321589031 7.4617931806118305
Li 3.6166298031983324 6.8312688456194754 2.38503676812206
Li 3.7286320540044358 9.845474685400683 3.5611419278451364
Li 7.317209087125429 1.0378727893371655 6.2205010780289385
Li 2.0108479652811484 9.51916632545097 6.27692651042801
Li 5.345991742463133 4.465944336027324 2.6560237730521368
Li 5.487469449638799 1.9763941490742256 8.282728031513308
Li 2.121686876919732 6.4431863785570975 7.098963660605663
Li 7.647708419338166 3.079637499351548 3.9727083860686863
Li 1.4821048604439486 7.425637870066985 4.273408108753314
Li 3.1693220591313493 3.6919014421683958 7.688865057460478
Li 3.3767357215944243 5.120588092872583 4.844146064092035
Li 5.202588756669202 3.099465689199704 5.530375670752171
