33
Energy = -48.69785833 eV
Li 4.761503855431596 6.023720706782281 3.23809380040304
Li 2.0059156760467594 6.417476778807793 2.256241539738474
Li 4.3735552119681325 8.378614236043598 1.8119954651531094
Li 7.531535309567483 4.627411844275514 3.1710014672384705
Li 7.272987521418614 7.6019858373197895 2.8810720561489296
Li 10.321037262456187 3.725101294060976 3.6973490402702214
Li 10.11771541372345 6.657262407641994 3.5568435457358514
Li 5.623683718805561 4.5023955524055 5.691677141677137
Li 2.691440294541954 5.1963211714159545 5.106646530554758
Li 8.435090329899944 3.050245760588229 5.8974370747604
Li 3.2254595902586143 8.017661814362796 4.530269842723165
Li 5.99846590101885 7.465984238222879 5.458369405442497
Li 5.661717897927148 9.84475399498647 4.162275348607622
Li 8.37889154807145 5.7983578402550275 5.5439902496796325
Li 8.602504695580334 8.900237879259864 5.393282802048016
Li 3.584301958692064 3.6184984655294747 7.813470458032871
Li 10.992479130161398 5.145928172556614 6.191603380052589
Li 9.132684492394594 4.352368619807713 8.504336593566286
Li 6.986336904637249 8.938071259110531 7.806743615560026
Li 6.792468224057777 11.349428513163932 6.444555263345208
Li 6.419424383225506 3.133393765368743 8.250727228130039
Li 6.83934132718232 6.014499351908902 7.991524732172256
Li 5.049362859427328 4.82211312925375 10.053127413967632
Li 4.355307173934674 9.546311913715767 7.053976819004743
Li 4.089919414005692 6.536259921887298 7.378133420211773
Li 4.64150650855791 1.8083224417789783 10.187730963416222
Li 8.077103675681647 9.092106811180935 10.347976385750354
Li 9.152054899719271 10.666073701396373 8.09020326281069
Li 9.455320025394721 7.414818748320558 7.984582846461956
Li 7.771912090027852 6.154439899661931 10.558831098308588
Li 7.362938177947692 3.13829106178163 10.86019727326226
Li 6.006554008015254 11.085872450281064 9.364686589995857
Li 5.255974698277961 7.96990275424714 9.796482086968936
