30
Energy = -44.60814108 eV
Li 8.729792455524205 5.12474576663646 4.452898895164831
Li 8.095609354151062 6.433363725727795 1.8525627282630903
Li 5.634165450614972 8.346237784405398 1.5892655773209872
Li 9.234878795475852 7.832713215114354 5.518742730869208
Li 7.410969013778403 3.0299560147637488 2.783535707338367
Li 7.984817634145858 9.376295850124203 3.2224050365668377
Li 10.08432507749221 5.591164873770601 7.5258431557686665
Li 5.19578553622617 5.267180572669429 2.3535992207278174
Li 4.379123243192354 2.2846718805130055 3.158449489431112
Li 8.282014865966074 3.1887097208892046 6.645115029555291
Li 5.200901274521714 9.864831814353538 4.281517128282889
Li 7.462877838325408 5.946490210489905 6.772992528905919
Li 3.532844701469525 7.517054675837193 3.682383189684768
Li 6.298550283786464 1.3375372995630963 5.315738391659562
Li 6.549303235789435 7.168342016288105 4.020664431861607
Li 5.588805290453752 3.893003095341304 7.745081343847085
Li 6.595890367701854 8.7566446011085 6.510008482450717
Li 2.961713082860269 4.6988779314475755 4.435820312629186
Li 5.881358334545357 4.033278992380102 4.846835362192271
Li 3.6566780262595193 2.461006061049304 6.206687523002045
Li 8.311203144698837 7.859398037368023 8.802955306435148
Li 5.477836620499936 6.852964056089558 8.678112833750205
Li 7.721900361025982 5.012306323407769 9.522944419108429
Li 3.602802368430682 8.565357713562573 6.9969339571068865
Li 4.778938867947171 6.306585138860918 5.93089443291012
Li 4.6165273213864175 4.828311762236454 10.433034380944813
Li 2.955206363357458 5.394484781250519 7.796258259432071
Li 5.610246053301048 9.610318760727948 9.22741900073968
Li 6.262464554399787 7.338573397069356 11.252048922295325
Li 3.3538690622916567 7.652767188412821 10.108848762029435
