33
Energy = -49.86926592 eV
Li 5.17012453324628 7.748459330625696 1.4241986774338768
Li 8.290703076199879 8.073527156455109 2.097205181184119
Li 6.093402423448427 2.662188741266338 10.069447661567208
Li 10.189606874152725 6.351633154972136 9.504847376359796
Li 3.5458626138358946 6.361265553422377 7.261712035557583
Li 3.9457410194950553 9.013460201597816 5.326735186957211
Li 5.484668399866094 10.474442440471034 3.0649754240489897
Li 4.278667349025254 5.529012050916473 10.24986173752688
Li 5.033304486054206 8.622306875364142 11.311457370451935
Li 6.727453333041371 5.466509986746184 3.0701917189766563
Li 5.511812237672719 11.50003745141027 6.165861475331282
Li 6.255437556189798 8.098113756692804 3.888747048272986
Li 5.8792542650697515 6.380231267798621 6.013665971159434
Li 8.704099300952036 7.231887045176448 5.046154230084908
Li 3.8379156704465447 3.1423710375768166 8.058415083917206
Li 8.072547798744719 10.264710709335368 4.758962981180642
Li 8.114919592215703 6.497321993546348 7.846025304463318
Li 6.434228637930122 8.996925915011145 6.6406123319006465
Li 7.318471797228085 5.539251970331542 10.58220650594898
Li 3.840550961274697 9.451071383828829 8.391011832117513
Li 9.699601969262018 4.860791776137367 3.4904566401334103
Li 4.962852602205219 3.8498224657005653 5.304598320948712
Li 9.703003192543116 2.3329120397244956 5.609125293090146
Li 3.9153818441188313 6.377380557138941 3.9304494989740784
Li 10.465859045186768 5.255902748512424 6.52413473928169
Li 6.043579351945258 4.567262562550229 8.109050717602484
Li 9.129492329469292 9.02244141623023 7.581473761770025
Li 6.722558193064841 1.958616582188042 7.052220691537515
Li 6.532365099504984 10.515289038667325 8.996461064941354
Li 5.7576017289242385 7.524186487681365 8.919320399727926
Li 8.831554281465365 3.628457047084472 8.479765983908864
Li 7.9005360651727 4.393407831177164 5.689378670931296
Li 8.026125716193755 8.36128274882715 10.38128262025831
