39
Energy = -60.75657117 eV
Li 11.26241396458927 4.96792674879533 6.566373763344443
Li 10.695772079887028 8.61555063939866 5.538010602078307
Li 10.092861127103744 1.999962260859817 7.1699030309344485
Li 9.076225746604349 6.808152204543393 7.340474373515552
Li 9.39261987404362 6.1215420327435766 4.262752466721322
Li 8.568751647978612 4.082678058701392 6.34431768204893
Li 9.410496670059924 4.455793099730213 9.192547451402922
Li 9.163788742945892 8.89488256686791 2.7274063848857013
Li 8.616253769038453 9.736715578147088 7.91643357042439
Li 8.735399135483634 11.082326131848255 4.956813940023011
Li 7.910775684496779 8.559623316439103 5.21038685454148
Li 7.136633812497972 2.4792548148314633 8.483571127876864
Li 6.7818322651249066 6.095187758896871 5.701392901927283
Li 6.680820706998452 4.452692216161381 11.094050096865683
Li 7.109424229126625 4.043090817423103 3.5870119202149677
Li 6.392849082516249 8.041451467024238 7.785907240026684
Li 6.67827641311378 6.944531232027479 2.9060264697496785
Li 6.121208538166191 9.916940206435354 3.370568810260574
Li 7.28895173969448 1.5551256535611788 5.455144810603623
Li 7.856844627000954 7.3233661205969245 10.16687862755952
Li 4.271994047372828 6.116954683627247 7.178783750284555
Li 5.9159590785108165 10.527050226529974 6.529152837784469
Li 5.642149393646564 3.7154603891097637 6.2609163978309725
Li 3.6292982621504994 7.59595482571877 2.663236836173048
Li 4.766105684668995 4.791274788548689 1.5247441703310833
Li 6.766934590054743 5.305392967665436 8.506664096502181
Li 4.473519871875453 1.444520321517792 6.963726446234995
Li 4.975688028631124 8.083915606841302 5.21615648436024
Li 4.34307406888146 2.5836332042381605 3.8843404035448086
Li 4.281463995663803 3.9445687121383064 9.02776304091409
Li 5.8718790087784525 9.92490229014437 9.719533794197757
Li 4.731565491615001 6.903869314086144 10.020547129202194
Li 3.519990271296859 8.838081102676034 7.849459782871814
Li 4.424447630199506 5.388407464720454 4.199014794538366
Li 3.1922667845600055 10.044351450616542 4.88098537687308
Li 1.8821312390643081 6.199861232204847 8.588211854606364
Li 1.993148006712066 4.775787323984179 3.099932576231707
Li 2.634660591589897 4.025669302492023 6.194613335593029
Li 2.186583397025862 7.008681808437497 5.454418845876028
