32
Energy = -48.41529133 eV
Li 7.522222609357577 10.214148646906116 6.463853356574392
Li 6.8973393557510985 10.40508786397269 9.584021398146588
Li 4.744513750808646 11.348421869715173 7.586011670992569
Li 8.504819218039305 7.980192806244633 8.42586848447174
Li 4.882089114360194 9.335722743258062 5.0992666289975315
Li 7.146885395646442 7.492021719131631 5.955971993939918
Li 7.4539633935166485 8.711155488812844 3.341013964318794
Li 11.120886284603177 6.258736238892804 7.969536516531912
Li 9.879037186386007 7.91420377912172 5.488294134100114
Li 5.408402452983059 8.72549005413431 7.975802627029754
Li 6.231026418445563 7.455852599208562 10.494733580236044
Li 2.6443537817495795 9.046195161299847 7.164868397399583
Li 3.9210189689423083 9.620738376981942 10.100028348852618
Li 8.623225804768936 5.157823974633189 9.576407867405962
Li 8.394229169941521 5.895350879111952 3.718465910738175
Li 11.093343441907363 4.9956592094389976 5.06503892640763
Li 8.632842834705597 2.9943445500595938 4.942060399001791
Li 6.206857999868359 5.87521838833409 8.04537267003414
Li 8.893087345957778 5.343177391689769 6.67689269393995
Li 5.520169427472477 4.4236583374096785 10.25552460854977
Li 2.7868069652042475 7.594357166350882 3.7204455610508878
Li 3.606281204940393 6.632176834670363 9.22385326303313
Li 5.614858894347791 1.9667210155824124 5.095160562500483
Li 5.134792135974735 6.59756735137412 1.5148022084118473
Li 10.446808996811528 3.2913596682931603 7.664690823437187
Li 3.9786135276522003 6.64959263621148 6.273278869166693
Li 3.7457811794737172 4.513913368478303 3.992801644455403
Li 7.226307348628475 3.0317318758253124 7.766612090201554
Li 6.406999910465017 3.909394843139168 2.7209544878934615
Li 5.514000603287384 6.683291295958032 4.015996234511543
Li 4.20777458296756 3.858323252006585 7.343850151823797
Li 6.306365647677467 4.526595413232005 5.490746822360108
