31
Energy = -46.34390891 eV
Li 8.969955400272628 8.946507446633232 7.004408424114869
Li 11.079828742685132 8.068542324008 4.798951554359166
Li 9.236763446302463 9.020616520817343 10.088632839016222
Li 5.979028576854965 9.835707988954125 6.188507221449807
Li 8.002296484342452 8.1473632420987 4.221063534677997
Li 11.189128497701265 7.241833762426642 7.934089513746837
Li 6.462431016989039 8.730018195721744 8.969200600625419
Li 4.9172946127654 7.544096212684111 4.442021475533257
Li 6.636714338982478 6.49220490112739 1.9033387437469955
Li 9.479097122248243 5.734360049586517 3.0784727450204556
Li 2.917872481928362 9.730068530981997 5.652403344830024
Li 6.6776977669971895 7.067647082188977 6.672923280188764
Li 9.374283759099464 6.190674507220601 5.9921644473392455
Li 3.9272736548659135 10.498714944953923 8.420702496731085
Li 6.814728026488432 7.435139084331166 11.455702775838027
Li 6.984023793283813 5.327360904000206 4.391233258031715
Li 7.3197169358618615 3.5337159683889405 2.3592520095696408
Li 9.081490116845451 3.2968612901636956 5.053001279809881
Li 3.9979478501791235 7.866786891250033 7.429033205028889
Li 8.489492378199 6.476519662657448 8.979189453986107
Li 1.4701895073973454 8.569317123248133 8.123432578005833
Li 3.7823119237320766 8.007824196369604 10.271481345461762
Li 10.251247930015538 4.058828521106174 7.7774498273296855
Li 7.435838396899276 4.337118995873297 7.216297194360518
Li 4.463656497930311 4.716422576911201 3.4069565468949294
Li 8.223795473689549 1.6250428429436194 7.460203283789967
Li 2.2209827840833682 6.62973794871244 5.621811377863277
Li 6.1637368424253065 2.6419998284095625 5.21368412030189
Li 5.545077337874322 5.796775396204024 9.180089242916768
Li 4.621163712138979 5.058639468604733 6.3937251461116515
Li 2.4996979006981244 5.680250086894295 8.566990885609451
