34
Energy = -51.68963915 eV
Li 14.237578045109947 10.658477687463646 8.321235443583465
Li 11.193476042833087 8.29895469711914 5.004770941604836
Li 10.14475438688264 11.583780773723113 9.697647219395957
Li 6.095859822369338 11.324533187706802 12.404122265439037
Li 8.889994038543062 4.883462394223686 9.40290780229797
Li 9.947060948426111 6.831755333715716 11.743563845551854
Li 10.568040791029253 14.248615178870823 10.164690091022962
Li 6.003984362552823 8.352586207126178 7.692065085392307
Li 9.816691479627409 7.425328410193252 7.212412737415391
Li 5.550756281336249 8.59566281442492 10.839488304663425
Li 12.552151158613052 11.840414829602187 10.83576299647138
Li 11.53584805958985 6.333805490646103 9.272190638218895
Li 7.99045580510008 10.138346078096255 10.812559418682172
Li 10.08973630630597 11.027080178937814 5.67064232109027
Li 7.087160925240988 6.01887953511027 11.891187629351348
Li 11.616682494188947 9.876237793812333 7.695827311297123
Li 11.025177513213276 5.066064840076521 6.55730110890511
Li 10.936111967614325 9.59660772625416 12.308963301592069
Li 5.635678739832229 5.664959972499272 9.24778856487676
Li 6.101795591942407 11.067835190814957 8.971176862875346
Li 8.507009035686327 9.947142262799556 7.924316912357871
Li 7.699750752189045 13.086001033167078 10.425430283396201
Li 10.26696192434565 8.734999396266637 9.818988562985952
Li 9.460548824814492 12.05722634404639 12.539617259515515
Li 13.257272997955736 7.723551013764059 7.201196533274957
Li 7.832208630269711 7.410015423818545 9.571939689213542
Li 12.963998281769362 8.757708567970072 10.246501196914165
Li 7.994692722029814 8.78978463419033 5.40184573827003
Li 11.879762123627717 12.721626051052462 7.6722590547092695
Li 8.714190470377133 12.808788231629755 7.659631363865623
Li 7.558158130155107 5.893779830450217 6.837056600699814
Li 7.988981905298728 8.870583340425354 13.162477554109804
Li 9.189107978011204 6.191358550075078 4.3626380159849285
Li 13.190817047541621 10.608592144878296 5.4669617130974135
