32
Energy = -44.59710666 eV
Li 3.418739531457241 5.179682583479942 9.580288263862787
Li 5.67566348381351 2.900694018277784 8.06356053989494
Li 3.036308529844296 8.082259329799836 10.046903993120472
Li 3.2661608782340696 6.851219397589328 7.315565323333253
Li 5.677732425217845 7.380859082723349 10.88619714507264
Li 3.429268314079984 3.9834422605383466 6.843909238881661
Li 2.671011157563385 9.690245288741696 7.69915856697946
Li 5.830139864832775 4.167899237216849 10.603282575413818
Li 5.939763602296758 5.932654531494995 8.188162138584312
Li 2.8582221624354274 8.308925313680216 4.982848706762145
Li 6.360851220884739 4.409855530911983 5.623782153228585
Li 3.642803675150875 5.613732079207084 4.525908188392275
Li 5.31868283580504 8.85665908225425 8.3397512717887
Li 4.824796257767847 10.312730544832053 5.843131376092869
Li 8.055082659561654 5.8881387522858875 10.482551876781992
Li 5.6573920035975584 7.492296267231684 5.65712083209332
Li 8.356577798620377 4.267357113731161 7.913754700121612
Li 8.011053417214006 8.422237441491696 9.23737742276858
Li 9.07580449084704 3.210014447402308 5.313055241550521
Li 6.227328697202669 6.029219677287727 3.1576736735790654
Li 7.547508055014779 9.694011142383811 6.734741385006739
Li 7.506298811998596 3.5282041709139516 3.051892027830752
Li 8.373125389919814 6.861504688454474 6.631554274441237
Li 7.070494635015294 11.057885774007113 4.210274155327894
Li 7.929774393378939 8.306236476046088 3.966231193395782
Li 10.295763645036189 6.537170617592677 8.934816912404157
Li 9.169074674719024 5.712663400570269 3.8948931076025506
Li 10.799947303436566 5.233256354152677 6.325903447702921
Li 10.257955763990445 9.262557991086853 7.655650464377339
Li 9.707652318876937 10.601185597404681 5.118818524170851
Li 10.67451632442358 7.876288097857683 4.978568707327513
Li 12.457226873144378 7.480110945692424 7.296131454235781
