31
Energy = -46.5054842 eV
Li 12.197808943052005 5.055880297724102 11.44686462852196
Li 6.994333966343097 6.377121261932034 10.919053635046591
Li 9.41144181279527 12.950623684511699 7.10361917052144
Li 12.97136500083409 7.924506415837999 10.032621199709332
Li 6.559962516450717 5.895048268858264 7.689710953659388
Li 11.919307614109623 5.71303912438857 8.52431765437725
Li 5.64483184884973 9.116687635000714 8.13738446076831
Li 12.199106804211047 10.741133102997223 10.944170324830647
Li 6.799359972775563 9.676865828357395 10.819337725001514
Li 9.583417136241103 9.619379301358265 10.916173479861019
Li 9.073842759349422 4.718059696292935 9.392296516642334
Li 10.925562882281648 13.4221888104466 11.854721258522734
Li 9.943331782305451 12.095944767932863 9.651007696087877
Li 12.717751987143728 8.182291373709514 6.797268119457981
Li 12.05266014785589 11.208229955475087 7.895073328301411
Li 11.546266934057757 7.902053962568114 12.817126637019152
Li 10.015660279286921 10.02433379317341 5.940290420867505
Li 10.78013876321872 8.861974131011415 8.560592544700231
Li 8.346811004667389 10.335928725700553 8.1242846975403
Li 6.882691132602098 11.366792237065178 5.996696437536711
Li 8.116101779625247 7.712821856529747 8.934520293709946
Li 7.448952646780219 8.374259388401379 6.033579626064549
Li 8.09861323625444 12.119936362546307 11.813306857140867
Li 11.785936052812444 14.058173948508221 8.96325686306642
Li 8.806039314465188 14.549235652790063 9.844280120586923
Li 10.207090155550347 6.855665447369575 10.643862328432087
Li 8.473785330651136 8.177643090680647 12.9618490527024
Li 9.398475619743644 5.216461677954518 12.671637367960011
Li 9.751810047597177 6.739309947609758 6.94529128646688
Li 6.7823185323132575 12.302123079082742 9.080972420678215
Li 10.288083467764343 10.716144568904838 13.352234273550161
