34
Energy = -51.45956579 eV
Li 2.2563007734504628 8.031361424163233 6.358080416509692
Li 2.6248919087658913 8.870570326753759 9.495785753292065
Li 4.410532152197477 10.421138594741828 7.508273516557419
Li 1.9591820351508729 5.943285637333038 8.862965765635293
Li 5.6559663965148905 6.481196483559523 5.742779804257087
Li 4.768163367883235 9.007386055629595 4.85165729490056
Li 2.790535350639476 5.042252965081212 6.2201293919661085
Li 5.755492662386863 9.034755412498296 9.940029988610572
Li 6.020719748485654 7.195394795928471 2.6840670045900206
Li 4.56351718772018 6.180617961842134 10.65689580701852
Li 4.275644019287451 7.37475439991914 7.989939128005438
Li 7.414276240793014 11.2713706207254 8.53836326713742
Li 3.527112479384408 6.273965320291543 3.7392619581276705
Li 5.271774791002532 3.8351402875658196 4.889798689150909
Li 6.78067159319401 8.963400993225227 7.168275938753773
Li 6.87539724523001 11.268511198958116 5.5334957954783155
Li 4.660655113483234 4.446084645815601 8.202379297203668
Li 6.7540305825752105 4.3016151101704345 2.2098179374573323
Li 8.79573979801447 8.489722066017144 9.298208343399024
Li 5.922957973495131 1.8562598400055002 7.2872682099721535
Li 7.376287553221708 4.2598504955596965 7.027236457787819
Li 7.983660638114984 2.542990668574028 4.817946660977096
Li 7.961529519853624 5.581834568902492 4.303365160419832
Li 9.513301921888639 9.789361287484352 6.598912561351436
Li 6.802631962150258 6.4194790304580165 8.85696980657292
Li 6.935202699074211 3.6024222882840995 9.856227609905412
Li 8.80314722468406 6.8684221621480805 1.8873714083597297
Li 9.831421344737455 4.207512108143129 2.9391217965635947
Li 8.702926888137053 6.908015579852599 6.739835800382548
Li 7.867178214127382 8.591267793498638 4.386137772008745
Li 10.146747749274713 4.380414395966342 6.028084869620899
Li 8.965575581588638 2.163262223303047 7.849379097260537
Li 9.493700472007149 5.152517692136644 8.938443908438295
Li 10.511275864017602 7.121071166847076 4.544032883125157
