32
Energy = -47.77125246 eV
Li 10.114320306022329 11.785816634653605 11.402007772034187
Li 9.243450511935317 9.382831787181491 10.439429068450304
Li 6.942692377077016 10.609385959924932 12.120651661385976
Li 12.215530555841855 9.298857449063478 10.450851806268675
Li 7.386121246584186 7.320489320118563 11.98393161340335
Li 10.286694897678322 6.6844511225917635 10.657128318899328
Li 7.743670084892051 11.560677033936296 9.189734509756828
Li 7.821060995497086 6.6873146796221565 9.256840434824527
Li 6.462429694048186 9.082513791385903 9.892773886513991
Li 10.882323433466746 8.184591035827063 8.169586744284915
Li 8.312438321282537 4.286249072643673 10.344134481278761
Li 4.567246443593601 10.943024758993065 9.87074627307361
Li 12.771703977536996 6.349781436529806 9.065405138701623
Li 4.199523003902955 8.134704701532568 11.056911107307286
Li 10.703683035475594 11.044012089348225 8.495301512207215
Li 5.496202124530115 5.455815209568082 10.618021757804163
Li 3.087046523838672 5.613895295280076 8.629403527995205
Li 2.95079115749571 8.710552088236863 8.248153919739064
Li 5.64392520534624 9.76247912336694 7.111875860360964
Li 8.25484824840223 8.924796298813316 7.663654380496774
Li 8.956382615661704 10.958179830004873 6.114746547859711
Li 12.375872565177879 6.797337705450177 6.071876787130998
Li 11.865917557425508 9.811254680529956 5.776323002129245
Li 9.892118359314422 5.586452799080263 7.630689490700567
Li 6.02356373207852 4.554024319775388 7.877557614686042
Li 5.196260526173681 7.227228463098426 8.388312398154186
Li 4.284499437031491 6.943072922308251 5.85826764633421
Li 11.66173507537685 7.747218810387951 3.2346355730320204
Li 7.235295607072902 6.71210486656402 6.346330586172509
Li 7.099309879483357 8.950009209930855 4.5350017316104365
Li 9.92454686641878 10.143816529297192 3.426516310892463
Li 9.796757646953699 8.042999059963254 5.375474727574367
