37
Energy = -56.51640483 eV
Li 11.678324740786248 4.98656897115206 7.052061920068644
Li 12.222687779117017 7.965292708051647 8.112803209750505
Li 8.655306542876037 4.19298936801755 6.733168115872464
Li 9.576284852691952 6.5562960969949895 7.578261038552189
Li 7.675062323707017 6.719620760521435 5.14869275697464
Li 9.701062036567548 5.142884131202774 4.179098461732475
Li 8.973873313708854 7.869515038710442 2.859306891967327
Li 9.606051220229608 4.063274459447088 9.48508410453697
Li 11.046073165079893 6.3419025382166385 10.160317926415875
Li 11.669878867094056 10.559786485627495 10.006896454676193
Li 8.003833469933117 6.744869769913483 9.884959742409421
Li 9.694999129820294 8.9868368063915 9.100851002637555
Li 11.161877342516984 10.320686408934684 6.812561392652234
Li 6.698267029117875 4.069270579993572 9.029105766411925
Li 8.264445577691093 9.032152140785215 6.644526860205407
Li 10.68769328627648 7.757733544194901 5.336221124110493
Li 6.682198575366654 5.699198304019697 2.89957987140914
Li 8.552289999475871 5.360472944594362 12.129203143729718
Li 9.951675433945027 8.365354900156072 11.848667825244057
Li 6.430072972946973 9.01009670173537 4.039052965564484
Li 5.520475273793262 5.6882622921730155 11.122986926337555
Li 6.51836843358665 6.520725584567654 7.632426936086476
Li 5.971300478733785 4.199655978574521 5.8050530315399
Li 9.130269938710905 10.568502996923712 4.573528717481333
Li 6.85875907789719 9.835544290182066 9.072618628748025
Li 6.94594799296304 8.313044912659556 11.81241427156332
Li 4.594950076743311 6.695816766562062 5.18823076916298
Li 4.0369892811753605 5.392885050652406 8.134434036630081
Li 6.470602541953795 12.691543781392358 9.26120376031928
Li 9.076892459641176 11.712827115518216 8.085226085829834
Li 8.51393876573609 11.012012809922817 11.021987591887406
Li 5.380492005320787 8.879224518585731 6.71327638883124
Li 4.727386696771394 8.017806567173375 9.549818722376124
Li 2.7170162976405057 8.144691384124753 7.365214160684219
Li 6.673994960247096 11.486044633459434 6.349656294555608
Li 5.158323488029211 10.655112554653044 11.191973916287855
Li 4.170774504929305 10.87047089454699 8.308202662807261
