30
Energy = -44.70214424 eV
Li 8.600444130592841 6.1549504779207815 1.9355102474438883
Li 7.175483013587325 8.803592762861403 3.066086619216093
Li 7.1190468493375825 5.908052928333341 4.23458664206138
Li 7.044486319816512 3.530678896190173 2.8933247891742884
Li 4.660098079325039 7.4224295677198056 4.256894679061678
Li 9.627859656192143 4.541533365005038 4.466686959360136
Li 9.520275109519513 7.646883209956616 4.484018092812438
Li 8.500830048512285 10.621206182182364 5.309878074047095
Li 5.620220162594154 6.035933234496837 6.810540622361494
Li 5.442304719353184 10.587295074313996 5.110804455820467
Li 7.039607939073471 8.374118762380391 5.882845822993518
Li 4.590861359574081 4.327865087647353 4.7861372891364615
Li 8.556148571967247 6.037371265927588 6.865739288261765
Li 2.7893838888531675 6.198818468958367 6.547023656671737
Li 11.272655955637733 6.3409931081113955 6.64584988026572
Li 3.6468259745541634 10.266795858201961 9.158823391036996
Li 9.382779558963438 8.752594209286855 7.567358525128589
Li 9.906864059963734 3.7999823006049382 7.635341065377371
Li 4.39771502555751 4.075988595830272 8.23491207858142
Li 4.427535558872606 8.66110214278334 7.019578468326993
Li 7.1453517939586755 3.5436513060529595 6.099019672470109
Li 6.623355664234642 10.292158480658427 8.160093749086618
Li 6.9245321281737615 7.519451871050461 9.05510839932264
Li 9.813574519405327 6.469312373649752 9.432645937561654
Li 7.299361884621471 4.615431441478893 9.144334762379122
Li 3.908381643629845 7.12851342780759 9.245178476510782
Li 5.238570536704878 5.460988869345817 11.079621702734697
Li 5.600343011808288 8.876576817407761 11.03744815478966
Li 8.621327050710807 9.44676083113074 10.425845630214214
Li 7.758489809919468 6.813683107719438 11.663476892805065
