37
Energy = -57.11893568 eV
Li 5.805469658413524 4.511564141109136 10.399327232599896
Li 5.538990907870148 4.370970890998425 7.445375524042212
Li 7.970476194119406 5.655343361282143 8.699878154309868
Li 4.643102951675049 2.130541617435873 8.529752633941627
Li 7.828599285881137 2.700248670698121 8.33726975502869
Li 7.144932050178713 7.385036251139713 10.997065979724423
Li 6.262161898858327 2.0813272708112445 5.707233547577586
Li 3.9248462474569408 7.004592301789253 11.338679820998337
Li 3.218087883238817 3.4359204872087883 5.985444821142713
Li 5.176329136679091 6.918829984299486 8.939516739121535
Li 9.514234535845244 1.9984821236524577 5.639460706596284
Li 10.161188519375159 7.483408117483172 9.238695042725382
Li 8.110191899428775 4.287122809333739 5.943914287704572
Li 10.461880511486983 4.406643081358156 7.605958771134568
Li 7.594336549093522 8.59132068549877 8.299096721685746
Li 3.0648575610618796 4.9466232603104485 8.968325895819731
Li 5.173350137560787 9.583937241798646 9.810155254208171
Li 7.8307942449717745 3.4012058925457707 3.236535416499981
Li 9.42329147517247 6.9450292038566905 6.432281091181865
Li 10.40983631549104 4.886193966871772 4.4532290686194065
Li 3.5726664005332482 6.3554147429853725 6.358914811203979
Li 5.423458840598842 4.689882860910342 4.467770949291648
Li 9.797609645751761 9.843087524197033 6.789827743017668
Li 6.5156631731829595 6.660598212642971 6.393854910835049
Li 2.5934571506847437 8.100445978399549 8.579322768761195
Li 4.884251590209586 8.991602308268567 6.822199197921628
Li 7.806489882812823 6.356840744280004 3.8359849074372803
Li 7.468839271866477 8.989966801250548 5.265783169514857
Li 9.960788011204182 8.399075352770277 3.912229906084068
Li 2.834801337454118 5.792880669979779 3.5567402804437656
Li 6.879111700190354 11.1837176964227 7.0554440766565465
Li 2.4673544859795618 8.737278602025926 5.132537563777391
Li 5.721550260131439 5.799628729626238 1.810637117570607
Li 8.398807537118048 11.219719058534372 4.196149695636298
Li 5.012358124975171 7.655651367199807 4.034023766376288
Li 5.246590878339547 10.576971036723508 4.321253445044122
Li 7.1371504578578735 8.869037562856782 2.3914451797343963
