32
Energy = -45.49909575 eV
Li 4.7953877553310305 4.957161357644689 9.829899047069365
Li 2.3799169729648715 7.710726649225403 5.9263809669073595
Li 1.762056317270092 8.623893495848094 8.613808267443789
Li 2.814427480289463 5.932185347559384 8.051727317627748
Li 5.661918491413265 6.63410890901687 11.936577143013265
Li 4.469841917880258 7.974921430706515 9.40431291864406
Li 7.671087786565372 4.7298257900282765 10.869232088673145
Li 5.154157655680301 7.831752044129877 4.861854373687207
Li 6.501331870634453 8.959712511626583 7.428989787531987
Li 5.748118787217131 10.824369117862743 5.258812729083923
Li 3.4834767013444137 5.302804188399042 5.1350544401397995
Li 6.608178357233299 2.9440647883389 8.841106748281435
Li 4.098919926442996 3.450748964171594 7.398068789137114
Li 5.696515980451088 6.042951344953223 7.090952843910758
Li 3.8671048762135887 9.838360069331088 7.031676952853545
Li 4.44477471565215 2.656551810511311 4.58558597502935
Li 8.50487533144566 10.497325384033951 6.052769624540839
Li 8.184459429859151 7.467243622715692 5.51791075269843
Li 6.829262800849317 3.217467113304423 6.042549131101212
Li 7.188526412409471 7.196708245577143 9.493149191803132
Li 9.184270858865798 8.913218983947074 8.340856687692373
Li 10.009848454190143 6.383656941027331 9.616997459317714
Li 10.92660104375793 8.948915806713552 6.052246409786533
Li 6.9495168642161484 9.281003328124239 3.1793919118851397
Li 11.915343157459857 8.205012450053848 8.627224531792146
Li 6.1241647314961005 5.178196135127712 4.00797586339433
Li 9.695379032913133 9.344551831032136 3.4894399073400653
Li 8.960539466109388 4.661770812034241 4.856307633955207
Li 8.356447180467633 5.020106956314247 7.727164219606236
Li 10.76400653858391 6.167455567722338 6.774566662942896
Li 8.022660107446903 6.681397726896504 2.595034343031282
Li 10.581619714837036 6.685511127301853 3.9513144967999505
