39
Energy = -59.68040215 eV
Li 4.934947204949909 3.282058500323497 2.6626647135253814
Li 7.678756432616846 4.4330336120635 2.059797365552256
Li 5.330292348839283 6.457285202631733 2.0450741819668607
Li 3.1122047046840104 5.249893330903487 4.223698615314665
Li 7.3922350635392595 2.69481517764442 4.633942419169634
Li 6.760664519817746 9.86847609102766 4.277528931591351
Li 8.124886970956917 7.0425786284647325 3.528009784878916
Li 6.10978842757887 5.1164411028715655 4.365630552173024
Li 4.630757820523552 2.9595033470659557 5.790682532882655
Li 10.004382930606463 4.13212782145497 4.090026023507284
Li 4.469816645605628 7.747629770138617 4.471086803331667
Li 8.903375896303013 11.71955147840982 6.025332077528077
Li 9.170178690873138 8.756210958061162 5.861557965069674
Li 2.3678545117670247 7.6975651830087966 6.81442214964079
Li 5.906799698548978 12.499494680829116 6.144730023858735
Li 6.897927001763849 4.474522178507765 7.220538432478002
Li 4.255551779377075 10.03284859601226 6.0537967221497855
Li 6.633064478911455 7.400026482833559 6.0528316627192895
Li 11.181090520017737 6.947784467613799 4.464035292410652
Li 4.384139695304591 5.646083767953858 6.83644812607525
Li 9.10437830028867 5.722275579949027 6.0339531831883475
Li 11.661534950017437 4.673398273460791 6.608247241881661
Li 6.901735092267774 10.148225684916573 7.21728688050992
Li 4.720298092954877 3.3354778614758978 8.925777026379963
Li 9.230892607677847 2.868866902699114 7.1532977532164805
Li 4.921428857924215 8.151353833939577 8.211675424139619
Li 11.000408109923903 7.465916828739875 7.657426513531773
Li 7.492834482873551 12.330788061762469 8.819024867044154
Li 9.549859882536966 10.0050475118219 8.618824032168147
Li 3.1241922179717507 5.852002899507798 9.46465146356949
Li 6.005671156206221 5.843375852729991 9.477356599343134
Li 4.618558634300218 10.961901935275442 8.8893907487546
Li 8.054677530316658 7.494282488924443 8.373421090236853
Li 7.49440414795962 3.494587028013217 10.123863865814103
Li 9.539593883793742 5.231377555196604 8.95872826718938
Li 4.7393784604859315 7.8077068917505725 11.114638857027884
Li 5.1095685398148145 4.714488750415175 11.782761569641398
Li 7.002279557319513 9.438301128121445 10.08104991574519
Li 7.9096585778157715 6.616677194853652 11.287839293376983
