34
Energy = -51.29419684 eV
Li 9.973867930397578 6.917078621805452 7.215040298977534
Li 7.791662667411643 5.940630321461874 9.134355513435088
Li 9.457296209015105 10.066444244746435 6.73105319487188
Li 8.64855362471845 8.051497740824159 4.75824360069566
Li 9.241895312101818 10.325579992235742 3.382471955675435
Li 10.083677089728766 5.379293911690221 4.4126437463206605
Li 7.288791096456285 8.257774519517923 7.381381017081415
Li 7.505806870059759 5.662488275934677 6.232527266048084
Li 8.96375572134046 8.496216070414016 9.718737924028293
Li 9.335622069415026 7.235070693310346 1.949630761190998
Li 7.469478145017719 5.928839544190236 3.541378583446817
Li 6.966996457452197 10.682974348839503 8.664643201787444
Li 6.7413554156335564 8.67477784859178 2.666707730760369
Li 6.718868667905565 10.13606846384559 5.324013801858642
Li 10.319751371232059 5.590639599562364 10.14954905685509
Li 9.346322593406214 3.993962578812628 7.559891990040444
Li 8.04737539415119 3.249174330676015 4.758993362237863
Li 4.550442028398717 9.057042091276564 7.478488461787223
Li 8.025056257813551 4.1341014062687655 1.7348909351380584
Li 5.204111401887256 7.2691876089224055 4.918222343464418
Li 7.869942221917777 3.562261138966296 10.36110151177172
Li 5.266128851280112 5.998500160391699 1.937875704582213
Li 5.852922215220253 8.131297667284036 10.064621231499867
Li 7.808049421584268 6.333702521603341 11.819865346158755
Li 6.06604511560038 3.661325188944536 7.60252143305393
Li 5.212644181620635 6.313480727251136 7.875372027743134
Li 5.282157522268274 4.283973580262824 4.366253843776524
Li 2.2958561861733062 7.732256344767645 5.935386923606446
Li 2.59768573221087 5.807015897383675 3.6766844588958727
Li 5.203561240488293 5.1415915839326045 10.375898721785845
Li 2.6204408449391874 6.769475586256605 8.81781341525174
Li 3.382108617825051 5.237751884945049 6.318596272022923
Li 0.6580642409634391 5.304375449619954 6.697432373021333
Li 2.987832884984111 3.821411818850738 8.644592104261315
