36
Energy = -54.82586395 eV
Li 7.49106132221052 10.338411587465888 4.10419433609319
Li 10.451660597596858 10.707156880458136 5.362808655588324
Li 8.815698476070013 8.743695600373492 6.2564217318573
Li 6.153916629341846 9.463054187161806 6.522422991708362
Li 9.9768602044293 10.01032505184071 8.421200232238824
Li 6.7143856503679284 6.758915220006114 7.012733631961948
Li 7.80380066367814 11.603110272070378 6.880309308702848
Li 9.386295984414232 6.787379248099924 8.414795124053859
Li 7.28413546064727 8.656940189283402 9.028653373853455
Li 7.049690606498125 7.466082973389506 4.448989325110704
Li 11.557662132431716 7.998259441440845 6.5006108614202205
Li 11.636779814578814 7.672895455533765 9.63210855021336
Li 4.743367146075856 11.679043444968695 5.886988798221408
Li 9.668440023215476 8.095040353901748 3.548021328234977
Li 9.266260792373002 9.15232682844257 11.140428152027336
Li 7.350244194544631 11.335958851028494 9.841945766970351
Li 6.65309584355092 7.98135744537802 1.8294489580805182
Li 11.733074812321094 5.178819914751836 7.727832296513748
Li 4.684544167640442 10.335623725940946 8.75422535529996
Li 7.920102608123881 5.371583725410805 2.9087192223280267
Li 10.313244201625718 4.998580642091588 10.488426204147501
Li 3.9039059094902635 8.003227878013503 6.488861461643232
Li 9.459085012931922 5.88203441974195 5.627541129321803
Li 4.739515963319708 9.1982204472173 3.9353493918146483
Li 7.983675451324537 6.619983634266104 10.946666580234782
Li 8.811504418534915 3.998926601605461 8.118057027206227
Li 6.475304522295398 5.196374652566374 9.148657441108181
Li 6.003203997794184 9.102619455927403 11.479604260395957
Li 6.9197571434314495 4.338805719231838 5.6766678242492
Li 7.276571465706581 3.4717100701087147 11.008442964221148
Li 4.644058204910008 7.325999188986953 9.335113764100306
Li 4.869913504732426 6.0634364719780205 3.9533376063075543
Li 6.0171301852939285 2.6190525474471866 8.162358007060673
Li 5.353977893975699 5.982935784217961 11.85623690596726
Li 4.365715562956636 5.043325190137783 7.0598811474257674
Li 4.034545804031074 4.115846337612888 9.962635816452606
