30
Energy = -45.17775646 eV
Li 8.030872532390447 8.837326805182613 3.331417961587038
Li 6.856344051918243 6.154270156388666 4.852843130410898
Li 5.478400109182237 9.02850776615075 5.178917252312657
Li 10.482619504238473 9.810803729747118 4.878072091526531
Li 7.7284747943659395 11.252152851297309 5.314493108004856
Li 9.98035114578749 6.467880981957491 4.705854028972278
Li 8.766553169245073 3.584886190163104 5.516119257603412
Li 8.324915556801542 8.538455642364292 6.023027933660995
Li 3.8830929478954843 6.447284372124 5.972683976921765
Li 7.3106910454081175 12.78519330983488 8.098345075613858
Li 6.132280063494837 4.210904921396392 7.169110365163371
Li 11.193231652504322 4.622098471950635 7.103793158515992
Li 8.681712349620181 5.743072120302054 7.1534612858762205
Li 4.7964327349067055 11.891880254299377 6.39311058599212
Li 6.500196196290364 10.18777893876938 7.765864507229276
Li 6.1442748854846 2.795287369269489 10.07358065165578
Li 9.485867601259999 10.563770943419009 7.809509172376265
Li 7.809669820858529 10.550004069564563 10.347304006226809
Li 8.738905051330255 3.3344187090678745 8.684202586231182
Li 3.7829288707947986 9.233672990133648 7.573823374639684
Li 6.108817002369301 7.218006515969281 7.4252848392965705
Li 4.873123101433935 11.504673644803441 9.48247909889641
Li 10.885848656060793 7.6960049045031464 7.435222653133082
Li 8.353247723524966 8.070834001608652 8.946407745538236
Li 8.241723036609674 7.292805546746903 11.674764319582438
Li 7.075938612150248 5.484706304107757 9.69245370255573
Li 10.13201665257639 5.826556285870279 9.781056739379471
Li 5.622611799873109 8.382962384369339 10.07500247703664
Li 10.621425798811126 8.896523175066317 10.309678871966389
Li 8.451347763364 4.06119087412341 11.706030272645256
