31
Energy = -46.60109154 eV
Li 7.204843509307914 2.013921198231754 4.66125682190291
Li 5.844044827667328 3.0148504747412384 7.361271137363027
Li 4.336347135850788 2.259175115273498 4.373830828720998
Li 8.507452348840348 3.315369295657563 9.433821619202602
Li 9.033303895728828 2.5291743206617894 6.685986301176351
Li 6.725769437000777 3.5917465854858968 2.2457972760459435
Li 3.977770649917769 4.888510055086368 2.823354562684612
Li 5.9990897995926264 4.550780852250619 4.841258526985115
Li 5.174389701260519 6.11873720952204 7.222221248830964
Li 8.886822138079694 4.809496381815391 4.497450077050235
Li 9.298334948769766 6.310480907056964 9.477200668722235
Li 3.2393207146123233 4.561861801108602 5.986929653142421
Li 7.961322212668541 5.071800153175043 7.256020979331431
Li 6.24165400582084 5.329821256194678 9.684481890966046
Li 10.819537519222855 4.748910831808829 7.293718867843581
Li 7.272946901501446 8.061593892692814 11.047213460180686
Li 7.2286408916635665 7.886383504176862 8.300656335212297
Li 1.6352815074674996 6.545021873483997 4.0117653691647535
Li 4.4677901628306635 7.8394785447099045 9.487772390931703
Li 4.27001488050323 7.093415573098159 4.61313124062064
Li 9.69266281417481 7.483377980151094 6.602878842072652
Li 2.4903947844206455 7.341919487652249 7.017374182924547
Li 7.095912468287617 7.275813303175411 5.41194181655357
Li 6.552754094567309 6.612235393817415 2.6731449674827124
Li 9.39137373205176 9.425398141281912 9.079351978869369
Li 3.7369823204071353 7.89585255585408 2.0074047100267474
Li 6.411332640252733 10.363477005247049 9.1946342353488
Li 4.958362172109738 9.068616995968533 6.7453159006621375
Li 2.72715108106639 9.3737087338226 4.567204098421066
Li 7.832514610857044 10.002739862370037 6.413900670582562
Li 5.7771487304646385 9.437257959515833 3.8292525732545073
