33
Energy = -49.42155628 eV
Li 5.482873250087957 11.12955431074175 8.025585697954826
Li 4.554282908604135 9.7199093156291 5.3434806948557085
Li 2.633060016415021 9.478085037470304 7.763782560521896
Li 4.499108423280156 9.079249818842872 10.358494523798539
Li 4.319622022862672 8.42949671264972 2.74614651335322
Li 7.34079390023872 9.4900285025393 6.085948776430968
Li 1.8290144483724355 8.891771765473997 4.4852317366224455
Li 7.425010638153796 9.091202117614461 9.203729151556885
Li 7.298918592308409 8.558650108749697 3.2578883817519606
Li 3.3486213859558367 6.2998745162140795 8.91249094638011
Li 5.187268837628167 8.381856802942348 7.806012815206531
Li 9.903264128018975 9.274260105058188 7.580832239407009
Li 3.2512603848789943 7.10806983374515 6.045895915462283
Li 3.2261517535220334 5.845871963522231 3.3756775277586644
Li 5.772976926492567 6.7488195543831 4.709852987674354
Li 6.0517795280515205 6.0490484500765165 1.8054084924294622
Li 6.19909924730382 6.404245796230915 9.965691148417863
Li 9.772301440940916 7.694135310597088 4.854551104936943
Li 5.585908670799707 5.751884059027976 7.3509411384540195
Li 8.133433698780438 6.925641421746267 6.965174470603231
Li 11.035567085533051 6.416078901059369 7.291538750090261
Li 3.732963381204975 4.115706300985361 6.113911632102831
Li 9.448005392363914 6.841128018837684 9.658712776925324
Li 8.115504706372208 5.4315041388893315 3.8591951453701014
Li 5.45254784035481 3.778859801486955 3.620636081392899
Li 6.821274093465714 3.783746406767603 5.979471048877223
Li 8.054627059358285 4.497278158419506 8.516143585671974
Li 9.653259597104164 4.214902526093225 5.985194737700376
Li 5.352830777831231 3.2417609773748817 8.530013443035754
Li 10.700506583243712 3.7082065808460642 8.715930256331024
Li 8.086226869435094 2.2884550141502307 4.015891518929154
Li 5.441211581585597 1.443813794884997 5.727723817860665
Li 8.243281158904079 1.7812272342126794 7.280006267731439
