32
Energy = -48.29396587 eV
Li 11.667850491533077 7.02917690626231 7.273352660855397
Li 4.898292902035468 4.45241665354211 4.066977618057262
Li 8.11228757964132 4.611444226388133 4.140931536115901
Li 9.51476676011693 7.171670787123519 4.98245087416307
Li 2.218911905769337 8.689230102469494 5.2627811796056205
Li 3.598457854598942 7.764879113675551 10.32651935752661
Li 9.818532143329064 7.121325073183511 9.847564139961227
Li 10.833142404226612 4.5468040567463905 5.659171328165618
Li 6.842760746487274 7.791238159791984 6.558350720958403
Li 9.093102734659036 6.026759963470305 7.33476422452203
Li 2.9096010118470845 4.7052272170149285 9.89290919307656
Li 5.566725664593455 3.227928508863311 8.851100992886224
Li 6.276969925027412 8.75327767108235 1.7506484014064663
Li 4.218540809220639 6.787662637089141 5.691435619981971
Li 6.638798384498108 6.994580511778059 3.8660449298868342
Li 6.842817112648528 7.948942714047565 9.443620200813118
Li 7.7086229320449 5.039799179569887 9.359796714997247
Li 6.222969860211643 5.5953082755561185 1.5201797018452463
Li 1.9297241946477932 5.546936131895099 4.68149284505701
Li 8.385591551347941 3.1083300235256526 7.050597858978641
Li 3.5640241758473232 4.131715197785856 6.834106976086467
Li 6.4452024530062175 5.026068724828399 6.45981258152062
Li 3.8623311947580374 7.18866089401543 2.8516508000602014
Li 2.1636166530027867 6.758414049466545 7.718872992188926
Li 5.55364325821821 5.616548615522517 11.272643809223464
Li 10.732525866923416 4.369734954006921 8.817377414327488
Li 9.18633551658814 9.047693688554547 7.415804811221903
Li 5.116746225320689 9.400166152766007 4.634968108168326
Li 4.4134473559246965 8.98907824213866 7.608823685859767
Li 4.9146764404825225 6.091799542243378 8.575556987894535
Li 8.081679636883702 9.533018643417599 4.293020565246131
Li 8.849034169551997 7.031300102972106 2.126455191916122
