31
Energy = -45.49578293 eV
Li 5.610383459060461 3.532300513622804 10.309905555817872
Li 7.37029365221064 4.098348978214032 8.05073971909516
Li 9.808630598240535 9.291642006998245 8.428255208382993
Li 7.2913801562249505 8.393306025096864 10.5105815630346
Li 7.8533662041710315 13.282443041475009 11.24703770276093
Li 3.9339221043954713 7.421155537313609 7.096115589431303
Li 7.7372791716895515 13.585137363663716 8.096289173142544
Li 6.286674419637874 5.964226107837095 6.141837739731859
Li 8.500858734579078 7.829160746853702 5.654500855190247
Li 11.238157530900875 6.945693493101432 6.4169141826785445
Li 9.098011360904701 4.954642123921571 5.574137052584137
Li 11.893566365772532 10.081201087765677 10.76622311125875
Li 7.192613557608122 11.073785271304091 9.52496433604206
Li 9.024887529812183 6.433716433074825 8.366987958248375
Li 10.584901448049523 9.785553078006991 5.531167416213874
Li 8.034551943655007 10.89864514160043 6.6391343693663485
Li 9.904660256068698 11.996089798384645 9.34822869924331
Li 7.816219610797519 5.530623508446188 10.943125818242258
Li 12.376790966984352 10.285970386365 7.79770397747262
Li 9.026995493689265 10.638421885806496 11.777041578674964
Li 4.312207255872222 4.23159548252172 7.44600278303728
Li 6.764904612668517 8.51288362880814 7.791211693464264
Li 4.650928520893569 9.227410951802863 9.652219655576994
Li 6.074931290143373 10.787245101973387 12.09591830864455
Li 10.390874300187667 12.567112979396066 6.556941240523915
Li 10.754940303128494 4.243517738780032 7.974427139706104
Li 8.840036097293071 2.9345120167498453 10.266954733604535
Li 10.74483815366531 5.232732411246209 10.726535082017943
Li 9.981677179536636 7.952095321415865 11.108800509976806
Li 5.623746297528192 6.224891729390813 9.033534574384591
Li 12.12631567420914 7.472941833556929 9.169149231570788
