35
Energy = -53.76024576 eV
Li 8.16068278909901 7.740856270226571 12.21857732288938
Li 9.422505258776027 5.5534366139819245 10.223236240004688
Li 6.7601165946451856 4.975863768805396 11.892446269567468
Li 9.300406880803495 8.516230812904583 9.406870001405272
Li 4.967717303569597 7.508692760598827 11.97610374928375
Li 11.205821272788931 6.501326404196993 7.76881775519524
Li 7.0704252152936755 4.016160972505847 8.830564353756241
Li 4.378590579013311 5.207058559269965 9.863300482632013
Li 4.728269559357732 3.3632790892930853 6.86944672705325
Li 6.562710233490099 9.807609630781789 10.327542276675219
Li 9.470036031386986 8.772801651274643 6.1747744568889775
Li 6.778168555915792 6.891540388167585 10.004934972690725
Li 8.270878447596177 11.072536944217928 7.889759068348238
Li 9.773437026049038 3.7264299002311425 7.251883603864649
Li 7.385429563919534 1.7168566272987968 6.594793544098515
Li 4.205417716747093 8.192129925271823 9.002043395002982
Li 8.498077513843242 6.310840476588778 7.581184191386428
Li 7.040068371095171 12.573800474040373 5.411835778285712
Li 6.882901168504764 9.88381451930233 5.209409750521179
Li 7.14384134832426 7.075578112057932 5.126829479790847
Li 6.844988123057687 8.685125434774896 7.755695147711364
Li 5.158429280033782 10.955785950473286 7.427508957914139
Li 7.278470389497991 4.2580960748453895 5.723241760803315
Li 9.096930344391259 2.8306282178873 4.243333865989625
Li 2.8302201799229674 5.874586567914028 7.17977535599254
Li 4.3931860785743515 8.34661991838249 5.856885881592515
Li 5.55886693006328 6.094787809958496 7.371199317350998
Li 5.897974950366018 2.6093387105995336 4.020449047652192
Li 7.365550520586215 10.973175672294202 2.7909083320447694
Li 9.81201455722168 5.786706915624758 4.962010821799526
Li 4.585770105809343 11.038812388858277 4.235592172155276
Li 8.804771002318086 8.194689704153522 3.192954046061087
Li 5.672661723028051 8.250476642564754 2.9960174837502445
Li 4.7201384909162405 5.474882725371258 4.574050687498325
Li 7.416778857093368 5.279221526139425 2.965104880215602
