30
Energy = -44.76520563 eV
Li 6.773674625471494 7.209597630184789 0.7126870407669038
Li 5.752421865278714 9.544391996763347 2.7300256196264563
Li 8.383134566073716 8.062666112015451 3.1735716614891953
Li 5.9432900103972885 3.93387822176652 4.498663916691905
Li 8.007256072640615 10.899362629556766 4.511036787625788
Li 8.192607291326826 5.152534223216797 2.652745490914534
Li 5.818724533633792 6.661157472558212 3.3223465707117428
Li 10.572951140927117 6.245972673275991 4.342011556731915
Li 3.691018003072241 8.133710295183647 4.793108473710722
Li 5.019413963012377 10.974764265837862 5.4428988376859495
Li 7.967944972974517 6.016700024730973 5.429851203036003
Li 6.482609153646309 8.748672360456013 5.352982955828729
Li 5.326491758095945 6.177156838179711 6.234214198396553
Li 9.383708798839786 8.569383167129297 6.027985769814836
Li 8.49406852859245 3.4047260897094676 6.689557424637834
Li 5.36478280722892 3.651800565950918 7.550614969185423
Li 2.8336887599509373 5.604164029435888 7.777804797177266
Li 4.426257593516877 8.578407682432909 7.776517249862481
Li 7.3572143154249625 10.402281476680786 7.663625041388659
Li 7.6925061187564285 5.165501482959936 8.62154442752314
Li 7.300010922985102 7.647879752155289 7.808725969520619
Li 5.1604527699956835 6.071002221057257 9.083539366722585
Li 10.151216787013368 6.023798882724109 7.487423420710601
Li 4.092217929719358 3.9543852941027087 10.312938083312451
Li 6.147995732820575 8.422590046016209 10.297936754578327
Li 3.3558024880282264 6.947374183238563 10.808586120119351
Li 9.033258342702574 7.440199408475917 9.966366005057013
Li 9.72412724220134 4.292767645068296 10.114511222428188
Li 7.061537937285305 2.7910991168179855 9.807802079578709
Li 6.758604821531549 5.541064065462906 11.277366838310101
