30
Energy = -45.38513529 eV
Li 3.1443729932831954 2.4087390526535106 5.425674184569845
Li 6.051989500948249 1.911688446488993 4.607620034223688
Li 4.156824513040611 3.6796570410376503 2.7522938501965206
Li 2.376705053026234 5.452148171498938 4.663276853261375
Li 5.6255142647740755 2.6959357139803637 7.593762730670787
Li 3.209555683313741 4.7240840037901215 7.558710631702592
Li 7.196934970195598 4.65626734990783 3.2863699042402725
Li 5.048367970750244 4.379765342909531 5.28755702990911
Li 4.849517649941044 6.689595485179251 3.323790701035813
Li 8.001007933078606 3.964852230049798 6.189497470475642
Li 8.320743551210736 4.214709714157575 9.172855218423866
Li 7.799098337181659 7.787036065345458 2.96226323523253
Li 6.1049407528102355 5.564580095166998 7.819571857728175
Li 1.6356303063155233 7.404794123292267 7.05312201001038
Li 10.902483272201975 4.694657840406642 7.401899571555956
Li 4.194795182246198 7.117886930416979 6.185293288260536
Li 8.89562443301187 6.6038865732198415 7.616179809268457
Li 3.8446939043796533 9.811513430206753 7.1413554271325035
Li 7.332995944581557 7.011699621298156 10.047758894551782
Li 10.466191737885255 6.583834344267215 9.8277597982752
Li 4.172298478718318 7.236395087319283 9.147821096457053
Li 2.6509503588142613 8.647130172585495 4.431142963601963
Li 6.957058499563935 6.664711890706166 5.320215771808751
Li 5.753542023334141 9.338352376776573 4.900181659067501
Li 9.735063843867362 6.172967495156569 4.873500321591748
Li 11.357267286963744 7.783600084726884 7.051330578221768
Li 6.488749999707983 8.48102719612259 7.644102224097249
Li 6.927087732809135 11.208624249901053 7.136908760393357
Li 9.119411991823752 9.271449373457232 8.73801703847158
Li 8.724251233964056 9.000500402482071 5.784418594284905
