36
Energy = -55.5345513 eV
Li 10.313736930439076 4.329843738079216 9.73736318943225
Li 10.682385840178235 5.999190477615548 7.157366615252743
Li 10.399564179643514 7.558703478946786 9.881870626479706
Li 9.902478429379197 4.838703708910448 4.336646619668094
Li 7.349376139135125 3.4864413329275763 9.665430816148326
Li 9.048083299782435 8.529744663584863 7.567421316378093
Li 8.079035715486865 5.837953871693865 11.610142719537505
Li 11.720921986968168 8.968380626037863 7.302033518864704
Li 9.767505054879468 10.671456041129924 9.099299884055407
Li 8.225986811603272 5.984763087831173 8.871468221054817
Li 8.048823748832413 6.229183833824236 5.978011208599205
Li 8.65741058564571 3.6115678811840715 7.023398407783294
Li 5.526171735192236 6.495016567779295 10.021919943843805
Li 7.24972091082514 8.968729121949229 5.160446126355533
Li 10.057500300159537 7.931513179057056 4.776078522433029
Li 4.468832714992346 3.865468184041775 9.996504600396142
Li 7.503663203729277 8.712337765866812 10.131923423715245
Li 9.339898017313068 10.804263816307179 5.843736824529434
Li 5.74557674056686 4.90955893715121 7.450591634405235
Li 6.84993467724439 10.630488894871748 7.687265696518448
Li 5.42855594662926 2.3068656626502446 7.1960992635678025
Li 8.352531141591644 9.788647405132194 2.8027416911865353
Li 2.626434585383376 6.450832916525612 10.066941262581729
Li 7.679629645483334 6.729316258502501 3.1420841941044175
Li 6.394309604421308 11.494125312387519 4.592829527884758
Li 5.344211156041352 6.690765835974213 5.012611371714645
Li 6.276968197271259 7.833464486470989 7.600189925019889
Li 6.787106004476769 4.070226980670201 4.5210435630919505
Li 4.3630124591630715 9.174992006243045 9.279328017656814
Li 2.788162127902363 4.29250574425146 7.747227833896701
Li 5.300071778930325 8.806106402352345 3.083318547493894
Li 4.851323440556737 5.6678177592665335 2.4434304891257046
Li 3.896632485122322 4.343206476531511 5.048602099550626
Li 3.550533440233687 6.989243350815907 7.371699148632415
Li 4.42046717625417 9.478123022159958 6.005065910085636
Li 2.7027736943390006 7.168202543574038 4.423694911085049
