32
Energy = -49.00012433 eV
Li 7.768198959584131 12.271921427362674 13.372174106530345
Li 9.555034961609747 10.40720972899864 9.33864632592223
Li 11.295651101005339 10.192569607293612 6.978588407913675
Li 6.06065319726656 13.448037768475094 8.151494797799778
Li 12.297559106715148 9.551316921025721 9.965174031841691
Li 10.985020506976452 5.192158753751583 7.714401855576605
Li 7.6482884939317275 10.252993153188367 11.546127403814094
Li 9.943000340254791 8.335794153429443 11.360959556925147
Li 6.729595243577674 10.87095976652058 8.767312959200673
Li 6.334406486095106 11.062533036034043 5.907898842469091
Li 10.371943899936914 7.602342478039666 5.582242954183335
Li 5.624157410996857 8.452333972895111 7.395481718067245
Li 7.254703088091335 7.365036262869233 12.242629282763033
Li 8.981858181655918 9.274830482167113 13.915494539555912
Li 8.43639961840538 9.319457942957634 6.869053500538081
Li 9.272571476981431 10.520198863061298 4.565350960098559
Li 8.847005381533807 12.275460414418356 7.186079202953724
Li 12.052506114225688 6.540555660430962 10.524827885089874
Li 5.105171000418491 9.054567301545118 10.497995571723111
Li 10.103368779016185 6.283259424443303 13.158999740134714
Li 4.049335784259964 11.068050834539877 8.272903856346975
Li 12.993146445586744 7.582594206454986 7.558836079293309
Li 12.087530156632484 8.686793703846622 13.009032836041788
Li 7.716145060096455 8.206528967345156 9.465056651217997
Li 8.077412700480421 6.365112186272154 7.212864556619966
Li 9.097455802509874 5.714297414588266 10.201150938002753
Li 5.444968075820531 12.06215680801874 11.066825540589091
Li 8.310679209982347 12.891617766009684 10.304541300958174
Li 10.423258029575347 7.754848669243851 8.469054925181355
Li 10.442310597656158 11.218262627239834 12.024806966216625
Li 7.264417825318304 8.142504669855278 4.703783282633984
Li 5.774044187768832 9.87222393605597 13.489743237032387
