36
Energy = -54.88971616 eV
Li 3.7822934520476013 8.933399292867815 10.908735021771816
Li 6.238493382295983 9.408911751059074 12.68581085296552
Li 3.509949431684816 6.381699273505621 8.998668010588212
Li 2.8516887710862693 9.36311791483988 8.059138797489037
Li 5.881759753933547 6.97132611554102 10.976504953267515
Li 5.826227493938038 10.826422856348826 9.841930346004169
Li 5.106072980297991 6.177059823963853 6.646583717829877
Li 4.209406842567571 3.358706407474277 7.662209551363463
Li 3.958506108568894 8.581754826873663 5.4457832997168465
Li 6.221727911436766 4.897026292714468 9.058971517449855
Li 5.538781757272667 10.981592376548983 6.599641041820761
Li 5.418602377706423 8.54104024621797 8.41899748617241
Li 7.975265400533909 8.754268368801219 10.381440271689398
Li 6.148098725564543 1.4256273785113822 5.783558256173476
Li 4.4975307616474955 4.0010159947343995 4.780990017610024
Li 9.548340493770406 5.0324884994082435 7.410459321649226
Li 2.435526376945624 5.973525976229921 6.140260016154512
Li 6.800281195618822 3.8751642720432176 6.480483006209982
Li 7.713945042529094 2.3887563268694785 8.527732269255281
Li 8.260582662577717 10.055971988805611 7.7750210534539335
Li 8.706896595207192 5.611094205306437 10.385168183787986
Li 7.692364691359639 7.011738771123349 8.062618976914136
Li 10.381746913560573 7.890435176997598 8.749753654373288
Li 6.78470724968648 8.614508709859434 5.681927341984622
Li 5.985656446380892 9.976680359104858 3.469541593670196
Li 7.292399837380348 4.0088368371374665 3.5326970504018833
Li 9.081267196710034 2.6876703573434235 5.600017785321114
Li 8.745428011673594 10.552126505566484 4.782016297345282
Li 7.718374868634014 6.047272911607285 5.303098639258783
Li 12.108245664463416 7.004649410701916 6.358174838115432
Li 11.287734049782502 10.079010989770063 6.742401612203166
Li 10.197273058613437 5.582537440764546 4.31133800932374
Li 5.447290734975269 6.682331519314844 3.6704474105498117
Li 8.283300515494247 7.856930191129944 3.1757956274965635
Li 9.627012140744977 8.019393217653194 5.992932155570783
Li 11.207231824416963 8.714241212380195 3.9183411904218883
