31
Energy = -46.53182566 eV
Li 9.353002145184705 5.202463974618941 2.631082085757662
Li 6.6809323004646926 6.799692113699378 2.089315414562029
Li 9.566758651680924 8.297700788125058 2.2421291365762954
Li 6.38012571885471 5.044656447591921 4.61261145051665
Li 11.158760674250896 7.015287372099446 4.888501043521468
Li 6.739675350248926 9.36894347294909 3.8544643055016774
Li 9.28532915488318 4.676611249540918 5.840336088869418
Li 8.372911090266093 7.0643244199568125 4.2238368277489435
Li 4.306149236820543 7.228722942020762 4.22460608745366
Li 3.253580994258835 4.363623009402096 4.898184753877907
Li 9.524965675252218 9.617755661440192 5.230644536505838
Li 7.2248280084374485 5.467512245125587 7.4871218778621325
Li 6.42259073282146 7.697294797537246 6.022849370990442
Li 9.094707274999273 7.43321623938808 6.804226197756797
Li 10.79791051041701 5.982798654288727 8.410033733985104
Li 1.8315593553818506 6.771574236085202 6.291967942745354
Li 4.339945620419645 5.9141990063539165 6.890851542115257
Li 10.600320752636861 9.121486567803474 8.522604556288025
Li 7.410501398290451 9.787537543812357 7.63993663825471
Li 4.1227316504821285 9.050780815372825 6.945910780114867
Li 5.417447590195685 3.2616869305743057 6.972035285525662
Li 8.467208446132695 7.444903603484227 9.34889622201761
Li 2.477384560234482 4.2631634343551355 7.969758228043276
Li 5.864988822145782 7.5944110879109425 8.766276160075227
Li 3.0767891413992747 7.185244298616401 9.231915473029026
Li 10.09537940679494 7.296445656417318 11.420928553131045
Li 8.364131599785008 4.829314341816313 9.991264067354308
Li 8.189035009983881 9.717381418676618 10.715458244830016
Li 5.203202449322707 4.964844033099657 9.586237078391205
Li 5.066592965677918 9.76304644423605 10.01349702433458
Li 6.643795975666121 7.1695957788754185 11.47780286935096
