39
Energy = -59.58825418 eV
Li 3.964459584579266 4.185212911469879 5.272134842731775
Li 7.669440556027673 7.448687229137057 5.272134842731775
Li 7.289147501639675 10.150806139541805 4.400719533484612
Li 9.088668223662955 9.334987307182942 6.911189155398106
Li 6.119034451018062 9.08006885309946 6.910587967523364
Li 9.956452252403508 8.313993347462887 3.969483410258258
Li 4.9021972103637435 8.378026245420147 4.321393733327964
Li 7.748322466274332 7.197654689778349 8.436157029090642
Li 9.984505962216613 6.260955693221011 6.355842628977395
Li 7.364210483324055 7.735092513846061 2.38422140428933
Li 4.573564582769276 6.630352750085186 6.7820395154785755
Li 7.060335557837657 5.003547390521758 6.7820395154785755
Li 5.816950070303468 5.816950070303468 3.934811697282351
Li 8.911468621317647 5.309479118738787 3.7053544554523494
Li 6.731702930243188 3.255873895186795 4.321393733327964
Li 2.722431519289284 6.324421021868143 3.7053544554523494
Li 3.8855776743326067 4.436245450828588 8.436157029090642
Li 1.6493941783903285 5.372944447385926 6.355842628977395
Li 4.26968965728289 3.8988076267608727 2.38422140428933
Li 5.514865689588877 2.5538312875074762 6.910587967523364
Li 4.344752638967263 1.4830940010651341 4.400719533484612
Li 1.6774478882034187 3.3199067931440545 3.96948341025826
Li 2.545231916943979 2.2989128334240028 6.911189155398106
Li 7.05995881282922 4.722619239631721 1.540457335758422
Li 4.57394132777771 6.9112809009752025 1.540457335758422
Li 2.764393319125125 9.324005084487883 2.8757692862551427
Li 2.452699292222322 8.417081053554433 5.899782243102252
Li 4.241507130640413 10.907501149999998 5.43393009904652
Li 3.8411262818475866 9.519370379476765 8.329875002859072
Li 2.293786657848538 6.934796438049184 8.799188878600392
Li 6.8809791018169655 9.861786020403061 9.532316088796716
Li 5.179550047635664 7.208251761713632 9.602677913262665
Li 8.869506821481805 2.3098950561190557 2.8757692862551427
Li 9.181200848384606 3.2168190870524995 5.899782243102252
Li 7.392393009966517 0.7263989906069346 5.43393009904652
Li 7.792773858759352 2.114529761130167 8.329875002859072
Li 9.3401134827584 4.699103702557753 8.799188878600392
Li 4.75292103878998 1.7721141202038715 9.532316088796716
Li 6.4543500929712705 4.425648378893301 9.602677913262665
