31
Energy = -46.81578794 eV
Li 7.6938986633938224 5.221936425690211 6.260027655149405
Li 6.199327187682459 4.53514562107398 10.9072100337846
Li 5.067055020559084 5.661046551055651 4.88048503194632
Li 10.049458898180452 6.201590254368252 4.88156128984352
Li 10.20318689834174 5.353142227373758 8.003377043464111
Li 5.919538763887628 3.013233747683647 5.5242519420571545
Li 7.41459542893908 4.749551095128249 3.37982233270119
Li 5.410275248505827 6.989399626063628 2.3502278896215953
Li 7.636318739904348 6.042614300265273 9.119603476737728
Li 2.661491147697143 6.445022819505672 3.774259433422017
Li 4.671828699771332 8.689522970946431 4.741881951780244
Li 2.984766557886334 4.020801669346567 5.6849193833214136
Li 4.381750859494007 3.9567233248230584 2.8925660632337586
Li 3.2415901230973754 6.974672390456192 6.846649428373354
Li 6.946621458934309 9.903541913620135 2.943574258300397
Li 6.011586499220713 7.435683078672165 7.029289834724033
Li 4.979875222110525 7.393401082789497 9.82561627297261
Li 7.105487356220608 10.034839966578714 6.045591796811955
Li 9.705338467063239 9.453854176901787 4.814596003369357
Li 7.391158517504104 7.547646051872815 4.403528746362806
Li 4.604618300201285 9.739178387466739 7.977681465136644
Li 8.923974769287279 7.797144184184767 7.034003887261485
Li 7.783929735041417 3.2686341068868 8.556211568613609
Li 7.280476534975156 9.003485292713433 9.035748746586304
Li 5.165273114178855 4.791292004534331 7.925647952893637
Li 11.603643567101646 8.111224445527627 7.079241383472934
Li 9.687930907714081 10.394148911098712 7.890373283734534
Li 7.43151438145753 7.435438478457646 11.616080236540512
Li 5.793769682372389 10.161755288636328 11.052981859050952
Li 9.958192364817224 7.814935945257135 9.78264392602037
Li 9.252390242908577 4.86535976351662 10.986267004541562
