36
Energy = -55.10429748 eV
Li 8.024114731300351 9.541128402053237 10.605782877407863
Li 4.1561306099918625 10.592945555253634 5.97616290629006
Li 5.986312148398579 10.698848166789812 8.65368175255454
Li 6.18825170110604 7.881746220652677 9.1437302756959
Li 3.573850728949174 7.607566654358772 5.426331784223385
Li 8.345467644142298 9.302575853957107 7.719227174425414
Li 9.192935449219586 11.676037197057724 8.592789444938486
Li 5.947054843862111 8.60218102849811 6.4753420893999305
Li 7.416054592909603 11.059037464376376 5.822834848266453
Li 5.710323037929143 9.0386614894161 3.739924009293807
Li 8.020921298435624 6.604093160607544 7.585491372853189
Li 3.6034384966812834 8.546607981447615 8.404967610639384
Li 5.08095828232578 8.714005051932492 11.422107497610561
Li 1.3120544639075702 6.272572973473693 4.379116421887813
Li 2.241512282881599 5.89620589036209 7.4421953040538
Li 6.520991753916531 6.156854592332881 4.825391883657831
Li 4.298468806785577 6.352057808497288 2.8925959751004866
Li 7.794918138442847 6.453294225419283 10.683660654068552
Li 8.52039487184773 8.183294648494238 4.8742381493373035
Li 5.147058065072743 5.78967567545408 7.28948226474804
Li 10.601917197025447 9.912018529108503 6.37837574333492
Li 3.6763361663482605 4.571651305272643 5.121284487831873
Li 4.377466115925692 5.909127014471762 10.037674336322775
Li 7.339051058932288 6.843325178732358 2.1813829224683605
Li 6.859269218624459 4.137124912200294 8.81610961107907
Li 9.41055869558534 5.285377848971867 3.7681077505564637
Li 10.272836281873774 8.04714669301152 9.091724968264367
Li 3.8544297226835136 3.3620927837313332 8.09589016106807
Li 8.544124682976394 4.3613402929611205 6.166034827564597
Li 10.584521851864167 6.666526454762189 6.307343204891345
Li 6.145250825220326 3.106064690874535 6.050487440593198
Li 6.470093387835998 4.037434593345266 3.166147174222927
Li 9.905664252991063 4.760593493504609 8.683094008572663
Li 8.750444685164407 1.9982779526041947 7.523887647892178
Li 11.145534108663032 3.5834377379391507 5.977759785732657
Li 8.79829940354258 2.2597426133808987 4.4365207617466496
