39
Energy = -60.08370702 eV
Li 2.6453088611576727 2.467843164439832 5.064656725677785
Li 1.6023102838103631 5.256663997378712 6.479181761197746
Li 3.1616154571568806 5.301745706639439 3.6986618584525037
Li 4.272641114994894 4.3909336598388675 6.189652810634485
Li 3.9465207685929276 8.160188731399636 10.886242381746351
Li 5.459891056145478 1.7850687136470673 6.696808483418157
Li 2.211106863987014 8.47139567079364 8.20828347506574
Li 3.679583094481391 5.906293681192186 8.71983274576612
Li 3.741491245624039 7.284071987323097 5.908393118387336
Li 6.147355788291199 6.346834828574862 7.246815733918112
Li 4.810231349508147 8.683162535871435 3.3134570664185667
Li 5.969958821716001 6.122554433864985 4.270730311438321
Li 5.072099308958431 8.606435325994592 8.383408886479968
Li 5.4935364912544875 3.1375617394703172 3.919626457666484
Li 4.080414632990749 10.884909316217598 9.360073439147037
Li 7.193845672633103 4.071431894161781 6.174655908523845
Li 6.526969687857688 6.616341024952681 10.121081284363159
Li 5.992245300129929 3.9235879848415562 8.856058374486853
Li 4.004417239643679 10.256137587955463 6.214037529963283
Li 8.659158384887437 5.439268714544618 8.445387248846242
Li 6.786333735095332 9.523994347375627 10.552117676347201
Li 8.451194135494209 4.269032346966053 10.936068597218567
Li 6.432812213692681 8.793801416391817 5.577570673550879
Li 8.271947860295313 1.8616144059837858 5.1491152195757355
Li 10.233575877916108 4.381838987136314 6.195901566459157
Li 6.800705744032906 10.88931336377734 7.698344563965853
Li 6.446787908247171 11.495098987113463 4.839978458832791
Li 8.64516178790178 2.5830754899496253 8.2345704107433
Li 7.517107921554348 10.23397782745204 2.5119376981359682
Li 8.203165770099012 7.674202221346055 3.1099608781560764
Li 8.534506034805435 6.6749445402463445 5.768948565333589
Li 9.53601148115889 7.178220884847694 10.454520156027193
Li 11.117482589755774 4.5759062877986985 9.269735880671629
Li 8.110047696947992 8.368833572354966 8.040069972748963
Li 8.483198588581335 4.653997987940134 3.6059784987353143
Li 10.825306296167483 7.256475073063614 7.444399287431716
Li 9.180420096993227 9.606547771598155 5.259864553265274
Li 10.457283188912328 9.570045136243083 2.510337062266714
Li 10.860828122448515 6.9987237821552375 4.292396710496137
