33
Energy = -49.70422754 eV
Li 5.794181050029938 8.550914490424407 11.976028702369856
Li 3.3279635836235553 9.27338304104128 8.943268845829618
Li 8.391638410636077 8.279130923805587 10.284499789963393
Li 10.68146854481183 7.828611059701714 7.968048843883073
Li 6.697880339507385 5.690140919421007 10.456505060659543
Li 11.357817128602742 5.239935076878698 6.465186834860909
Li 5.947369663467087 10.659498331542844 9.769393396912108
Li 3.79432981121631 6.727009595710325 10.829367795181227
Li 9.404088490566343 5.178875295172549 9.138513931462876
Li 7.866080892108446 9.706670136369338 7.685730748771186
Li 7.055412782227117 2.8665530592586284 8.33628978683384
Li 5.703312405860704 7.969933439023453 9.2543460968547
Li 4.435431472527623 3.9016461048351943 9.76436596065745
Li 12.444025294031395 7.851315778504299 5.319431590034417
Li 7.926168686572579 6.9632079238457205 7.671944008773591
Li 5.048987233281446 10.557673039292343 6.677003697520312
Li 5.832856639294152 5.154950219102639 7.604351216301235
Li 8.665291228100802 4.495149407177616 6.418850626163506
Li 3.27038304783026 6.234710472289052 7.94043596073389
Li 9.670349989347889 7.292354905888222 5.416263773452789
Li 5.302810968077047 7.889520248118232 6.557314872480784
Li 2.6956775542717235 8.509523808907177 5.939679048099331
Li 10.351918185639613 10.044822414274176 5.912071949548279
Li 6.984212167061099 6.275148305814261 4.8321455683865775
Li 7.569688265307748 9.255152022067278 4.8250498500817125
Li 6.46167546232636 3.3501284019905873 5.084092175667355
Li 4.945921053692218 8.180879243335674 3.721664054808347
Li 10.318105207981194 8.631074515131907 3.1715022973137263
Li 4.105534325099947 5.572853460390577 5.072526380055611
Li 4.0506485568903 3.0830265774194197 6.895403835011752
Li 9.257739063606138 5.052827961842195 3.556717369880011
Li 7.6690403090212 7.468385074105719 2.424898769636818
Li 5.985678671566969 5.017950291892977 2.5877653151055684
