34
Energy = -52.25449517 eV
Li 11.415694244783259 5.526512118144316 9.148597016745075
Li 9.799890424755127 5.281140845490963 6.391534766935757
Li 8.900867551166217 3.558538084358901 8.865069593138761
Li 7.936149043606238 2.93311257599088 5.659471364860026
Li 6.664836685852957 3.692361261811316 2.7013875932478886
Li 9.609640172884818 4.398787022225962 3.3306554545541616
Li 10.470393324215395 8.080861222307115 10.566420557627564
Li 10.645956346472282 8.053907523699216 7.320208254430034
Li 9.668908611475889 7.483142262671347 4.184204966958466
Li 6.974205220795393 5.0314629719989306 7.350999910562417
Li 7.942360716637089 7.653246489567258 6.479070285466264
Li 9.347809115913515 5.332303768329726 11.513209307371282
Li 7.41129827054996 5.628577919561763 4.448415032646237
Li 4.986175958286182 4.064546737807787 5.385195962482827
Li 7.341104314860518 7.853979960120179 11.208024625014277
Li 8.858477961965638 6.499469388590526 9.073601912096542
Li 7.737249512965889 6.478518846933522 1.8566068353030551
Li 6.721715572111102 8.624358605754557 3.935610543107162
Li 5.1944985322178825 6.911994329812019 5.903126984264581
Li 8.63259265061739 10.235539398215668 5.5535373713186145
Li 8.264362229634813 9.491240848072039 8.711478846646722
Li 5.98888751311275 2.630844691222118 8.222371209445923
Li 6.484663290375043 5.0296591998124045 10.239972935634883
Li 6.069775887675202 7.526517760519872 8.679967877793278
Li 4.23046079207402 7.299992269056435 10.703512300644968
Li 4.81958854854031 6.310791746476599 3.174162582688991
Li 2.576222691822896 6.295384143334413 5.465563119945375
Li 5.878812232555735 9.758047537810791 6.680585857153241
Li 4.126196619268477 5.350239904140927 8.161120543665382
Li 5.195765378447067 10.086081180231202 9.568105235624795
Li 3.7726360410380444 9.152596181125913 4.755141546677439
Li 3.4014955700801672 8.408574728066155 7.753873894596381
Li 5.734773626607912 11.504250280862903 4.5255893864832695
Li 3.5984146391173404 11.403313954992752 6.953380338231129
