38
Energy = -59.3406047 eV
Li 5.4610092639822465 9.47545802342579 10.328472423587343
Li 8.542444132269083 9.585851666835374 10.137147215959008
Li 7.1833270865112615 7.375879468337384 11.988853340882505
Li 9.676816229461137 6.4244026199298085 10.072254291812389
Li 6.853307803644725 12.128097002990748 9.144442583176371
Li 4.527240925938233 6.257021035403235 10.385385746676855
Li 4.198855194382524 10.87399626193657 7.698520364572356
Li 9.3527562990528 8.104575808998494 7.578003555623286
Li 7.014860105647913 7.315779180312132 9.269092374399127
Li 4.2195246074082045 3.1845309923907545 9.24541119554024
Li 6.848954828014753 9.80513772291697 7.735373423845223
Li 9.408662113277916 11.0441419742869 7.398919360768759
Li 7.146471935498813 4.545142672576534 10.196264236348856
Li 10.010238414266569 3.3580264010852106 8.923571321036443
Li 6.686877872010595 11.91269010975511 6.070782400187714
Li 2.6444534775010973 5.480311062223976 7.695675377041676
Li 5.490339209682215 5.150278500191752 7.857642199340923
Li 4.448029691801422 7.944137122903856 7.872123427161203
Li 7.048404680908664 2.687885134783118 7.6473598279072075
Li 2.2822985429116724 8.151050588292867 5.897528901245681
Li 6.847734927373636 7.235263932067619 6.392148597128437
Li 8.47515429892756 5.245690410751045 7.688135242423978
Li 4.3314394597091415 6.220594964365059 5.388119831344078
Li 11.26139431784067 5.735077425408018 7.209811516855135
Li 5.109699872392143 9.21848106545025 5.246437079902136
Li 4.156224488105018 3.349603400652287 6.055858511910773
Li 1.9654866260126562 5.175971907638556 4.562367301155248
Li 9.292531205664448 6.362428898339999 5.103576316995939
Li 11.283593708362938 8.403288841363445 5.382861225072449
Li 9.690669228303548 3.5109746198042986 5.758644063217584
Li 6.855476006658045 4.560991729810057 5.269102966799551
Li 8.339451344536789 9.317136798456417 5.0590972944171835
Li 3.5267482902964025 7.403288465498416 3.107244601702614
Li 4.846378834142595 4.548414138781223 3.125867486059467
Li 11.602628525218893 5.426168523285289 4.032202643255199
Li 6.698438032127305 6.992996688013672 3.532455369950358
Li 8.622279701887845 4.650127599951488 2.9192574418456765
Li 9.784509543513956 7.56659057080363 2.7481696530807107
