39
Energy = -60.02412017 eV
Li 5.725890569116773 8.819922363995659 1.6836235311096062
Li 8.307298989391894 7.00996169212485 1.9458104621592378
Li 5.458338370130097 5.731999287479065 1.6089530926874422
Li 10.874418711282052 8.330081357231 3.140885643229953
Li 7.859870988769236 9.595713571179939 3.7606467197853766
Li 3.346737119133802 7.54990079342119 3.2071815699762083
Li 7.499233428305873 4.453948426307953 3.9086507998659394
Li 10.59095034701323 5.234896519483058 3.3928539198309835
Li 9.94102567734928 9.646604788607348 5.834030899954759
Li 5.031332737731589 9.760890853709617 4.7262611333512305
Li 11.708203110182062 6.886605708637167 5.846271348406534
Li 6.181269309732227 7.13881678843051 3.858452516677029
Li 4.304610538913067 4.802238809285012 4.346245827484798
Li 7.260878388183912 10.884707097953406 6.830484532547737
Li 9.02951951231739 7.130784297345562 4.730701929050107
Li 1.6856385681887622 5.949528774591816 5.417072934930725
Li 6.551879959354258 5.3896516025554435 6.37729536334407
Li 4.147608340818489 7.23624260189714 5.988416158152682
Li 5.428384096985784 2.63992787360876 6.141944756422562
Li 7.07091048572774 8.17573859133201 6.541868778900185
Li 9.50744293635614 5.0323704504184965 6.271104476874303
Li 2.3407262220171576 2.7672143418082253 5.558394529459937
Li 4.550484550302219 9.4956941938309 7.801210367588233
Li 9.68655007403698 7.692839773518457 7.9130465305712505
Li 3.634544650172927 4.622312819691979 7.262146927243748
Li 2.1123074305509126 9.090415839372868 5.729649374432752
Li 2.3744421524960195 7.236235027500598 8.258302497489053
Li 3.486928851156253 2.0820722648329895 8.495432831360363
Li 8.163397597797852 2.9608225982329355 7.618246883895104
Li 8.045203595313945 5.740593396403211 8.819134176247626
Li 4.17977252843517 8.177847388453603 10.704641080513708
Li 10.868622077678571 5.09983291179675 8.811577702734702
Li 7.192661354231827 8.676474510157053 9.460305078919799
Li 3.496691972469294 5.077515456257404 10.25161905308056
Li 5.217768176961007 6.70676201046202 8.64571853730026
Li 9.455380219192747 6.891759819009991 10.934655682598926
Li 5.862846316770803 3.8116456433555217 9.063485266885785
Li 8.618814187767164 3.8358416832109095 10.65242676355677
Li 6.4335136072120545 6.032176894190447 11.211289709872094
