36
Energy = -54.64352067 eV
Li 7.786278518699452 2.430311773150683 3.6841602065518106
Li 4.018547719245438 5.478016914460139 4.162652767499141
Li 5.333229812529201 6.519594377523674 6.699788376812613
Li 7.57226478931646 7.421045452417528 1.3182991095763439
Li 2.3757799129473787 6.405933789947311 6.374881961305663
Li 8.374702722765615 6.816863083657583 6.353319945273779
Li 6.6133873798298675 2.1584061683520113 6.700438311357538
Li 6.302147262826588 9.723618694661747 3.0538657494143964
Li 4.00173089808869 8.374599484153437 4.748201986132416
Li 10.304999630052398 5.251588630030981 8.400178516003669
Li 5.320263582057702 5.831879932673005 11.892144010293507
Li 6.883887913702814 9.722517928498162 9.064017006107072
Li 7.446791990125229 4.764407433705144 7.974548410970196
Li 3.141571976726769 4.372147590607394 1.7759582216153238
Li 6.7110499448348575 9.11695398185266 6.1388473819635525
Li 6.508676894905406 7.103382822574649 3.9362289387860776
Li 8.972286511417257 8.53970948325322 3.9605713874538893
Li 4.500177052085702 7.263145857839938 1.8316579568657794
Li 8.0971290634977 5.258125347252916 10.777118842108486
Li 4.677049296598248 2.6469354522534987 4.080532391907671
Li 6.201614780759559 6.965381504730204 9.440062043360646
Li 8.943390727027849 5.50316945420204 3.485252301804882
Li 5.422522453632179 3.7742905858849025 9.543299899089261
Li 6.196913283569197 4.739810805574063 2.19645626960761
Li 9.391478037332753 3.874921469053589 5.901212874825432
Li 8.934496865081197 7.655498018356574 9.008112707426227
Li 4.544336023837607 8.628536117535313 10.983998669062046
Li 10.970884856896497 6.733957660352529 5.710124240414493
Li 9.613819280717825 9.497051865941371 6.776234240088801
Li 7.475049033303881 8.082986480655775 11.76119306827086
Li 4.1243417495863515 8.737475078902248 7.941417907019001
Li 4.105321241399908 3.9160812829040292 6.830753021740354
Li 3.5251864211281667 6.041359588247763 9.235310962149834
Li 1.8297457351453814 3.875480143050055 4.569964025198496
Li 6.653975978636685 4.494475395302506 5.11811997111161
Li 1.7383260673943237 6.716615190241211 3.275600761895134
