38
Energy = -51.90170084 eV
Li 4.944988620633604 7.987650722221796 12.855934750210258
Li 6.475837170872158 9.832512578748405 11.191625613060335
Li 7.241259033787569 7.017092000659313 11.437818760083253
Li 9.583882976221629 3.425958230221705 9.209096929682833
Li 8.80451492785973 9.33689293641636 9.705605924354918
Li 9.448123694258793 6.3681617559200525 9.690636894255137
Li 10.562456431852828 8.293202158877353 7.6952719345621325
Li 4.539146183881709 6.107970069119068 10.53289403774068
Li 10.925394832726523 5.314938145056363 7.36033983822963
Li 3.828970338499397 8.867556525943748 10.239628943808523
Li 6.1227956690865515 10.899776983416206 8.566979624007807
Li 7.009424892230434 5.070664367308414 9.201069028137335
Li 6.317864600357969 7.923157904781706 8.8367251570939
Li 8.146855929631498 9.877462351166544 6.887737650082821
Li 12.301132313793754 7.192564953272359 5.554585633330037
Li 8.64980020466549 3.8172496025668314 6.52869590344002
Li 8.100662942109372 6.746660268637811 6.922663386873876
Li 4.488109641385243 3.7169924744896705 8.986741151941098
Li 9.769330620688528 8.62681006145994 4.919507248967161
Li 6.989190119008658 2.279166603351245 8.482795915594311
Li 5.565760356936799 8.861917602289411 6.297655851293975
Li 3.679353567525082 7.085547385738314 7.843420158502854
Li 3.3717978199999994 10.414671835794096 7.949081789361227
Li 9.76229977361849 5.794680249581504 4.624387058439235
Li 7.325057048970288 10.204734826531837 4.0501331361368615
Li 5.935891926992999 4.837385025656554 6.633588155205536
Li 7.118752240647118 7.204154911485826 4.227107619868087
Li 8.91271941532537 8.508564429383075 2.24074196429309
Li 6.585939499800354 1.9856033136681825 5.678670324526901
Li 7.561427910584751 4.008695954530109 3.934840190875102
Li 4.73599689066158 8.981605204822948 3.5243896276034694
Li 2.772688268777255 8.894182253766163 5.6342412517877225
Li 4.272798728433589 6.5111824615301765 5.0076053153241515
Li 3.038017996270144 4.444043616276183 6.663755797907432
Li 6.308465421297255 8.04781007080796 1.3412317849077162
Li 8.331035883426424 5.750207864459862 1.8223797790389877
Li 4.554447243619677 3.594292700503491 4.368423805515729
Li 5.4890499150235845 5.548311485994715 2.479127460908427
