33
Energy = -49.42111314 eV
Li 6.9450078160780295 3.2843337777684085 10.97809826649661
Li 10.82430594557816 11.329648206038245 11.92433447566537
Li 10.8579946156836 8.807994517991284 5.204484724051214
Li 8.307065964030134 9.413609061270076 12.32927940744601
Li 9.308529598036133 10.63559108297528 9.671924755082173
Li 6.581702183359761 9.718906227025327 7.49336661760826
Li 8.305809939228688 6.137817415813451 12.079391146508103
Li 6.515785570658108 5.702922216857184 10.012827620522145
Li 8.65792987903719 10.993070102062607 5.494357613498844
Li 7.958421921787977 12.360440078589475 8.033173625770324
Li 4.223225132526789 4.949841641704622 11.16087796067936
Li 13.082592035150101 12.937789849807949 7.114779852310085
Li 7.666623872570495 3.9480142425027913 8.052699885478809
Li 6.5592162224134745 5.0956279720493605 5.362349230639223
Li 10.79331383487383 13.12272389119787 9.275059827403842
Li 9.606370879385915 6.013655278281493 6.291124311033471
Li 4.765992475679594 4.84849608679126 8.04440516337193
Li 9.391975274911795 6.0631454144231745 9.25298426059396
Li 11.828961575910938 7.758797572488155 7.941746227963489
Li 7.011113157140348 6.758570446678745 7.45013616351465
Li 10.179771045196766 13.6981143925781 6.282721801806969
Li 6.2217508838557425 10.628487827446486 10.350948014131902
Li 10.596168153019928 8.401501310030783 10.732851573769976
Li 13.397765309300121 10.008818721835551 6.4324912646699675
Li 9.308835671278484 8.726287298223564 7.55774733158884
Li 4.744079021693667 7.504056731173736 6.044507913119331
Li 12.36330846853456 10.53557721482486 9.379094799155189
Li 11.753957642903647 11.776737683414783 4.54305180432693
Li 10.906746382681105 11.157988874799733 7.113414001866694
Li 4.72195633746459 7.784458142506164 9.172522718810104
Li 7.6643037272361525 8.055707562130642 5.0505585080382165
Li 5.6775261566939585 7.717933952492454 11.966965132723507
Li 7.640871717045125 8.25875387067277 9.936732193962596
