38
Energy = -58.41916034 eV
Li 2.3622631337580065 9.049571745474509 6.275012130357416
Li 4.5879894501410945 10.58076594239966 7.992728841306238
Li 4.962785743377319 9.950291828850952 4.686641070636475
Li 2.9240648447406667 8.22154914216938 9.242985435362538
Li 2.884427820290777 5.970435665191929 7.242521115343556
Li 3.999264062840571 6.986115947357852 4.502806578537253
Li 5.614374981014918 8.53600544706528 10.256457405337473
Li 7.245643434615434 10.866159081466012 9.625609588829379
Li 4.830644904136704 8.069698072501724 7.069017419861952
Li 6.787752084985306 7.808774806079115 5.059918791631549
Li 6.579833238543455 6.214923826015291 11.811320554339215
Li 3.5462214517959745 5.362203237051474 10.758741875518872
Li 3.6386133549407447 3.9975096591988835 4.896532853267495
Li 6.0596321850547845 7.906626957290491 2.360867158863633
Li 7.35452615835942 10.6118236427789 6.487682021423079
Li 4.421575073970313 3.3919790449728326 8.030480008638076
Li 7.4604752872925015 8.356304615343339 8.098638547925349
Li 5.336234670491558 6.012569764668411 8.963753230815719
Li 8.165333189380991 9.833965554662969 3.5936409015316313
Li 5.776770302459431 5.191757873532753 6.297311433320119
Li 10.306159819108421 11.238068027994748 5.445985985243926
Li 9.850319245745716 10.055505890816248 8.327531793828229
Li 9.562334049015988 8.609606095947084 5.859605157085889
Li 7.962105815148209 5.825122908359461 9.270233477420799
Li 8.84702243772313 6.714454237644145 3.4947833467126737
Li 8.679682136768456 8.193694263483058 10.75369960345098
Li 6.292227770876635 3.6494115443846455 10.512631495967797
Li 6.309049244807587 5.030432773946754 3.574776901523405
Li 8.45470081365549 6.047238304263129 6.513231342447334
Li 11.165771745975709 8.864851806268566 3.5937544019124523
Li 6.158682383440736 2.444035363365331 5.410296796910967
Li 7.566455356784342 3.39625289996822 7.8533027350282305
Li 12.219285527022338 8.996990554333832 6.513852565284796
Li 9.424738855545966 4.6047508728786095 11.007837570963574
Li 8.89145292134985 3.852120274773374 4.987019927277116
Li 10.457808788699577 7.131182392089019 8.433743188633693
Li 11.134186751958678 6.177312832086578 5.461855758984075
Li 10.336047937253477 4.215380088410167 7.866667567448367
