30
Energy = -44.85711273 eV
Li 4.108124618699608 5.838126434743291 3.4246242414322237
Li 4.996687722705043 8.805591325048491 3.8797390661115343
Li 7.386005152222295 5.85059739699881 3.6228758157483054
Li 7.815488743558217 9.062657038580259 3.3838462239968843
Li 10.360467809788824 5.444426150619034 4.826932144508035
Li 8.585562085070919 2.8889933320996795 4.6699483698105135
Li 6.06909640821521 11.557139384305152 4.5968499922369075
Li 5.649136719262312 3.6932828610409567 5.197803824096341
Li 5.619036948580944 6.6795896554574785 5.723522541204796
Li 3.2642212187908983 5.026728337063469 6.371224472662927
Li 8.692268444003151 7.729744643899325 5.6759204246305535
Li 6.599523327305594 9.444096132813083 6.295238372329558
Li 8.081782700011855 4.974041263224343 6.393144948674786
Li 8.929527265761822 10.83776163120894 5.506964377939664
Li 4.232491581924359 2.224862517674082 7.511278644318999
Li 7.275282201584882 2.388127199846649 7.535506251469476
Li 8.89747914935627 9.518857289659431 8.236155258792788
Li 10.168261400158135 3.4192390641922237 7.236057188079272
Li 6.859030888125556 11.892059198508141 7.627728431021264
Li 7.241202822747262 7.120638054446339 8.173999624449465
Li 2.8695785005032755 7.89989999413975 5.448802558596252
Li 5.607251771112291 4.6746111374411194 8.008723607926296
Li 10.118452057517507 6.498822118277163 8.010388686707104
Li 4.141630562963777 10.449311979225131 6.8001273432979925
Li 8.217951806565123 4.629515075653859 9.468314904344325
Li 5.764688169977288 2.971362754115218 10.227754556299345
Li 8.594833945948533 7.604123442352661 10.618955706567196
Li 6.176331381427478 9.467594383029736 9.401221414308324
Li 4.315990125063961 7.587129432591842 8.049290733937113
Li 5.78158648029723 6.240042780993814 10.49603228375166
