39
Energy = -59.94389247 eV
Li 7.8036645310090185 3.3494141084979203 3.724650549622404
Li 10.62564477574733 5.782738494163929 4.337516532712336
Li 7.536830887967668 1.0732753750920963 6.052746519086746
Li 9.95135090962686 3.08161286281477 5.863392646786918
Li 9.355189835680319 8.247963319434346 5.545386766558318
Li 7.929683160347559 5.790198860078901 5.081439032649807
Li 5.556297148436928 5.642440850381962 3.273634038127359
Li 9.724354763376805 5.683866389920479 7.233824613516884
Li 7.386406232211492 3.7027262052520737 6.627682139725416
Li 5.766577274047299 2.2625689295506337 8.435852539318905
Li 5.123177620892471 3.0357317502316423 5.25147382701542
Li 8.836800384138082 3.102213389162517 8.971721016444574
Li 2.8094843291195706 5.038948607143268 4.744014080422436
Li 11.164177735017397 8.740420832334499 3.5536144346883245
Li 8.41343443044169 7.188154339877565 2.6712265525454315
Li 11.889965760038091 7.77678537560925 6.4835005446123395
Li 6.5827993928036665 8.195792343657395 4.669471666803401
Li 7.3364179646425445 7.344009281241645 7.519637013631236
Li 5.230099939427962 5.878795809087738 6.168232195366471
Li 5.707687648349768 8.69608758698397 2.0723352875442274
Li 6.631814306107541 4.987371375483306 8.880946172121394
Li 3.6463976299140803 4.4121172240937785 7.828390413370522
Li 9.672640191932777 8.918365109405366 8.346995317305288
Li 10.628116414215492 10.681829361778629 5.938259944340692
Li 3.7453097567982963 7.924092705768462 4.297165756234278
Li 4.71065305178047 6.943788874301227 9.211032842133655
Li 2.6838419354708427 7.187299835188515 7.006763836943396
Li 8.280032827521946 10.195661718840666 3.6571281561110975
Li 4.332829989350261 4.62024112051414 10.804225821579454
Li 4.978177289612006 8.868245621971013 6.965849912842369
Li 5.202242312537009 10.631995217416346 4.496955711547914
Li 9.06793980327224 6.424021241659483 9.841690464973249
Li 7.5294466462959795 10.297075098625031 6.7372704447077325
Li 2.0602065166678307 6.536900654600506 9.906437050645497
Li 2.48969970416526 10.033441510823131 6.126138771624163
Li 6.670240475131202 8.964523234038495 9.780044916093651
Li 6.674794431275156 6.385080596228615 11.461706243844871
Li 3.3613076007957923 9.454969585064484 9.230872257057474
Li 4.111212229648364 7.812018283183211 11.798446895912031
