35
Energy = -53.36983867 eV
Li 9.764270562402434 5.738106393575577 2.6760572503420756
Li 5.563315100096262 9.087021733220368 2.9761993123298556
Li 6.675168384871961 6.242804147345228 2.9951563165276496
Li 4.592420412370602 6.499002616490808 1.0988156162523854
Li 10.565767510550849 4.1312601484115525 5.200272763777077
Li 7.7299136060533025 3.51064364854824 3.907384070255821
Li 11.10010334167673 7.2797348448183605 5.213575336784866
Li 8.036222866069895 3.618240252048302 7.046991136266642
Li 8.599477428816385 8.560196343760621 3.68117556563778
Li 3.9698509928988166 6.774369381630304 4.105942693054462
Li 4.6181572973721865 3.9663485263450173 3.22992315446436
Li 8.598210262107989 5.978553482212792 5.1776969900944465
Li 5.2140200500143035 4.26062141525632 8.38584307449006
Li 10.07722962362876 6.020285952202691 7.808204579416288
Li 6.530720631417452 1.986411905257708 9.191566274632677
Li 11.17598750353913 8.967142467852481 8.272223189525246
Li 5.48198484874231 2.271617512042692 6.001973541848459
Li 7.215051477407058 6.339780760342825 7.68279915482109
Li 8.904648138860255 8.591121054959721 6.745331815494612
Li 5.822522249433128 4.981325799703472 5.5608771212577235
Li 7.753004405184146 4.700626403383984 9.98368372976058
Li 5.028866368958387 4.014459302648614 11.206187174531586
Li 6.378353689247098 7.90464169511046 5.4305021158265605
Li 8.556481944378056 7.952511568454938 9.720460571965727
Li 3.1342382077617326 4.359971371083654 6.157434064587217
Li 6.244181036395089 9.023031714554818 8.14270673257316
Li 7.021728682817184 10.671614541251182 5.663791330724785
Li 5.548253346893821 6.82381893800672 10.059519925060451
Li 2.867454743564247 5.647467319162659 9.419445772301177
Li 4.289440821474743 6.87520485093245 7.211521615518427
Li 8.438623059143584 10.7931060363071 8.644402657492261
Li 4.196921543634009 9.60059520765508 6.0215825328744135
Li 6.250008721201803 9.837098605267162 10.799433281731988
Li 3.6084145192749473 8.98921283228804 9.19252058515446
Li 5.380340006727074 11.540706725700003 8.330999124783666
