46
Energy = -70.95530214 eV
Li 7.460358119021535 0.29465554271926797 6.368234880306683
Li 8.464716906053077 10.344164698479833 5.655569028939501
Li 9.977974312532917 2.223797229654062 6.0155511237872625
Li 2.684694111368035 10.49508577533806 3.6902620524107204
Li 1.7507710614503833 7.6607228920027355 4.784513962035816
Li 5.167800349539417 1.206220671581935 4.494200822403405
Li 6.616131612081261 5.899547750278478 4.390116092871172
Li 3.6722915255178323 9.526133503781773 6.40386541886097
Li 2.5847790206484813 8.061320917567322 1.7959516549009629
Li 4.95242358868602 10.018853704080009 1.6244761629937465
Li 6.023682268420864 6.262182573218134 10.611876665280906
Li 3.438128364668939 5.454547122408811 3.402869143287783
Li 5.439841079112363 6.830529007573054 1.6415359220685164
Li 7.809897340901636 7.52799852984069 8.625216977147268
Li 3.609547710429776 4.877623359313729 8.624338250976955
Li 1.8029999633836018 4.740026804357457 6.108448269601541
Li 7.156512191109894 2.964325269443485 5.570676912999006
Li 5.64763492224386 10.909611793492626 4.627962490958321
Li 4.501414235177737 8.326457961726465 3.8325043081587693
Li 3.2431166562796947 7.238351171913366 10.744674567656203
Li 4.07162995902781 6.558606804554166 6.066152261105978
Li 10.012356069808261 8.139226655400583 6.807025685889294
Li 11.515253475187695 5.4435574162699405 5.930778908453689
Li 4.832671101447685 7.765151109159737 8.50034375417444
Li 3.3674735967808975 10.017430043561326 9.345794460143747
Li 10.700431785103966 6.7101057387274405 9.08204581770226
Li 4.537268001137958 3.8741687871356003 5.53238407403948
Li 6.268592467123551 5.062577408530068 7.729166963666278
Li 8.527781814612977 4.944027014411442 10.010675133029508
Li 5.065110755112542 2.0429296543221214 7.604236352871232
Li 6.204953865549493 3.670326471905968 2.761692551024068
Li 1.9805629816662993 7.447520185778411 7.904557991879491
Li 8.950724209077785 10.01291798079126 8.963429054803111
Li 9.311636361859865 7.165772944387606 4.370971271370596
Li 9.233950417049094 4.217154062773654 3.993840829854266
Li 8.182985967261843 1.3437899763071548 3.557275386607351
Li 6.156045606945671 10.525350329408525 7.773809900595813
Li 6.139310287895265 9.288774041740686 10.515563162978408
Li 8.228603339572013 5.933747713828528 1.822738504823379
Li 7.279880460853817 8.766687582056344 3.1453437580937536
Li 8.810334703017524 7.7709904405864405 11.239718564242736
Li 5.78196305745925 3.368903172488468 10.237573593939866
Li 6.68114183609998 8.178522696341306 6.084430393377359
Li 10.814353030954342 3.7849298836922274 8.439219498633618
Li 8.920928324345542 5.273265617717101 6.788227401340584
Li 7.981656924241693 2.5684255286239766 8.324485054396023
