44
Energy = -68.21921072 eV
Li 9.545806680711733 11.736786949288685 8.989275030020014
Li 10.386226442264547 10.179382925123612 6.234030406231713
Li 8.769643471565269 11.128162061440356 3.6632829183909568
Li 8.374058467694576 9.454181405410804 8.168691453817887
Li 11.09985325911613 8.984211281487266 8.887913832869227
Li 9.106393173652485 6.100702628215732 1.7231169566431692
Li 7.558774918121965 11.690837201470686 6.549871970921173
Li 8.515024149190891 9.448466362222213 11.103208933775829
Li 10.140569670857461 8.219747130367184 3.816599534678487
Li 7.370408098378367 8.647996349389407 2.4156265767066993
Li 6.371663580426899 11.046438116679777 9.503405530334057
Li 5.5008266531067145 9.292972374554278 7.128235341878534
Li 12.099463394758725 7.359478599049955 6.337878173667193
Li 7.763911532909845 9.135383530334183 5.282831541491429
Li 5.800351615272321 5.8756853295274825 2.20826106494212
Li 5.291270936364399 8.957870255516257 11.80164179447118
Li 5.269410433396856 7.745737248025143 4.508220860933896
Li 3.412459284512068 8.145822252101155 9.209810615315382
Li 9.139965908365374 6.9224358767988585 9.53986516349995
Li 6.797054272854848 6.6873086362624985 7.100773845153285
Li 7.80155310395928 6.385208772328932 4.182094468620341
Li 5.580998931743519 10.619366391277307 4.228487221978844
Li 10.443404294819931 4.5144880333485915 7.634916944770415
Li 10.409399412686032 5.179761438251285 4.523522828000183
Li 6.483973976580817 8.120737047909952 9.602887342535741
Li 9.450883983386696 7.160343622702514 6.643734963990325
Li 2.8827195833745414 8.975214333875115 5.849486357856896
Li 7.928264617184464 3.707458024217237 3.296552478139054
Li 5.428553212173276 4.798061571215619 4.93894664840267
Li 9.712033244611964 2.183509033277924 5.423355227062956
Li 7.650405548352706 4.6544945157466175 9.203533122876681
Li 3.937004057409587 6.416098898971876 6.9258366636593305
Li 8.024084553277035 4.195947361215701 6.21058873811279
Li 5.171356937707312 5.874375783711238 9.537353413658622
Li 6.412493681264012 2.0324628341174873 5.3805685591878305
Li 3.835988073922042 6.211567435301769 11.810771305095017
Li 6.944531011896751 6.308081420189859 11.776413638143254
Li 2.819712348169175 6.279228993548877 4.200808309271155
Li 8.053857371049197 2.0307290188298635 8.051026607809806
Li 5.346375577781268 3.70646172921538 7.713683144571854
Li 1.2477166765710332 6.554393176821569 7.022378235623604
Li 2.7793191910650568 3.8965478209302713 6.123850598243233
Li 5.341285941813716 3.463506452961772 10.821290099102534
Li 2.683544900243397 4.781716377840777 9.168527955723354
