44
Energy = -67.49406469 eV
Li 4.003341236620895 10.128409062794452 6.729643345768408
Li 7.78954118041804 11.537151714176517 9.182069534577744
Li 7.6823340008633165 10.614575983828281 4.241992108940349
Li 4.705313276490089 10.788519837221912 3.9476769418166855
Li 9.171774257638026 11.778634162114974 6.490455460013882
Li 10.675119967746731 9.507585049137242 4.864351646013066
Li 6.083194682951353 8.46660413063518 2.474730001583217
Li 6.188285395625173 12.341329249513025 6.510114890116128
Li 2.480356231467522 7.858897325768233 8.066202421985318
Li 2.82422807561562 8.194697316871542 4.718509851732425
Li 9.14768472086046 8.718710304425116 2.3238939330158486
Li 4.940754448431683 9.957146689889724 9.486893480202365
Li 7.460634800894998 8.49119972817674 9.931318754886199
Li 8.483061375806459 7.928091688701965 5.018711109223035
Li 5.2148256038447895 7.565221792970106 7.876080252854543
Li 0.9322197124510615 5.964414922105678 5.7887491158778746
Li 5.6103902838069075 8.358177015080294 5.135374050310543
Li 9.677758983048738 9.220833932371846 7.940050437335161
Li 4.390989636228252 6.080411214753848 3.371716056020105
Li 7.63179872063139 5.851736243282902 3.019791570991408
Li 10.9197626803956 6.774412666208984 6.637406993918708
Li 1.7445633542479546 3.2489737041958975 7.1067482920280485
Li 7.948853324199174 6.753646098717788 7.617765871229859
Li 2.5908780557771887 3.871647453958607 4.216971099601799
Li 3.084409712468895 4.987059070336119 9.069229273567622
Li 3.552012947743904 5.734761323587003 6.277310794894991
Li 4.892469964702233 6.952276742082347 10.560550562740898
Li 7.062996895365364 9.79631791653942 7.148630383575055
Li 6.2447156386404155 5.6735909872440144 5.566541575718584
Li 10.710047627797476 6.295301567954162 3.596155084287526
Li 8.93415775772061 2.9367793236741404 3.902942263283387
Li 5.7808541825103035 4.748255449083988 8.47902531260401
Li 7.673781854344504 5.453376173500945 10.372879984702994
Li 5.874979517515558 3.3849735901369513 3.8791617357794332
Li 9.026437175486048 5.090830585877128 5.4780374944399615
Li 4.45664933858412 3.096531339872129 6.326994738891235
Li 4.2413519655385565 2.078245669779181 8.858072844276702
Li 5.202791951570023 3.8696076690965002 11.143028911007894
Li 9.525304445012756 4.332368734489993 8.182247902919965
Li 7.300684813147919 3.2690283393708937 6.509342355040342
Li 11.371331492589784 3.813923771134657 5.636739171681432
Li 6.251242625175277 0.7089073015424214 6.468381480215417
Li 7.2658729835628755 2.2823369462218706 9.153377321478265
Li 9.350737455796146 1.564161438888347 6.738025198055113
