42
Energy = -64.98401552 eV
Li 9.958835617002181 7.362168022602602 4.456563642750808
Li 8.856001963673277 10.354580815173417 5.472319976923211
Li 11.857842995450682 5.607615355645911 6.254789701893293
Li 10.093551560054749 8.031173557072158 7.5483072475492925
Li 9.850181413598499 4.096799520394753 4.128696541919246
Li 8.822094572686051 5.899158924758404 1.7514778131251167
Li 7.4761294672469605 8.609066197956123 2.979864721785262
Li 5.643683307843324 10.410342333741392 4.571329736565243
Li 9.547961071898108 7.81791631967049 10.696779129105217
Li 10.1250048202101 2.910145162886307 6.852371612181964
Li 9.099669958228503 5.540091282346716 6.5610105330645165
Li 7.4524558886475925 9.062407088889824 8.750534129922913
Li 7.4743191226627745 8.141525377644593 6.081854624747792
Li 7.126668921678891 3.31711729695091 2.738662844892689
Li 5.702389715432906 6.103828991696247 1.882558327800029
Li 10.43037532222137 5.231234855100435 9.054730921485591
Li 4.286796240061918 8.885475488205604 2.1927946405342533
Li 8.52821499411827 1.19548211741026 4.543909989188761
Li 2.7457780360743063 8.98558440469194 4.934627534560658
Li 6.432939451411138 11.316931046641855 7.310461060354814
Li 7.464693309690475 5.866507994532616 4.125023178968888
Li 6.39024611238261 7.544385118572016 11.268548519479687
Li 3.3441176398978056 11.176884634454916 7.029247112795032
Li 5.156953694112261 1.6213108248460133 4.7530542527990605
Li 5.108762635144697 7.455027516761776 4.377947183169253
Li 8.304248472702886 5.036087508716772 11.358359407535286
Li 4.616708385163773 9.808534241661635 9.681125668452754
Li 4.8744219357521565 8.912926896222709 6.89712731578166
Li 7.794931892830085 6.390981738263896 9.045484872829444
Li 4.849659280312434 4.472973489898504 4.425385194538973
Li 6.199045277368952 5.826625881638531 6.77883119379502
Li 2.7845032839000727 6.206772276442071 3.264035526052438
Li 7.313666291798439 3.375737158416621 5.663012276747691
Li 7.6311862063363955 3.63185967851452 8.520074560114047
Li 3.262560986977201 7.155290592212559 11.063201589678702
Li 3.3205322716842627 6.235359373279504 6.247164131881505
Li 4.817685634390187 7.010673641844825 8.830141676534
Li 2.288402841547902 8.358964858260554 8.162898478509836
Li 2.2962038199067916 3.5309968475552562 5.366363767353832
Li 4.6687579868265106 3.481172167394372 7.259741187605152
Li 5.3478506711789615 4.744892405555294 10.22125924390773
Li 2.557135228773628 5.135091153375698 8.777970109066665
