49
Energy = -76.62254874 eV
Li 11.187405000911856 4.312328652198642 7.415696310393418
Li 11.272906977671884 5.851437991527916 4.648270452355251
Li 9.075518616642832 3.9084316756332664 5.353279729759939
Li 11.435206074831962 7.965852907522811 7.575559547001992
Li 11.398773200124914 2.648896433201791 4.68746598275457
Li 10.14548903425231 7.255147048790067 1.9099317110420362
Li 10.05018888200998 8.65167957290923 4.724144884041166
Li 10.008039413289636 2.7733488136780418 10.027681396546345
Li 9.29045870509762 6.42644409919297 6.858245165739235
Li 9.870874206246766 5.949005219444093 9.610385347145781
Li 8.572255063537362 1.5044775578400342 4.14251363629269
Li 9.453239040090315 1.6490655188805217 7.169389061223706
Li 9.595475924003038 10.52675858113033 6.91405028148752
Li 8.651401733153435 8.81425525472959 8.877478411982718
Li 9.579507261980384 4.161077830807325 2.500344942665433
Li 7.371796423326854 8.963571944969807 3.012825876466573
Li 8.169015570453624 7.407119192755136 11.549694915762407
Li 8.459251509771438 6.357014246118088 3.917014384699628
Li 7.44166381106809 8.269132898818084 5.998722211860286
Li 6.776971945514541 5.291127968720886 6.226152421653244
Li 7.478450104614296 4.3664940820858895 10.878720067251034
Li 7.152376700318565 6.233141634598454 1.4361404561676672
Li 8.234110551795194 3.9684296166044684 8.252869781258521
Li 7.109870372656059 11.008109747061619 5.401452909581835
Li 6.501990126076337 2.4535366352446197 6.401530101595761
Li 6.843492249048922 6.6969302401543995 8.986735144155514
Li 5.584186176829657 6.532071724945247 3.935830906817024
Li 7.074060422695411 1.6969453098347338 9.34803039653441
Li 6.893872225186995 11.541657317179236 8.49023893220517
Li 6.645126309275786 3.8475484931838326 3.5737635352317634
Li 5.268170204195656 6.351497283236809 11.447769811753119
Li 5.984189240647355 9.227450559984414 10.584718429710692
Li 5.082059202171585 11.381540853041939 3.1098072916891737
Li 4.866675524292248 9.151165107655707 4.756588391602405
Li 4.078525542947076 4.26692801941959 5.485047615982821
Li 5.601644825026673 9.307616301305616 7.718704473071517
Li 4.635380671873 6.876016489427075 6.717292273503115
Li 4.4045980939370954 8.441274124895646 2.0764255349776004
Li 4.998423212595028 4.447981637737383 8.681958390621881
Li 3.8209648814398793 7.552274506558823 9.359649486697
Li 2.721463960372496 6.990753671501684 4.489356351417427
Li 4.263011039282728 11.525948667740277 6.264101594402544
Li 3.10381508070188 8.498222703361273 11.872654847347508
Li 2.4253899624389677 5.598424552192596 10.701790326966215
Li 2.634716351887409 8.925309871926967 6.857584504233129
Li 2.4223345193831785 10.10163543619009 3.968737853246526
Li 3.52226888698733 10.49022819586922 9.364571172941602
Li 2.1544885454965734 5.847435475254512 7.577068346601788
Li 1.1827493599086938 8.172862911594947 9.523977085566306
