43
Energy = -67.13374471 eV
Li 8.021549606727323 11.653335423683592 11.248344966071633
Li 12.229810070102205 9.995634871665054 7.396697435081186
Li 9.321002723781653 11.784981690987896 8.021257858053435
Li 6.04044161166681 11.93622700916366 8.821719472354458
Li 5.444922422366152 9.615601018660206 11.268071462522345
Li 10.409341831578047 10.043458574239452 10.132310480562868
Li 9.855921836152655 8.887884063889777 7.357615514704808
Li 8.266673804788295 8.385569195105091 11.915517832776986
Li 7.70384930055142 9.717053409086345 9.380865725507327
Li 7.123211243174451 10.331656386134343 6.526459402444996
Li 4.150965580890971 10.753983698627195 5.848997702684887
Li 11.814840998486286 7.541249124448415 9.65129609096217
Li 4.942421525415884 9.166129014188943 8.30351151209771
Li 6.309022838386746 7.159874209688985 10.063259995367988
Li 9.12507894931165 7.076941417811368 9.419308812868
Li 9.776975515172014 10.528295675664197 4.9177169338028675
Li 3.4100745538257344 8.56676884145016 3.6027682629996467
Li 7.268859111657908 7.618748881996239 7.452489551025745
Li 12.210152997410122 6.817987562227235 6.989700987270414
Li 6.384058533998049 9.989677826757234 3.5883906985117187
Li 8.015734714070417 4.9888925303209914 11.224085702481466
Li 10.368189364126573 4.396492955462818 8.673394999925288
Li 5.258262718984676 8.179919075197715 5.525095052489387
Li 4.851094117155845 6.220595269748877 7.724151350638278
Li 11.426494963687341 4.332435584443887 5.397475998794063
Li 5.473170908143747 6.592751266563413 12.530216253623186
Li 3.41385026449523 7.131770758678878 10.07489041411754
Li 2.6394047503204536 7.809736650071002 6.7367568466392544
Li 8.198178074415852 8.114857024774377 4.882089447251521
Li 6.171546098131175 6.850769119283774 3.0791873286519693
Li 9.566692587967383 6.079924567090376 6.5449403535855115
Li 7.4769545865627265 4.927765956586313 8.40754422035862
Li 3.9423499279851915 5.5543611435116125 5.01283989033815
Li 6.783914525004883 5.626433207994476 5.634759713554104
Li 5.130804150785447 4.407848847997086 10.058939252252468
Li 7.701352813625807 2.34786040754009 9.275500605970148
Li 2.5809063367012173 4.792129784236834 7.915430338320972
Li 8.933763710332043 8.554627717211527 2.310457343238693
Li 8.982350224189375 5.4554439777901615 3.743614734161643
Li 11.003920673793138 7.709781679928955 4.508697164789877
Li 5.419140154946104 3.3860596248602137 7.033413857821013
Li 6.352166516239101 3.6305641237392146 3.869942002145294
Li 8.509328536381789 3.2934551836970654 6.201241191742405
