47
Energy = -72.4747171 eV
Li 4.5830424360435025 2.873997570690484 9.273820831291022
Li 5.911149862754265 2.468652216136042 6.651886316919196
Li 2.866963864487591 2.3767282418961777 6.583234747242177
Li 8.8469517791683 2.3134758787249874 6.226059085485811
Li 10.914802659958175 2.626699843517855 8.593464004440015
Li 9.168593827152131 4.591747281141696 10.694568706611268
Li 6.320433983158296 4.024694896532426 11.6522022750909
Li 7.766228421680145 2.4486071679595494 9.129653141447758
Li 1.7411152210284844 4.183193323414041 8.854915150476252
Li 4.325725875529922 4.08774715968647 4.4551915809011895
Li 4.182093011229421 5.759629241507209 10.195403361598329
Li 7.078895535035331 3.088635873692281 3.673859703660211
Li 4.001154217500429 4.803330089928925 7.354803605164761
Li 8.969606582822928 5.084726827455682 4.844517359545485
Li 1.694728016255389 5.127608696212497 5.7437609889200205
Li 11.401003084032846 3.7268736066557056 5.6668963301593465
Li 6.965499443772147 7.061606067793411 11.226053207970306
Li 9.28441032314096 4.598960859502655 7.705837448651149
Li 6.566338737822349 5.000981058788856 6.1316045862620605
Li 9.63357101186663 7.340571232043603 9.508463352546714
Li 6.7608699940251284 5.143155815038032 9.06647924100067
Li 2.5420684077639457 7.187821268903877 8.060735134257644
Li 5.103780385150135 4.344324400578904 1.3055804559856512
Li 8.196840045330644 7.15664195063909 7.113659475926698
Li 5.39660876589729 7.360271227025341 7.684118259107378
Li 2.487040133085048 5.3962219510831275 2.5964752735987124
Li 4.692165348644937 8.766110732331056 10.099453954333411
Li 8.641491979126991 5.337598765800075 1.8131283000619494
Li 6.9234635572075796 10.224005155892092 11.734757032286533
Li 6.422864049281352 5.841936319333106 3.2268119175900476
Li 11.073542141952002 6.597924995051801 6.863759103546651
Li 3.9865074192372494 6.927021341074462 5.0367095686609265
Li 3.4056095080005013 6.118633181488871 11.734757032286533
Li 7.4008032570624405 9.181607585127791 9.200899413957236
Li 6.66961690542462 7.889868732983476 4.899852217986028
Li 3.953332143108328 9.692068632430438 6.822830751035269
Li 9.442551343699874 7.790491385887766 4.357662823696111
Li 6.428879355605261 6.510005096999523 12.192169686253422
Li 5.496404006617515 11.347836635044324 8.983997492829825
Li 6.66230855420625 9.926922245619293 6.684948453815113
Li 4.508689715249309 7.369735524131356 1.9366193568251326
Li 7.402016041490677 8.423830145605969 2.182615443615104
Li 5.111789075756912 9.842328854420538 3.901026155575892
Li 9.626678512761732 9.466232397304374 7.042760675440003
Li 5.637829627169014 12.28204168026213 5.905143971726617
Li 8.102182819015548 10.748344788549357 4.553794003109108
Li 8.160884216997818 12.000449044260927 7.734585848382316
