40
Energy = -61.71192551 eV
Li 4.4860727159692475 6.304933439465812 10.628758556141658
Li 10.064467721272973 2.6140776800849275 7.086677261130192
Li 8.207680501041315 5.967239692539991 4.124273376890348
Li 10.320551576056898 8.111660653967492 8.223172717802957
Li 5.452786375723209 6.592901849460156 2.9046551558382516
Li 4.173896848110667 6.683181599832581 7.6958846232593014
Li 10.586419948413095 5.939849421759135 2.7861599647793738
Li 9.271501510377576 5.242061220736591 8.892018325796395
Li 7.337982135420711 1.4731328161826236 6.019463098543002
Li 2.4648771067626516 4.773532820635075 8.46752338004308
Li 6.072352130060452 3.7457492755905286 4.074237144711331
Li 3.8694244292283577 8.333840431022946 4.912610776180301
Li 3.841770959204777 8.87576375166677 9.519823858978166
Li 3.075131688704206 5.322206195018652 5.270908193888662
Li 4.8233176555629305 3.3381504909940234 10.065549724173195
Li 7.901052325446213 4.878251477748554 1.66819656896057
Li 3.281684300760501 10.442688990315476 7.02774114305078
Li 4.941761178505562 3.4122795712032503 6.952787607009895
Li 10.451990968794746 5.566245685172093 6.04509894331956
Li 8.671112826679506 10.147883812895344 9.970228905022767
Li 5.771420858539178 11.180763600538118 5.430914531583348
Li 5.518164031553507 9.837620540512784 2.6070564165008805
Li 5.822294666984769 6.079258928808843 5.663664141600125
Li 7.172332623429008 5.1806428276793275 11.268958510789972
Li 6.280542164868936 8.8300167150102 11.709974916397995
Li 6.96757790902329 7.891487474048892 9.356152104537522
Li 8.20025222842523 8.029849374390642 2.1198765207812107
Li 8.325633066899902 10.777780732971562 3.6997334282974776
Li 9.235886986166593 3.2719391080169333 4.076813479995257
Li 5.6128494016906965 8.892018746498028 7.128597455785372
Li 9.864695508582324 8.311401130279105 4.902584647561412
Li 9.182581089184012 7.4936269375106805 11.086146438861258
Li 6.320071032138078 5.242603550620354 8.63380875682441
Li 8.281154942921082 10.072474901759454 6.890372045168381
Li 6.897235451445813 8.605670802985959 4.603006048421487
Li 1.7151152888169443 7.633636471605316 7.18422063172841
Li 7.861234178981974 4.118063715912682 6.44867273134549
Li 8.046790428825448 7.06830330123756 6.877541531224533
Li 5.909626295519347 10.961593935027846 8.917933984365288
Li 7.553901053303115 2.6501119925502823 8.932640367725003
