41
Energy = -63.59811517 eV
Li 4.16658470860039 6.813984125775692 1.7224580752082792
Li 1.7926350414845098 7.420431709458182 3.791362976914597
Li 6.404695575189388 8.779032114571596 2.5774674682008865
Li 5.463899032000488 3.6905329168803154 1.7762561356606548
Li 7.077673828613332 6.009334630390487 0.6339209959442447
Li 4.449191919064662 7.756770522877223 4.47194646027498
Li 3.6352889575321514 4.856735935734024 4.047443559965428
Li 3.501597244868233 9.86895626113505 3.0239548612778355
Li 5.75256882862462 10.341487353926706 5.373859819472818
Li 2.8095758650389553 6.402986213948683 6.600561317383731
Li 6.388345692067559 5.8018966595064265 3.318822742035556
Li 2.7578872559326606 9.417874409172779 6.165378462345146
Li 8.921557276994587 9.974526615966376 4.26626416175303
Li 6.135389135914096 3.1936578101278172 4.818218351145918
Li 3.7845552041322628 3.5204156309678525 6.9018978602466925
Li 8.645422089744056 3.995927839206115 3.0806645633474976
Li 5.651233659004875 5.746809483113058 6.073127786457151
Li 7.412672812289505 7.902153921016879 5.26580298295398
Li 4.374179443813872 10.71323087483327 8.552188836877617
Li 8.808956133000912 7.085785421634536 2.7731795507053976
Li 5.112152547294739 8.298964655006118 7.336924266553581
Li 10.586003400399132 7.125512134593905 4.931762009520764
Li 6.638756895119151 3.6904367354014402 7.733670045896493
Li 2.941621070271847 7.952704785255025 9.221774792890306
Li 5.685306674969272 1.1146445313519844 7.246744501687984
Li 8.526453743457335 5.184873974207782 5.678311255956084
Li 7.274028723213911 9.939708900541737 8.117459283973902
Li 4.748705207992635 2.9943540214880633 9.815294255367027
Li 9.586655586543749 8.837389956934938 7.024469582541689
Li 7.616950756184414 6.699851637066352 7.994657936002132
Li 8.597049367465196 2.2212713630526335 6.211522966690962
Li 2.162363719273934 4.836335856356906 9.280143966451742
Li 11.037603065998566 4.096514221062018 5.468166666093163
Li 4.744683471132501 5.711331361438772 8.779116835092918
Li 7.712386296401283 1.8128853437151478 9.439794355893248
Li 4.14540392470322 5.819774455113122 11.428127355069321
Li 10.830664516324148 6.394920969306826 7.697646830167579
Li 5.927478966799899 8.086083338438193 10.12526324352549
Li 9.3280660916995 4.154561360156782 8.424483954760845
Li 9.159338465622538 7.781782309743631 9.973085750376677
Li 7.127607859790761 5.059037598847385 10.362063481278826
