47
Energy = -72.85960538 eV
Li 2.0040488451246983 9.277471031451421 5.226199115416802
Li 4.53205469505097 9.18244952258989 3.4924966552379084
Li 4.445038919328271 10.818606457369256 6.299761133875996
Li 2.763281257618812 6.555734707870957 4.091358257653908
Li 2.0257168676190505 9.392311053646383 8.217087537883579
Li 1.33817798488705 6.621227928495757 6.757112158259807
Li 6.515307886413217 9.014914934174024 5.34291401470873
Li 7.182585334901793 11.596602983470556 4.327287282545658
Li 4.043845367176962 8.027021785581656 6.738164977994589
Li 5.278179761087487 6.545680434149584 1.9946765062610101
Li 7.538601948366303 9.09312666686952 2.5938131761112673
Li 7.399762438683136 11.015242237539297 7.422040959331144
Li 4.957614346633864 9.516192416275768 9.156340190485974
Li 1.4154007397663795 3.8872844555134596 5.059860182519827
Li 3.369071406048191 6.66210323609213 9.077604393306592
Li 10.160103863435362 10.800000828156547 3.0655922160979188
Li 5.472297324313077 6.564633876006096 4.842378707228786
Li 7.812958080709498 6.421733433054078 3.381804263830288
Li 9.960342099118318 11.936308215646765 5.9929622856982645
Li 9.15161217255681 9.459011573114637 5.170703033473104
Li 7.338136453766096 3.6396636946711554 2.592298316041358
Li 1.7076719751234337 3.807387071296924 8.120124327314835
Li 4.344182882973874 4.045205454145616 3.584324798131732
Li 10.467483038231888 7.575710847102586 3.6248686585366148
Li 6.696644799866497 4.072849497467238 5.26876164282249
Li 7.077683009683774 8.296766975844854 7.930630943312236
Li 3.6796222687534796 4.944555861810009 6.51999051921501
Li 7.97034883771381 9.552178332095579 10.283653794151855
Li 8.427869481412664 6.774299784895599 6.032184616137795
Li 11.920709078212704 9.652889045631126 5.438286201595936
Li 3.555815401909983 1.2053532095457615 8.579614337452076
Li 6.112255518397284 5.675969184361754 7.716322622473183
Li 4.477685904993304 3.9276739755169348 9.463642874992376
Li 3.835412232222927 2.308184755865138 6.065505355575533
Li 9.899128384553117 9.293238671110691 7.831155263198975
Li 6.14539164500053 6.870516734744281 10.366170624270532
Li 9.044687379716688 6.677808696886282 9.177886802892996
Li 11.073094479323709 6.687902272611754 6.598645069975575
Li 5.878660761179212 1.4099324485526747 4.300820182069194
Li 9.725529269541626 4.541838520684795 4.5327328938479505
Li 6.2447914535158136 2.6102727686038887 7.65210020825016
Li 7.452452955274949 4.066009238554662 9.964307360189787
Li 6.126995002328658 1.2115100804681669 10.129817793281429
Li 6.184220585321478 11.936308215646765 7.196558428257103
Li 8.898376967673984 4.283476257822672 7.404946229148198
Li 8.432183701834612 1.8410187177366357 5.579462886268853
Li 8.70005178166432 1.4619303970534185 8.604880945254447
