48
Energy = -74.54956218 eV
Li 2.0677828138594374 7.083068857581801 3.2474625672401283
Li 4.956635627933936 6.093060864921423 2.602823507059157
Li 12.073012992723765 8.104168512747108 5.376317274714329
Li 5.80073547069504 3.59870193025775 1.211439489475936
Li 2.9748259642709654 3.9511267454901504 3.1065104350898975
Li 1.3727626865295317 5.429829725353591 5.634118101434904
Li 1.1146531829791824 10.4699537587621 6.98020274618582
Li 2.59776681478983 8.42787714551268 5.794292002922554
Li 7.108882025236461 7.8009982898723464 1.8187416018727396
Li 4.780941747446758 8.769503969961853 4.027241103409586
Li 4.834850176966825 1.315377705317071 3.1793755249280746
Li 3.7825100767419846 2.9834476427148804 5.908695200627975
Li 7.954416952198527 5.096196548553246 3.011655425858448
Li 4.366118314104481 11.150076844866417 5.99005439125819
Li 6.946822218146292 7.141647210466756 4.763120837123277
Li 6.4940971868945585 9.560578674322409 6.7348672381513595
Li 4.024279369551677 5.872052987817757 5.145872157591456
Li 1.4063567696476524 7.5052885852820195 8.008808152055261
Li 7.560735503990254 9.928754072885146 4.008643425628303
Li 7.9657920010936 2.05885471879996 2.935302485074092
Li 6.025889884664092 11.552893302443318 8.68571201419913
Li 5.799895034007366 3.6744742065437204 4.004723317153573
Li 7.966383751190705 11.841401743232874 6.360695058649776
Li 3.5736937020446424 9.67455593482248 8.46856612717338
Li 9.799177465282575 7.514018334714992 3.3150443012329203
Li 8.598152331366531 3.3676403691273595 5.488777227939372
Li 4.79514567205441 7.404592501781383 7.396745504063049
Li 6.497316910126838 1.5071243739403086 5.799421717677776
Li 8.731068876092333 9.767472410674019 8.729831244278689
Li 3.4575907979338636 5.0314723798367025 8.056606032151786
Li 6.200317558830332 8.629230681730583 9.740809466887507
Li 9.466683541864237 5.957918802241768 5.63446427199806
Li 3.5801586727534658 7.02681906324058 10.265644785167217
Li 9.50984250989578 8.892085443168599 5.999082335500916
Li 6.401669045267086 4.9056652635563385 6.450797652549039
Li 7.75700934859861 7.216055140831401 7.6976860497146955
Li 12.073012992723763 6.773790753323854 5.3400056156265086
Li 5.918803285347388 2.9500787340443915 8.377378796744994
Li 9.000114790535472 1.9886616127011045 8.17023489265015
Li 10.79167609966837 4.3130196666492004 3.6796289858052695
Li 8.637668616420395 6.706374938142324 10.418462582291832
Li 6.005033056769243 5.63637404684341 9.470126406951701
Li 4.246195941117227 3.84822684942229 10.81172524755315
Li 10.648228432771552 6.889616324798369 8.14059699627193
Li 11.230547052384438 4.028592951029041 6.847531643116996
Li 10.695374274497215 4.14986171325086 9.945031682972989
Li 7.673853695544565 3.5944811016449556 10.75958031616811
Li 8.639535278172781 4.638434469196022 8.260964552286017
