47
Energy = -72.85937887 eV
Li 0.36423972937060134 5.3979168522816945 7.0862533030061945
Li 0.41359807386207176 6.228681793244256 4.003834801866792
Li 0.6852896993217995 3.0173953610195654 4.912628361404328
Li 3.082008528945021 7.66294005673984 8.759599265362203
Li 4.097112771062789 10.251250688993887 6.965726976332088
Li 2.2650188883787608 7.784222255779285 6.0043138053806615
Li 2.688457459470646 10.096945027914266 4.057942619850926
Li 1.6781539873632083 2.4271843734874636 7.650649132387806
Li 5.533553432490059 11.646637911374746 4.348348452926184
Li 3.113317751243658 4.862593809010345 7.992398996969314
Li 2.391773169070751 4.271793531838964 2.679557932557955
Li 6.117231037662336 8.449014569742422 8.463530210078172
Li 2.4837407680384906 5.001943795022151 5.406727722955855
Li 5.309436014467362 5.666009642332312 9.626923581065737
Li 3.3064925721751615 7.154210006477728 3.368113096266759
Li 3.8891161653219934 2.4562917687793075 5.702897454701248
Li 4.95922383806426 6.69228220635609 6.5350469971075364
Li 7.331476777421516 10.618870153660898 6.559397211827053
Li 4.9842860236946 9.356067142852591 2.0370441235174095
Li 6.438408593924604 7.152440153052368 3.209590377388022
Li 4.41491841372983 2.453207373701043 9.076977570298668
Li 8.83037143004617 12.307474806708663 4.713410344216403
Li 5.106336307762992 8.937902872643367 4.859413271022794
Li 5.857497818864063 4.075107578088496 7.108279840406928
Li 4.796450260643937 5.632113583325783 1.2810771639885143
Li 7.7008152942914965 7.943638717643735 5.880633287982006
Li 4.983918713650182 4.865672545133627 4.184415741714626
Li 3.6839839576868254 0.04940289554357332 7.216466156485193
Li 7.848306917819014 6.858344749151333 10.761731230166417
Li 7.760039898461189 6.039947955689589 8.109250527017839
Li 7.767228610383074 9.809506957781524 3.6265624281062245
Li 5.737756592118842 0.11257170120763885 4.630325896889108
Li 4.9199330857242405 2.5015180269629016 2.6448432851166817
Li 6.949211970777165 2.6259222544755967 4.734481601844047
Li 7.430223301086556 3.6147490674877063 9.706963388599833
Li 7.675006592185752 5.3318570605062146 5.18070971676431
Li 9.288897822673857 8.450378023535746 8.387041924947646
Li 6.525785677413204 1.2749431757935734 7.3396661964038366
Li 7.402042133757879 4.39730862380739 2.357747995535128
Li 10.067593749536844 9.524215979796873 5.4929425797976545
Li 7.828342254113083 1.2920675165138333 2.4898676315453505
Li 10.13072566971579 5.4594194360868284 9.283880099535702
Li 8.81136154609785 0.7055036443655199 5.33244532827152
Li 8.83366674506248 3.4375862859532615 7.033023552947717
Li 9.358128615292838 6.954136890817102 3.420752406399004
Li 10.182448806615556 6.274832967460118 6.32090620147023
Li 9.711450556878718 3.5920677414170257 4.101997413320888
