43
Energy = -67.03406116 eV
Li 3.3789200881194867 5.384708088542651 2.5646701017512914
Li 0.43309391043349144 6.012495720126436 4.330897252612084
Li 5.695891149190024 7.845720980936771 2.298966678030002
Li 5.2582089218891 6.085302418365469 4.479939975774943
Li 2.977384286930918 7.885172364083292 4.318089596366297
Li 2.7621281517810394 5.059523788471294 5.548890870496662
Li 0.505507016665021 4.394367295067912 7.021437618815704
Li 8.138347270745921 9.91021562467523 3.470449298399619
Li 8.89371711547284 7.377826287194434 1.6419837116908718
Li 6.849910686618764 4.922667065562574 2.4329834554332996
Li 5.806844978112292 8.98423421500248 5.077330501713784
Li 4.991667587361249 3.191025945573765 4.385801771611732
Li 4.333852365309392 7.251335518896981 6.916608661546614
Li 1.4439946636482517 7.310856798536314 6.954428608861105
Li 3.3851868949035393 2.4819979778271346 7.178376978780147
Li 10.812383307223792 7.927071626677159 4.260992217012602
Li 9.96515370240529 4.97594550803244 3.5930547290391335
Li 6.704980472754534 11.390065819306551 6.561866646672519
Li 8.189979722800954 2.2346135832044656 3.7963080687082815
Li 3.668498073797955 10.012008738300631 6.933910878018399
Li 7.986656453859629 7.149455049927612 4.129649577244966
Li 12.47386035858494 5.5875382016268915 5.7641128968269495
Li 7.659969736078122 4.432480149244849 5.245921971669302
Li 9.874900998226428 6.17317674720724 6.3009572754825065
Li 3.7897967097662915 8.239789617857324 9.502991161847046
Li 5.28503023440233 4.482037063370618 6.936851947187905
Li 6.341106170176854 9.042738875335706 8.058373537064568
Li 3.083669065564665 5.212847696237702 8.68304279538546
Li 7.082732024065571 6.731666621077692 6.663222777101366
Li 8.778867357376773 9.08050398800415 6.326112454308831
Li 5.62396647124178 3.3732985796926998 9.525868014147255
Li 10.142870328677978 3.233691364271804 6.179892814959698
Li 6.79180028541509 2.05347394671499 6.740897723809483
Li 11.075303685638215 5.218304961358422 8.606222433477539
Li 11.56698108078414 8.082158038159614 7.3778622555506255
Li 8.163928205194532 4.437298123272722 8.17267381067593
Li 5.407699530556546 11.115570856473544 9.47206678935984
Li 6.692851570434396 8.426572923843906 10.851271905070996
Li 8.85052883160326 7.383859871930592 8.88575317260473
Li 4.7890446964643765 5.845044723358566 11.471134862089386
Li 8.535443647588595 10.468045110224269 9.055696589395332
Li 5.993705501928441 6.262894877371214 9.138174511042182
Li 7.9514151355385465 5.3578491950230465 10.993500067185261
