47
Energy = -72.39106312 eV
Li 6.685263449428493 3.653084368104512 2.704769173023679
Li 9.035431121246848 7.9307968221628515 2.8779427077370614
Li 7.45957478660307 6.006963102276816 0.7620576672704349
Li 9.380657928175657 4.82580029669782 3.0952020054787313
Li 11.782897893277953 6.7225163336857445 3.999870192407636
Li 8.99500065430772 2.5469001583346866 5.236000884752465
Li 11.412160746791807 4.150531241578368 6.252545720287292
Li 4.144749669634598 4.015129466503172 4.440999160087555
Li 6.8422884446588155 6.464895924141894 3.4027097216833013
Li 5.928766623290651 1.8564468658609972 5.205848276547911
Li 10.05731999858739 9.037480449179801 5.5524377834153515
Li 10.174753889676024 2.149817726564824 8.559541918743243
Li 4.434504106434548 6.249376025396349 2.2466248619957376
Li 7.069913085532002 4.522388759929887 5.492710388727023
Li 9.544867249023653 6.23824559053787 5.457598123480734
Li 11.820805663343947 6.942281211750327 7.085401737359494
Li 6.089231201988855 8.854808850003034 1.6758212480390158
Li 7.220433485437505 2.0981852468678617 7.744080659115616
Li 9.196809521068637 7.42420737203172 8.200482843746581
Li 3.5186708044815926 1.7206574141568163 7.240002062347533
Li 8.958349369464786 4.457706690209084 7.580419928175282
Li 10.729252628504286 5.063496435298655 9.501667383701973
Li 7.274653994061658 10.221040898173104 4.328610834140684
Li 7.825123161401605 3.8341586276279163 9.986631923417004
Li 4.489167662781245 11.293544577874874 3.279399429315619
Li 4.996603865016457 3.9516865314723866 7.596784224014509
Li 5.20103440749843 11.37909797849066 6.292342299047669
Li 4.833101136259339 6.347044791824081 5.683430424384359
Li 2.4091329290821775 6.859926733220397 4.548239638527349
Li 2.8186707312452914 9.026932039369777 2.324479231748432
Li 5.140181874594592 2.1626873582416177 9.851013703276939
Li 7.370975869725688 7.863656833160429 5.711054642260605
Li 2.1993910172513718 4.450031805227332 6.508122366565078
Li 7.948447546557681 6.750251558161932 10.758787654039418
Li 6.684609453540612 6.238675029162578 8.048131132270662
Li 5.17446262961683 5.3172092248406635 10.274043394558765
Li 4.866156347524212 8.716179295788633 4.16047603241268
Li 7.638789994132818 9.941603420092855 7.677656962521557
Li 2.643330312759183 4.03967217100627 9.435161331599527
Li 2.7378455461397806 9.707315084056427 5.641696689674458
Li 3.3714601014202628 6.686670181370108 7.99826959945257
Li 5.093321083083772 8.874552705579385 7.131835184780512
Li 5.497177923022116 8.281072474236215 9.837943141575128
Li 2.8806224706889787 7.095996460310993 10.900872125998381
Li 2.9815006505612462 9.576111443060636 9.022501805445236
Li 5.362091747373455 11.144771810731015 9.375242340686345
Li 4.094245577233323 9.669186663004936 11.943537843990754
