41
Energy = -62.01098324 eV
Li 6.7562478334078335 10.947053035298241 7.232712975726715
Li 4.60516490550729 9.06672258515265 8.796930531242952
Li 8.639839248465908 11.19448983923714 9.531603976871839
Li 7.350071853971305 8.441675475525646 9.020365594842918
Li 7.985201613981015 9.17216532671173 11.704695337762598
Li 3.8865681632388354 10.368712236369928 6.029276493683203
Li 3.123934700883677 7.51077508060897 6.520915462406684
Li 4.5983201743530495 5.469216137989173 4.99362809260548
Li 5.400095726812023 6.201109308682682 7.730336642075101
Li 9.448536166021334 11.935583988913443 6.271623231599488
Li 5.77707101195627 7.001316351086608 10.84504233935278
Li 3.162274176333245 6.079285306477414 9.294475444896378
Li 10.649713741647275 11.165330230117194 11.703820454253666
Li 4.571874942649534 8.296093943622584 3.8947383687460997
Li 6.186365158906787 8.52941723769167 6.16050678099701
Li 11.427467125330526 11.189302786659333 8.582061630982846
Li 9.383416462464309 9.320247321447637 7.336280267168313
Li 2.1952631370368545 6.322534631087373 3.7837285857828116
Li 6.719800783973846 4.5714529028736814 9.609750295952741
Li 6.30178673822407 10.821197934174586 4.200081738647995
Li 2.4065871290992025 4.399967730539843 6.346491150200488
Li 7.223788268605077 8.06020676350851 2.5552858020393923
Li 8.414136787183967 6.543017148428634 7.281608236023902
Li 8.678496940143578 9.460769978132994 4.751745068432865
Li 4.324781971403952 3.4004554480270364 8.381465823730496
Li 10.371159182985691 8.898674218957852 9.966144865814817
Li 11.648317176946136 9.55152057169656 5.903867358178497
Li 6.9559183339444175 4.108676107623964 6.653676063155485
Li 8.89478544745657 6.415784580102806 10.2537548186857
Li 6.766423258182585 1.820959410507605 8.32057190563872
Li 4.906488632671983 5.8657417431327605 2.2308195046298636
Li 3.324433157376906 3.446241064380501 3.427833344740843
Li 7.183995739925099 6.380683328299806 4.709435555737792
Li 6.640663079137353 3.7518973236032083 3.6065608885591427
Li 4.870244324417708 2.660779039843603 5.7140775800680395
Li 10.057680090164585 7.004607937042126 4.896353947654554
Li 9.313698714753208 4.084464835587336 5.268249304552115
Li 4.226912030155735 0.4471765182526017 7.162016866734903
Li 11.082456451173579 6.882956685411042 7.7634775745106355
Li 7.40923011549921 1.3798762782664935 5.505830231090579
Li 9.324267435605417 3.912497783100835 8.272176352431979
