40
Energy = -60.26056312 eV
Li 11.146075064450622 4.525154605882685 3.523241640864665
Li 11.737487738743315 3.6617392154228114 6.616938766578318
Li 8.213037700366757 5.23424115584175 3.143057837429264
Li 7.386834067656809 7.382001769155146 1.2054858126614414
Li 9.95610509550379 7.480349270540508 3.2238741222245686
Li 10.192801387075743 5.9670503414385365 5.816567777517951
Li 8.98829773707306 3.4453158430313087 5.391179461010558
Li 6.045546877488105 4.663537283779122 4.955845901978813
Li 10.198193148002241 5.349177941866451 8.598956541534415
Li 5.438426568945197 7.308344441661543 3.4139743987779836
Li 7.525963836636283 9.339835244397285 3.3505544856577743
Li 9.003624393933379 2.730176340590312 8.241521622743825
Li 7.784212307019389 7.136789325317454 5.221173758802251
Li 6.197759080647127 2.274410455711295 6.698547537059475
Li 9.642877864826017 9.176969083554356 5.791008049158361
Li 3.2637662021466034 2.9539737335074046 5.592129201410151
Li 3.5546995778687607 5.856322254279884 5.416421478762394
Li 4.912428911269065 9.397683497321314 1.526618495174454
Li 11.341162608989926 7.93662633346423 7.8038461323548445
Li 7.481567652091098 5.033639572051343 7.38152394661576
Li 4.544993230075329 4.479765809898715 7.59987082344858
Li 1.8109460987254444 4.495463372809183 7.819817973461753
Li 5.025624929166249 10.292426833275453 4.370506875419474
Li 0.7654577132814981 6.248983587240343 5.5848894521425
Li 8.356194913555289 7.767965711115723 8.218531830827166
Li 9.03284271627921 10.278215698961679 8.973324652709051
Li 5.399021706885169 7.893373537823625 6.358288076124727
Li 2.7683674943114576 8.518293418898635 4.5580509187676315
Li 3.589444265723991 2.0658105408231426 8.613650937238365
Li 7.094985401872179 10.199066358019303 6.400827647271539
Li 6.240100159177235 3.257927857622775 9.501790393614993
Li 7.831338958577932 5.589558756176483 10.345647246462866
Li 3.6342602696092223 10.186328473376253 6.9489614133990925
Li 10.098479381110577 7.774954778334779 10.549678510487633
Li 2.8081068200398076 7.33363984966256 7.766901470772357
Li 5.573547466010452 6.7699024537163766 8.973306893176773
Li 7.281641178775492 8.468435214761028 11.038162590104582
Li 0.703984019322487 9.109907967705832 6.56778552851485
Li 5.8583730576820985 9.657433613468356 8.844243069466366
Li 3.7315274885606233 4.909419693667651 10.252997553298156
