47
Energy = -70.10559552 eV
Li 6.526185007641088 11.716031394927084 8.864007059328989
Li 4.128890798066933 10.150089563269615 9.2548384120498
Li 7.731804414385359 11.142728225223175 6.289768072108279
Li 6.955923405686431 9.731993164078208 10.951355804068712
Li 4.266479636453567 8.332712732010442 11.385972586573953
Li 2.0098591723142785 7.148103808785542 9.510413998370108
Li 4.91255911440608 10.919139504302894 6.595529652502474
Li 9.219043687986856 10.613261530351483 8.846588436495313
Li 9.04093686740462 10.195000609979452 3.737759590317314
Li 10.544118480454976 10.614787194436973 6.203651697295006
Li 6.202276183721577 10.199303854127828 3.925589277217713
Li 6.902046116338474 8.765342056411827 8.12694376675743
Li 2.661232283815003 8.890607472735242 7.099062432719165
Li 3.445588259452655 10.011537527255287 4.365347398622064
Li 11.02433112850176 8.488087986149509 8.015134634613702
Li 9.281687695713371 8.126780503976283 10.44422825449195
Li 6.7409391128125575 6.776951760264274 10.548727899714265
Li 11.568989325928976 8.149160766793583 5.10955491928968
Li 8.600832318173982 8.202065098113684 5.970786030645204
Li 4.633703678896283 7.204458238527358 8.608494074458745
Li 10.283617571130632 7.843795040719706 2.5372988895248945
Li 4.617194593872851 7.8964978118421 2.6405905723815355
Li 5.28315845497103 7.80966521942865 5.708878122436606
Li 4.209916548609185 5.588115493971421 11.380044912353798
Li 2.1292865721213623 7.523330028744066 4.419208986978062
Li 7.432912482857675 7.654126323653082 3.2636133525047457
Li 11.546380091132546 5.763014487105087 6.746031637920019
Li 11.470357355266882 6.4028827221281635 9.814777011085727
Li 9.058176228590089 5.118385072556759 10.877231553181726
Li 6.791128455789216 5.406591210306847 5.274846364876746
Li 8.832073787874515 6.11899927630878 7.977215815743463
Li 9.68471651745338 5.808499128569401 4.555180080813474
Li 6.254196237977676 4.961487326937649 8.055553438554773
Li 8.817292560220007 5.586793426444805 1.7572719016978517
Li 6.447708949325395 3.8534097260196987 10.876765691575395
Li 3.366674315072525 4.3508929248842785 8.9373127010296
Li 2.6638435327055325 5.980999078874895 6.726348483567678
Li 6.017333096379145 5.350535706001732 2.209608088861046
Li 3.867732814358998 5.318926379200624 4.108226817600405
Li 10.912113398395816 3.820049948199327 8.758926703833112
Li 8.310123467729388 3.359430660470427 3.702210076859343
Li 8.262698159666638 2.869186100441505 8.815046778999607
Li 9.674181781399037 3.457289435078697 6.222123412723124
Li 5.38445892157753 2.2039167755674614 8.727585004508475
Li 4.171790031066366 3.432207334803407 6.286467607944929
Li 6.919912146629688 2.4276543139297706 6.277596986191495
Li 5.468312844171254 2.9436826097034876 3.7596294532609584
