48
Energy = -74.74182732 eV
Li 7.284574775730386 6.730374116368993 2.6440131726225604
Li 9.103749152961804 6.345647444629846 0.6443966166332904
Li 7.670280142039387 9.142595919659653 1.2481220327746572
Li 9.884840248059776 7.923142336813043 3.236573521803166
Li 7.330467679694629 9.471099034703741 4.311528112489234
Li 9.366081038349932 4.9069484372153696 3.517994767068829
Li 5.585249768696793 11.14697101877428 2.695226597314884
Li 11.078957461448441 6.2096482402494235 5.805437327694375
Li 10.078800458877062 9.030679939508481 6.306078183210678
Li 6.183192675199256 12.145113271570947 5.4902347316815705
Li 7.573541292279434 10.308999149882833 7.300829471416031
Li 6.083562723316779 6.663476778243208 0.15324293080765666
Li 5.473716953959714 6.859038153411576 5.021960938981399
Li 7.105709423459148 3.976194802545749 1.7011652987907397
Li 4.952411792703581 8.338313671206704 2.5600610141156763
Li 10.886285529759073 4.458593723494381 8.469797805649755
Li 8.183647074098447 6.938690407609445 5.447940496081812
Li 6.480768280383923 7.926554027071167 7.771757879566057
Li 11.930764976652108 7.502869985046338 8.50355563120902
Li 4.7172721515526 9.526704334616593 5.496638149086358
Li 9.557934427839207 9.253970516819544 9.403235390846417
Li 8.766753952673302 4.337479885374179 6.407600592260074
Li 6.687268821672531 10.141742775482589 10.238808730448532
Li 4.739971974023849 10.86648220376188 7.9427498258454285
Li 4.529244568312661 5.352903622872116 2.6531425224105636
Li 8.080166994648625 2.056152374582837 4.518963962127181
Li 9.261602819696586 6.82966498061334 8.08407055117138
Li 7.315178043602553 7.379065229807282 10.47150120744154
Li 6.227756076382028 5.092926156855855 7.448318561115857
Li 10.042123179845657 6.424130774879283 10.921962480583518
Li 2.6619688718462924 7.319499624439998 4.650630719115997
Li 4.351413335155451 8.506371704962845 9.606045199054856
Li 6.5637158183726205 4.362113393327996 4.5142477344351395
Li 8.099642870485965 4.6800795097141155 9.493865251918855
Li 3.8045060134386977 6.750110832902749 7.3696186422316305
Li 5.151461255451926 5.729439978369663 10.0098576202705
Li 2.1270820878684957 8.897916921197291 7.434958606416495
Li 8.404876964788718 2.1402010679090093 8.014065900341226
Li 3.718777366575033 4.4687908660322435 5.490596640214267
Li 6.893150995369992 4.956260321436021 12.185494608976724
Li 5.01867936137818 2.2792304647723487 3.5852294853027384
Li 5.847397524323208 2.912580759439679 9.842436313393765
Li 4.7935554160060585 7.28106286759973 12.276321808488953
Li 5.754185571879429 2.427074554539709 6.625018264519246
Li 2.3339762056800093 6.438973628741592 9.988048383112497
Li 1.225208987017567 5.795506822878577 7.031193107853919
Li 3.404401932262234 3.972780455483749 8.477439840027282
Li 3.767241094485783 4.285831984157299 11.815442527388738
