48
Energy = -74.916523 eV
Li 10.102446032197575 4.622659189494782 2.02902799711843
Li 10.371090015269953 4.4826278823240875 4.962799126867165
Li 7.263381728543242 3.03536367151784 1.5879142717499424
Li 8.918723287012558 2.122516891267764 3.9946745867052877
Li 11.403839725919676 7.180444373543901 4.8005968860869
Li 9.234067066052564 9.587767826658487 5.4274563698883345
Li 9.677963004503413 4.913893146320375 8.00430443572082
Li 8.975530937395137 7.491934961272101 3.004972498167558
Li 10.569040885161753 7.649395051717177 7.747291487283102
Li 5.813309568402105 2.724892681467555 4.43276269840423
Li 7.841121652924366 2.943550858270995 9.078759630644194
Li 7.927529367287343 3.661605487988875 6.177172055285519
Li 10.263259221268846 2.1851881711618164 6.939488669179746
Li 3.682015759307786 7.14109352693831 4.424058968775338
Li 4.746763307525071 4.910133726609437 2.590058467330839
Li 8.398506054973584 6.41151612142857 10.229875259148068
Li 7.757149279220406 4.964770241828109 3.4514361685973833
Li 6.050500556339882 10.748691898491673 6.133933234497701
Li 6.753250830146843 8.390203138820636 4.9638194301305605
Li 7.060350187243203 1.028030795651616 6.7148486262067575
Li 7.435791999980721 5.920195792462024 0.6886573160715339
Li 12.290816609351328 5.038984690511852 7.017928779426567
Li 8.782253185804594 6.65321887189437 5.8350054304090095
Li 7.2778879326824075 10.187481411815948 2.9143514854922974
Li 7.653361869852699 8.550068608785482 7.918489797775589
Li 5.12052765377793 1.3080294396216727 9.298200006981956
Li 6.862206908456047 5.7958650561341845 8.04203024631648
Li 3.5461252189695194 4.402332755145467 5.534126413024895
Li 3.6468494602436707 1.5065905486269595 6.443460136410544
Li 5.391051492017923 3.3376245719688407 7.499940880464855
Li 4.299945081939083 9.740027418827305 3.7388660744953355
Li 5.48145732420172 4.4638418805759565 10.218101981225459
Li 5.975462794050306 7.456455285984709 2.6018875891357838
Li 0.9937328824954627 3.937832582228828 6.414681622809801
Li 5.399550991096948 7.610249777441595 9.842868642563253
Li 5.964272418909468 5.681558504218815 5.452917934562605
Li 2.725765360632074 3.2701274351116814 8.790742097177414
Li 3.0982694486381175 7.508805819824755 1.69826054405397
Li 1.5493087871713296 5.4634948744486 3.596261574727119
Li 1.7184943766530418 6.892981913756562 6.389509116026033
Li 3.7460964177284533 5.791779443244502 8.059028722012801
Li 4.797518787798009 8.065243866616443 6.93775074663934
Li 2.674216788572811 9.748582350165293 6.261916946112746
Li 0.44885360835860105 5.9405855429922925 8.630460494828775
Li 12.290816609351328 6.284908853336346 5.594049321030849
Li 2.4094113746966355 8.296097480485582 8.912059655610372
Li 1.0590161443490296 8.47507744141657 4.055807255410566
Li 12.938868419861336 8.760787168970541 7.2044239292770245
