49
Energy = -76.42144879 eV
Li 10.031037395057579 4.315834704869913 9.10054331693341
Li 7.9373033634527035 2.8611566812208844 11.308282387579528
Li 8.471767571795102 5.949087523817967 11.351593975761164
Li 8.585754134995678 8.956046649580813 10.796790616690327
Li 6.169965629633772 7.899855787358707 12.496624204888622
Li 10.500045563078904 6.3239591765398355 5.863440624327665
Li 7.971847562835181 1.7997098886671448 8.391081975204942
Li 5.557150162189125 4.991945606357303 11.429942775854483
Li 10.126421958328027 9.396832654013785 7.497759049004573
Li 8.583650962159368 4.2089704398085654 6.483672817416942
Li 8.817619036675138 6.981285091448732 8.278444242495302
Li 5.245414457247579 2.44060930601549 9.6550104918488
Li 7.260501164113457 4.507233412815388 9.197984915554434
Li 5.129867319192183 9.925815246797793 10.333197965521775
Li 6.435326634518187 7.370183713060385 9.8055481702985
Li 8.28467155747396 11.465618481789011 5.693506968979585
Li 8.059583831351706 6.587687039022766 4.5269883482506215
Li 9.277722404576494 3.9872559422710543 3.400257436850459
Li 7.370461594292243 10.010714330281779 8.421042791574857
Li 3.5713463093876534 7.324712986487863 10.396036972456548
Li 9.981796755724522 8.962818014246198 4.465281493508908
Li 7.56904998237218 1.6336729536537025 5.174016285206126
Li 6.522201243725709 6.169489199241209 6.868856843875732
Li 4.501032420101148 5.296400166056444 8.545862022613214
Li 5.292086711378305 0.4983066793265847 7.212364568566125
Li 4.785733184420622 8.322285084840656 7.693126866289311
Li 7.57040508940531 8.85949819377432 6.045010736890053
Li 6.646685208319595 4.229071612865198 4.049177713696064
Li 2.4813874121088126 9.563424313888971 8.469023811810827
Li 5.909863315647106 3.200684057914834 6.9097752486634905
Li 9.240914434835293 6.896680425763844 2.1358942248057025
Li 3.1111271791027266 3.029084918766176 7.258003072239561
Li 4.925771537311335 11.036486275835768 7.229260594737301
Li 2.4999266725634275 6.7073146574051 6.785124731808395
Li 5.5861724187354165 10.693678710561517 4.456452767015235
Li 6.647622817055027 2.1317693059934864 2.218297563984822
Li 7.520316121148684 9.294967097741008 2.965711061327735
Li 4.369406751679772 5.179228565140561 5.313504202595756
Li 5.998554816027855 6.810487201119885 2.5414781231346377
Li 4.501200330918747 2.164687760155573 4.623621442968675
Li 1.9522963058496563 4.232175263058826 4.5751886734446625
Li 5.1601717254286665 7.9076114516144225 4.88473103362657
Li 2.894905369184666 9.433335560434848 5.2858770355099045
Li 7.128608813879167 4.884915133881443 1.0115978188624974
Li 4.323607550273172 4.275091115529818 2.387449078033709
Li 6.9568323711304 8.089730837551368 0.2182059005689139
Li 4.534087715152016 9.198942101377778 2.030540764854429
Li 2.9871802399367198 6.861537715686322 3.306404990279189
Li 4.378198441834402 6.487006324220481 0.2903896084046335
