47
Energy = -72.70207233 eV
Li 11.353389424870171 7.288566304954079 4.202560017394871
Li 8.954396387234103 5.689249503286588 3.2336886722401506
Li 10.551919257185384 8.352536477444126 7.056718129893209
Li 9.154072164016977 8.536401977953432 2.1271296896765044
Li 9.557638155188588 5.656314816813529 6.031130139485379
Li 10.97578112338717 3.710382771131819 4.426636769432631
Li 8.091548898684566 10.271963182245862 6.811226615971374
Li 10.288231322668237 10.3404786197596 4.489458248131212
Li 7.948303381390903 5.7643837950564745 0.6411510628268614
Li 8.958871455409046 8.39648494384924 10.014150345000823
Li 8.961552095113024 2.8627120794600507 2.1227589156086943
Li 9.780023804764221 5.538376690938747 9.008991508142254
Li 7.873030314721671 7.429186904132351 7.477562549976194
Li 9.609329381891559 2.869833448357926 7.230422098458473
Li 7.175180678928882 4.498611402519748 7.351320216421963
Li 8.699943453996168 8.191443958669197 4.804694931769
Li 9.478715835626367 0.9479550817925273 4.67619426313544
Li 8.095437010074459 3.2733401775839117 4.798345440911126
Li 5.943594867349086 8.450483444209548 5.805816575372929
Li 6.321126796822847 7.450256314093597 2.84166706766009
Li 7.217956181965617 6.1441761180615675 9.818471914410082
Li 6.978196505699789 10.30961765998459 3.867689650060523
Li 6.322131887308192 4.2730268649447725 2.6497381709070202
Li 4.776295038068943 10.958105568333274 6.203879103628714
Li 5.988010286372325 9.174020409407088 8.882253287057612
Li 6.55427832391825 1.2689171048605103 3.573512616166207
Li 6.690475809600645 5.897995281509608 5.077799711375155
Li 5.0976137746033645 6.4206958044870435 8.208443700965706
Li 6.253712645649487 7.7762006509623705 11.713756712417736
Li 6.8993831366299725 1.5689539157113257 6.77051335248216
Li 3.6625303235888746 8.727922652151374 4.236655515861829
Li 7.499434714046029 3.240191338218164 9.776415774277002
Li 8.413221621334383 5.473484416244316 12.071520967281396
Li 3.6071789066148447 5.633393992746734 3.251383839891595
Li 3.4519683072857514 8.58820095238092 7.232025944848512
Li 5.043010294139595 3.4491362869924536 5.1517885812795114
Li 4.007875176516883 6.060947452630482 5.790555846414591
Li 4.643237943474247 3.5275817487729024 8.07733606514606
Li 3.5443522095966564 7.678854113714566 10.145373280304488
Li 1.4947654161579391 10.188654650745688 6.038588849827262
Li 5.0550503010259575 4.970335613664834 10.919827426932871
Li 1.3275963968024878 7.088920630395577 5.615105138954618
Li 1.9991992126891887 4.0520593793719675 5.576101262053521
Li 0.8353891247637827 8.110174881278393 8.295116771213499
Li 2.314775376625966 5.558199273711452 8.14091307346971
Li 11.353389424870171 8.503890869061312 6.330616762034658
Li 11.952107693289612 5.540164504243048 7.215986081692448
