48
Energy = -74.0980502 eV
Li 11.871425565399319 9.291689384056719 8.874089637320083
Li 11.703291120126911 9.293184598340588 5.769905880345134
Li 11.881249958980693 5.943544572768111 4.721458583053886
Li 10.87727313945024 6.815615896410745 7.369036041975099
Li 9.008800129788126 10.379398576909631 9.94779034773806
Li 10.571278942108743 11.738281429300644 7.527486891211945
Li 9.756489235275392 7.335603393449884 10.13009055410729
Li 11.472101531282082 3.8706121928168207 6.9392231313909205
Li 10.348996570921532 2.939805584735796 4.412512609933271
Li 9.377918387912814 9.222865310195113 7.520330698984177
Li 9.556309041510778 7.827473410026688 4.359295503417961
Li 9.640521258520684 5.232216512966848 2.7974996268303713
Li 9.42003368329576 4.458803866720984 8.930614402540652
Li 6.947594744703484 8.195999614694063 11.014079618582668
Li 8.795670225229872 10.695331455347135 5.1870671120540095
Li 8.981079060680766 5.175339823781467 5.872740580652931
Li 7.394251749071727 11.761527139125837 7.64845012988379
Li 6.434036000248083 3.937755048415424 8.382766223058754
Li 8.30955433991558 2.4396951581714554 6.757638445872954
Li 7.806249248196075 6.718422003143076 8.311066509672344
Li 7.320337316468016 5.217296707566172 10.950657225980716
Li 7.3742082546387255 3.600360922897182 4.09297478482513
Li 7.2340456993099 8.171048671622714 5.892367987637301
Li 7.058643821829167 6.398361840613346 3.477010328194987
Li 8.482757877185383 7.497119933943001 1.3099126813221311
Li 4.419408893956651 3.85978027117042 10.598774386900445
Li 5.8457134800602075 5.656094641441459 6.1227909497863875
Li 5.132185288256345 2.9232653816391956 5.8355228103054
Li 6.42400682346454 9.302814800493225 8.501662803949124
Li 7.028951100446965 4.700513095036482 1.30043141213561
Li 4.3058198924132896 1.7677878322482894 8.320309325381052
Li 4.650309331658068 7.830899465031726 4.288453633011099
Li 5.173272478568187 6.43788303805388 9.366388662651694
Li 5.494844468636768 10.400118561964685 5.635858966836544
Li 4.315293477645977 7.984055200482971 7.182970246782853
Li 3.4812985374523073 4.628837692257275 7.855837380338763
Li 6.925113238474138 9.319332968834066 3.1457228403188315
Li 4.482861197225072 4.853506224588399 3.551386476669578
Li 5.245016365654532 7.239377819690193 1.4637977386220489
Li 3.816478781980995 10.741089663753261 8.027579825752692
Li 1.6848029066549053 3.0429928927238357 9.205932970868782
Li 2.1198157836385425 3.0317312211271488 6.06283137326891
Li 2.3125167183398294 6.002967116485413 10.147229821006484
Li 2.566285364798276 6.187112886239553 5.588499489321571
Li 3.942534537471868 8.807584446532909 10.326678089503384
Li 2.4440431459045753 9.41018665324143 5.480901428198196
Li 1.8111998620601972 8.154465731434021 8.158213484338752
Li 0.5779145776723383 5.336754297171645 7.659565190734084
