46
Energy = -70.71846988 eV
Li 9.564414291931897 11.1345215713603 7.273118281910228
Li 7.147095014819653 9.864917744966323 9.18007130301658
Li 5.065076044223117 12.186190412178991 7.99233397662179
Li 10.186435775902934 8.42287792513961 8.982027862304216
Li 4.08226949274702 10.332484888587404 10.204144193146712
Li 6.797579869588141 10.987100494855948 6.048079285571297
Li 10.896085919583118 8.354894629707996 5.935057923490444
Li 8.83672108753794 9.803718959105009 4.319212445490466
Li 2.352939887707218 10.882081313896228 7.587713515732236
Li 8.262352815075532 8.790807260785895 6.889148622874833
Li 4.970629733213179 7.373427561747313 9.917550959882254
Li 6.471184794276661 6.896745572223004 7.382465299407675
Li 7.932775508501636 6.720154119063292 9.783680778064474
Li 4.774586790122344 9.3765897327401 7.588620456878634
Li 4.073138768737158 11.120578481151734 5.034220204500109
Li 2.374677047064119 8.17111350253607 8.883687957974264
Li 9.412623053273128 6.091504604016932 7.223409720602389
Li 10.40125553773429 7.774348222361433 2.775194660149485
Li 6.265921309945069 10.633094706413504 3.053335153934725
Li 11.16160977356636 5.546182590554401 4.76140161474481
Li 10.39835793900902 5.180562218512563 9.86391117342279
Li 8.46068323474187 6.79448030786304 4.602780197179905
Li 7.391570379573649 8.001980931044443 2.1072861986233122
Li 11.094258067084537 3.6811178531494515 7.319505927003136
Li 7.799448500951594 3.9233497029085247 11.12684813243437
Li 6.191169065065849 4.6766042714877285 5.803354268717698
Li 5.822743402191428 8.230377525183886 4.871459713319211
Li 0.9282913783395556 6.727031301451667 6.8038610536364486
Li 8.225363880333799 3.6615250912826416 8.175740109066993
Li 8.974501493739762 5.081019311889893 2.370549917641505
Li 4.17019810133662 8.5048270240187 2.6562831814318018
Li 8.923990828027803 3.7547242206362785 5.249692952277706
Li 2.8429735340111115 8.57180975465855 5.600375665590499
Li 3.7659963596498085 6.196552637206854 7.205132266690192
Li 9.824191559330057 2.076332314513062 9.780246920102597
Li 5.754065193046089 4.6685058063396925 9.136348405119966
Li 3.496689229559322 5.9907695340913305 4.435669174358734
Li 2.5288670239675963 5.044723747756755 9.330824884480718
Li 6.059696342927309 5.512631979326994 3.0580987406986644
Li 9.363346289869062 1.1902783178759335 6.931228871303313
Li 6.622129274958881 1.877136528837469 6.177081249538529
Li 4.307946984494562 3.0659979694327717 4.429065359739632
Li 6.793567472724956 1.5466652524899072 9.229135515599522
Li 7.11253527774607 2.725166991205557 3.2771167155371446
Li 2.0295025267754574 4.097633143998569 6.2843521225914944
Li 4.352488411264681 3.006064010489295 7.5385972468168765
