43
Energy = -63.65104224 eV
Li 7.29500114465173 8.407045215817886 1.4131474264846426
Li 7.122760807618229 5.578187314800295 0.8583906927919798
Li 4.618605375834829 7.945508969837264 2.4492733458827485
Li 6.583889214119249 9.46790197953641 4.09368716525589
Li 3.766081692762441 9.156229878751152 4.972316182966486
Li 9.404904567507595 9.228034779892193 3.1507090496270718
Li 4.726193385227862 4.987762785967973 2.433662961641554
Li 6.3644769742782685 10.96834786160876 6.589333358764093
Li 3.762831685208697 10.436894301289259 7.530314094958371
Li 7.031408310886819 6.5570133685996606 3.7348050215737625
Li 8.892169422492547 11.022190160797036 5.281883013043888
Li 8.01016756675697 3.89759010140529 2.948452533681321
Li 4.434715975856232 6.338653204026426 5.000607400882052
Li 11.522577669259261 7.595713386790195 4.262612080771981
Li 5.680589088595553 3.6346288677140115 4.84038908293417
Li 2.7187157793197017 3.933462934145553 4.394521889655685
Li 2.8603721737975465 7.344476643153009 7.180731527031699
Li 5.7346698757329735 8.159225188815624 6.95340738782841
Li 8.574039930372727 8.081528350784486 5.755840416546798
Li 6.333417889727335 9.873796046851483 9.251065273526201
Li 9.613558256204113 6.401618330307628 2.237903274554068
Li 9.646253936274976 5.411550647280832 4.939273245095709
Li 8.4596947012093 2.746892415686877 5.464497409344919
Li 3.596475453486581 8.755709752749208 9.717063740659398
Li 7.027960504541005 5.602447818349951 6.530873229826245
Li 3.833300034064169 4.309411756238351 7.037949373121881
Li 2.290160427538681 5.410732225365596 9.258777105881315
Li 9.000654946664616 10.009452652955286 7.996272547865046
Li 5.1650151865913 6.315673252312698 9.098921390117118
Li 6.518514147489179 2.899667524718987 7.5577058258288545
Li 8.556045650589464 9.337689695301563 11.034208671184436
Li 10.848982436580899 6.997588974808282 7.082677804229566
Li 8.024999313648474 7.355602297200556 8.776283955370651
Li 9.516890929931217 4.3029227912385615 7.596566757527415
Li 5.858220358815403 8.130135919555853 11.496876894126755
Li 3.3017886436097963 6.737939283339119 11.596814960348127
Li 4.717203472969193 3.4776724886090205 9.698593858500553
Li 7.533672558520666 4.597262508547101 9.673155146564278
Li 11.022269397279075 8.581550477814764 9.41980498997939
Li 10.785815181323702 7.6532272181847185 12.087350470751394
Li 10.279167454957136 5.700731231299047 9.90855057600006
Li 5.632822798481123 5.15106231923464 11.869497950389826
Li 8.198789427478017 6.433867557576126 11.818293415912416
