46
Energy = -71.42243226 eV
Li 11.460803232869015 7.777372533051659 7.551372465137286
Li 10.614105395051368 7.330577636190885 4.347391131654751
Li 10.733784140649577 4.826583725064325 6.0902576478415815
Li 8.508631654926772 5.317074280158212 4.291685678716354
Li 10.590468984928432 4.539719971492829 2.7750788404601003
Li 8.958532598599666 2.514288173847617 4.603796732808647
Li 9.56969578065415 9.865257895595963 6.156121702419911
Li 11.104186009003573 8.240631416748462 10.705396284780992
Li 11.148363509743646 10.707903624779725 8.802853214846094
Li 8.520676430680782 6.871510512852992 1.875188394444151
Li 9.49277489539088 5.847396043456602 9.185928420352003
Li 8.895025103723698 7.002258473323867 6.685096410639833
Li 6.381749316987506 5.992704818624251 6.217410417613341
Li 5.927571141451236 6.183428404844249 3.202545054017493
Li 7.55111422663639 3.8380282265908527 2.029140691399331
Li 8.02852816985235 11.525521446889146 8.188030281990113
Li 9.117253704744437 10.599566550308378 11.127530234833355
Li 6.911644061866962 9.117876492575757 7.044424520821348
Li 7.648995651776987 8.276510234244524 4.351013014832381
Li 7.964345471898498 3.843271209049991 7.202401963980133
Li 9.099125489841558 8.900408077705375 8.979718616608245
Li 7.962771465504798 7.568026072612099 11.362124784798823
Li 4.843520594443339 8.103275038107641 5.270359053607983
Li 5.893774298195047 10.903996467997462 5.276125564341505
Li 6.746507359710226 7.188716133090826 8.79113072363671
Li 6.562447269311327 4.80466179565189 9.836615832434155
Li 6.17002254775178 3.5372124270637673 4.600886842024108
Li 6.176314691673777 1.265394525171511 6.343339271946755
Li 5.392532705126338 9.086568119843934 2.574583683038196
Li 6.3266281756102725 9.743081036918728 9.972896640014586
Li 3.060939227329625 7.113953688155952 3.1767595600411167
Li 4.664611155057319 7.19185586112437 10.688538574827014
Li 5.042172441564487 3.6312039830612264 7.481457226801246
Li 6.3203794126724935 1.8986268139978377 9.34095641770172
Li 3.853894337504038 5.194749433681146 5.195337085244772
Li 4.109084325888744 9.360081739973266 7.7294208181554875
Li 2.85722657487888 9.883205476993055 4.549965864902502
Li 4.022420669322332 4.010392892273849 2.550915436584557
Li 3.7426586397886195 4.026740137523447 9.953610636023075
Li 3.344206275070466 2.4236425144588063 5.177954252405875
Li 4.136506114842579 6.402831184217567 7.925695198791678
Li 0.36344486522236036 7.985104849618633 3.62973839540738
Li 1.2846004752340088 4.8547567604587805 4.16334243567089
Li 3.5040289822777755 1.4622041965235397 8.125827107225202
Li 2.0636181282083146 4.304224097657684 7.2711411159409876
Li 2.007410576538702 7.308993748210171 6.007792028392112
