46
Energy = -71.2510164 eV
Li 4.530552818887262 9.701662218977894 7.767267761409737
Li 1.882641390260569 10.362615706208038 8.382434438809307
Li 6.122681555477038 7.835998866171937 4.024698410853236
Li 6.763038292268013 8.527349409700705 6.784224593092563
Li 5.049596638780203 7.119836698537294 9.004339711939894
Li 11.60193232799685 3.4592404927221807 5.544109853958424
Li 5.705556985194716 10.577548890834917 5.0379389724757955
Li 6.4051485584491745 4.9305521557701315 3.8925367868203695
Li 7.946209585876307 7.295870287684058 8.951238844287593
Li 5.87669213852822 6.502647969188203 1.4661716538099498
Li 5.230112731064122 5.953654873842899 6.363857349490648
Li 10.53395296217029 6.3141804864051 8.219879780319507
Li 8.253961314762652 6.269029123971144 6.028982921916001
Li 7.670014336024022 11.285605699812391 7.054470671096596
Li 4.182389767330738 3.369571663451126 5.039072614530483
Li 6.760175335626798 3.2345029526850606 6.276499620297995
Li 8.130479065371677 3.9265490687343907 1.720970503348501
Li 3.9583760466980693 9.415292185657476 10.531562527714607
Li 1.1440199238263646 8.405787978032617 5.468005517919765
Li 3.6308518201782176 6.062503660838287 3.5432900326788843
Li 9.041205449044268 1.3291472660260653 6.032856066395846
Li 10.127973250501409 1.7987961535453998 3.148473494526133
Li 5.682208291052716 4.630985820538991 10.814653503510097
Li 9.633730857651875 8.38493536938061 10.657331196589855
Li 4.9480018210795835 3.575396219876407 2.03023904458791
Li 3.5774301956307966 9.06348681946012 3.0391951929393324
Li 8.749208804091836 9.188609074941265 4.747321199040165
Li 7.001640642612131 1.906788216580655 3.6930384249049313
Li 10.900594770740739 6.587403863051552 5.195438036125531
Li 6.874242450171414 9.915175018728027 9.549043879398063
Li 9.356954022914284 3.783511325941005 7.600122030626034
Li 4.675953341170806 12.24702076581672 8.195483258893034
Li 11.087834858536562 4.649679961928997 2.694211672700071
Li 8.727977320344314 6.583083911117023 3.057708788635049
Li 3.169925556295326 6.4285483271265065 10.963869572454591
Li 3.771502859895023 8.157697197136626 5.672771889984428
Li 2.880296101306966 10.944443621986405 5.695684128069572
Li 6.465519363785409 7.4697511705998885 11.41533807890409
Li 6.917670813860804 4.94919306851631 8.383525550721421
Li 7.040742782831067 2.2639167876386406 9.04852408545989
Li 4.048830179335944 4.1991939920286 8.368277348459792
Li 9.663184520444691 9.010608782242308 7.477091650467798
Li 9.105616486085683 3.8966427264694823 4.540528883661814
Li 8.739568022538975 5.145036191064538 10.557272688350869
Li 2.4186626625065113 7.509756949020325 8.23769472113446
Li 2.3068400800961726 5.533286420513385 6.131495557021966
