46
Energy = -71.44040423 eV
Li 5.496620234195373 3.3296825476628116 10.40194827511176
Li 4.858562500785634 1.2315978325850976 8.194488814060392
Li 7.302226126349021 2.6055601817574754 7.332438854125668
Li 2.6282482611744404 2.808695142308151 9.425185803869953
Li 8.117445109489976 4.189264234998837 9.534628236350306
Li 5.716399537917501 1.2041614610589715 5.02432460541908
Li 3.665625626287496 5.650096132082677 10.07653636851308
Li 3.021601135384077 2.539725600032416 6.245643110077089
Li 10.448251212570117 3.7636956644387856 7.566732339496668
Li 4.740506051229832 4.115901419180548 7.776785326380028
Li 6.707394117068897 6.303196851251379 11.32797321111583
Li 9.493694785150709 6.618338847061122 9.480529262256566
Li 8.650260381251638 2.712218656522927 4.812189656239471
Li 3.7158450360420687 2.9486946228566278 3.285852163217969
Li 1.7007640097258465 5.048372429204436 7.669112723203585
Li 8.395201195854803 5.1950337190204054 6.546808421384173
Li 1.606858342311366 7.751629168245512 9.105060644420059
Li 10.672172002034097 5.039061826777534 4.492708004645806
Li 5.8112510973335425 3.86885603406309 5.044563806827865
Li 4.568234465374883 8.491710234371789 9.91023804857864
Li 6.608712632976674 2.8694677078865394 2.4227330270147345
Li 6.3678468901544925 6.386951726627841 8.60128152692151
Li 11.028987898909008 6.993112192615371 6.837862208294997
Li 10.481913245655246 9.485036510166369 8.718261475855998
Li 7.830373487702533 5.251366773694957 3.540242480911998
Li 1.385838650444766 7.645817813172971 5.987314774104036
Li 7.528209994734801 9.053790465435128 9.790844287791735
Li 3.3463816808817946 5.4270057149588755 5.173985431354165
Li 3.7380282676487977 7.076394602137566 7.426405321759634
Li 9.167775781853903 7.480019188643943 4.506935465603741
Li 5.043631578014935 5.664877503774146 2.775058603630205
Li 11.78419269661684 7.97836110677957 3.910204540908353
Li 3.08529850482948 9.94055285601339 7.411760436455914
Li 10.217651572117724 9.976639360539071 5.70491284901166
Li 5.344952239527933 11.390991412856586 9.068117241680685
Li 9.770495493626353 6.700147291183602 1.8595773681083316
Li 8.469780221709215 8.132041907232026 7.2544970066631045
Li 7.990273283841197 11.151169175479794 7.46981274851568
Li 4.260593198586992 8.64245957913502 4.762370634889242
Li 6.233415782250528 6.822610399966165 5.5675488495196745
Li 6.939507707953903 7.982904115345358 2.640820745251589
Li 5.780942544620492 9.196300093882382 7.385380167293472
Li 9.504956126917225 9.78785814716731 2.803743389772616
Li 8.433612015052653 12.263898621338281 4.607880835303444
Li 5.3716977198874165 11.631884340197638 5.885132160548934
Li 7.322647282151563 9.699001123336117 4.9368791883169365
