44
Energy = -67.98916842 eV
Li 0.7745500541952368 6.601051640552951 7.100804075558747
Li 2.1670699638642934 5.807967818613331 4.35226663954938
Li 2.492232356260202 5.118238841797673 9.21784308659399
Li 2.729915850091164 8.293233526861894 8.850515904046352
Li 3.6155697665556743 6.385670236931962 7.020805696657528
Li 4.541193512750178 6.749621106154204 10.863331602613473
Li 2.6387252789666973 8.630441857935306 5.64305415615167
Li 4.417945317765996 4.602787667043692 2.304087564555526
Li 3.5982504880495565 7.953761874713357 2.398213406615524
Li 5.446626735860265 4.617820968916114 8.820154827249828
Li 5.699775110335577 7.911241004218485 8.548142217379013
Li 4.657622229603729 10.530530184440584 7.771113790347248
Li 4.332255344106925 3.9219219396903133 5.598131568473759
Li 6.828654601062976 5.0764695308068335 11.46569964854519
Li 5.136795470677561 9.602886612785161 10.905063705150381
Li 4.2981013311393905 11.035151040082924 4.664850589989899
Li 4.822594895882975 6.5776527258854545 4.287111365615182
Li 7.0688253529972345 2.9554634651410563 6.49034010392868
Li 7.51092191030878 3.743712041983714 1.3571151346493786
Li 6.273057669213359 7.493932166719712 13.320827686809995
Li 6.637434740842798 6.673067814239339 1.8898129450502217
Li 6.378331054328466 5.8824338469510025 6.5448666087901035
Li 7.52421219985276 7.837268289141897 10.83809756541797
Li 7.266541035373723 10.867217970703472 5.777818869788596
Li 6.030774751554263 1.9803163231241983 3.538018824003489
Li 6.2719719635628115 9.335242498633047 3.1955233387170536
Li 9.034005838410542 4.965109423012862 6.092302409317655
Li 8.40868035860082 3.46292889496782 9.262768613489122
Li 9.660748870450487 5.790243205323234 11.242872858616753
Li 7.5961339485994985 10.23178875775285 8.90097369246753
Li 10.086209391135288 2.4659636592261296 6.87547763975126
Li 9.304495002766652 9.340762739101843 3.986244974897758
Li 8.13710708896985 6.072340813811896 8.772202624835224
Li 5.442268941046462 8.723592338155479 5.846885364475949
Li 6.850818956807848 4.543938994837566 3.919918887938501
Li 10.160260037930009 10.424153093565264 6.874639212001861
Li 10.114686429802443 8.168239670264109 9.102153756177273
Li 11.608871682891237 4.4909929522072325 5.172523267836409
Li 9.03822079865327 2.8357831133371256 3.9850834114292963
Li 10.898215011495967 5.174436928793658 8.242555375363144
Li 9.49171575490493 5.817973589363701 3.08882433432191
Li 8.23164327194042 8.353851237598104 6.986222007107901
Li 7.6937948336376625 7.211972065524295 4.5758173428019875
Li 10.636017171095055 7.333515456990955 5.90856096308183
