42
Energy = -65.16628994 eV
Li 1.1469401605767702 9.957706525412831 5.4858342955958435
Li 4.522421467659703 7.661514933515063 10.193008150268337
Li 1.2735443286111399 7.745371462178254 7.917390386821256
Li 6.0778268216381335 5.4470959202124405 8.997148510043939
Li 6.035303766701893 5.05047175764803 11.670104629382031
Li 3.9387635904707574 6.534262337787906 7.583365563798279
Li 0.6139864412186323 7.044890830477488 4.517855370749236
Li 3.406402038245135 4.642646281434761 9.640480552027434
Li 3.80040023016159 9.736450995479863 7.666128411061363
Li 4.094237556106797 10.80092681286257 4.806753658750263
Li 6.340328333021558 10.37643528531023 9.62696177943833
Li 7.698266778302163 7.501137736399475 10.337713988124875
Li 1.820397041195604 5.044104362024122 6.5960501229859565
Li 6.1865020570178295 8.301441468228022 7.8588656750679515
Li 2.8245707317536257 7.947616272786294 5.617710320744197
Li 3.378718927434085 8.484927650264233 2.93912457157942
Li 6.171924550499914 2.6334546490812554 9.317857783406001
Li 6.094424997635314 6.02935450825633 5.974059964749887
Li 3.765612878079533 5.645188122038062 4.314033871056648
Li 4.5966310394906795 3.696316242272537 6.834543865337157
Li 9.052227937583265 9.347366105530952 8.08607579468015
Li 8.354383421065023 6.5079395831479 7.61660718641225
Li 6.838462525882224 10.75131128710272 6.439583219407022
Li 5.38246094702822 8.45237479906811 5.095155024356276
Li 6.622433224778586 1.274929096101062 6.2852273298685635
Li 9.16524564676343 1.9043785945794929 8.012554043012315
Li 9.835300011738799 10.437888847855938 5.148321222949206
Li 8.159275665623289 8.338007350080794 5.479480626542047
Li 8.644107814134435 4.504571968138309 9.793328879515661
Li 6.41924957075285 3.706483839860929 4.147923771515165
Li 10.815879114946052 6.725374322534215 9.056918095271891
Li 7.050182521583934 9.958870151293176 3.3802371164089364
Li 7.5074454035030715 3.78197893943961 6.9850021764632295
Li 10.344539663810798 4.5636632647551565 7.064907548038733
Li 9.625082330246748 7.7338320409399675 3.1739322168548556
Li 6.529312747480743 6.806907227060364 3.0633117179283227
Li 10.835244833625373 7.434424476197418 6.1184423175018585
Li 8.608075032989186 5.59009013749892 4.783044888858956
Li 13.033571966339938 5.431596601228245 7.066073342957656
Li 9.22282745808011 2.6991148733848305 4.8839719566622195
Li 8.858718507189927 4.666408065353857 2.2358633567857407
Li 11.333014977971564 5.1078922034986745 4.291744808149847
