45
Energy = -69.90212564 eV
Li 8.332534475628021 2.858075921486783 4.5883637266240855
Li 10.668682244081948 4.528135376693704 5.672222900439888
Li 6.528964356191644 2.368531401180887 7.139659638128472
Li 5.153587621053495 1.7686471157233798 4.4216814070674175
Li 9.706021249130897 4.593176708027625 1.9991304528611147
Li 6.287860463088052 3.93035670089305 2.406115576513113
Li 12.107253603377751 7.24814883460484 6.729057690348558
Li 9.538529230614825 2.5587055139594104 7.758641770964989
Li 4.771432218185223 2.6883755119692783 9.579109371307233
Li 3.523372994369115 3.2638733448311954 6.655812464052305
Li 11.061149204747236 6.7251394126677555 3.908528177122207
Li 3.380073528617338 4.442322146071924 3.7491683017215616
Li 8.241505199685877 5.801836875098629 3.89876020874495
Li 7.208345483936554 6.511450050884591 1.2488924018254393
Li 7.605107785400581 4.221496719430234 9.609073251336769
Li 9.683584632610822 7.9205756190076535 1.7755502207135132
Li 4.051414497870015 6.020017157561329 1.0997537714054242
Li 9.37768490082604 7.2884982168314565 6.187611157542762
Li 5.313988179835251 5.029971717137079 8.03215916247801
Li 8.0908705328592 4.809990218884181 6.824521370203976
Li 10.06920039283174 5.701861490453934 8.62388603491192
Li 5.817876486494839 4.385668836357819 5.128827502570986
Li 10.572230144587925 9.46835795765513 5.011416546399483
Li 9.945808902326283 8.762598454636503 8.50625970749611
Li 2.4407975318353934 4.692292341010248 9.180314396562082
Li 5.341533419785106 6.678161609581924 3.400801729658694
Li 1.4054978419301105 5.628882248086919 6.324228521104059
Li 5.145626697309303 5.535814526317277 10.780925395555263
Li 3.5301485455416137 7.210782478183297 8.761827973136851
Li 7.190474719703739 7.277241810844308 8.648677277388725
Li 7.812123102437036 9.751421163066079 6.567531386609292
Li 2.6296015418251053 7.538149859468275 3.5206277492041864
Li 3.8878954336607636 6.526267742952135 6.000319729681093
Li 8.314652127133442 7.192470229836206 11.033231537957349
Li 5.243623907992998 8.867454878367024 1.727464231040571
Li 6.543898224163101 7.111766628132643 5.993464323182966
Li 7.729044887797354 8.631343701999944 3.743804064369792
Li 2.4362297949695546 7.062609933026033 11.327600018757531
Li 2.2552783465854165 8.778331627424992 6.536868187096161
Li 7.4431004530768705 10.054233477873519 9.641481103842262
Li 0.784631045792628 7.3586069163012775 8.772015924534708
Li 4.892575094107659 9.254537708664706 4.793952568095303
Li 5.2527846897977035 8.444553126415212 10.76671256176285
Li 5.132643458398151 9.250418550092148 7.786573475262026
Li 2.676337572815712 9.72758174218948 9.599515495243855
