48
Energy = -74.79579546 eV
Li 5.423792808694377 2.9400842674788894 9.547152836844292
Li 6.832234921835488 4.494078315110805 12.031252232182002
Li 3.2486384411796294 8.6407249448304 11.614673702731832
Li 3.959792155589474 5.512910977596453 11.255295012049356
Li 8.495239702794757 3.4232806194561523 9.5356785953075
Li 1.6466160100725395 7.125453363956003 9.47551512100258
Li 6.229150074951109 7.60503548901064 11.692770029243427
Li 7.132508682606757 1.1058420191922698 7.629645712915203
Li 4.697712117280257 2.8512017566740924 6.395311924110946
Li 3.3508215454419688 4.8971876858044086 8.318258858055275
Li 5.360764325430998 10.3772967759186 10.404870914057781
Li 7.14647280714709 3.8129550830080756 7.200618582520236
Li 5.321786824765683 5.851928338982232 6.635595479577643
Li 3.0251735433327536 9.869123483991011 8.590052275877737
Li 8.838932747351523 6.505767925784847 10.376316811725196
Li 4.55243631358259 7.662050328999681 9.304878263410313
Li 0.4233784173169639 8.766986104536004 7.153361765327947
Li 6.333926802188649 5.546119905161873 9.511723274127817
Li 9.949789648481886 3.1854415173794166 3.392985040461023
Li 10.32589195926895 8.524303254711494 8.32098363420281
Li 7.242575544092784 2.3172173526209274 4.647795762775555
Li 9.71293252996258 2.582533782681541 6.482199991729275
Li 2.986085697421621 5.02931465501173 5.045131494419385
Li 0.5507172923114177 5.6909676808469065 6.930281672970734
Li 2.754077996135327 7.379535465432735 6.782254775195408
Li 10.227880563966933 5.341406741427784 7.721019598957564
Li 8.653432504177983 4.9434610223996955 5.147576767722706
Li 1.2174196169116263 7.553417420400945 4.453460347410821
Li 5.963916777257489 4.972021615688443 3.9600216514982844
Li 11.626373678646502 5.2493506536946875 4.823304713471885
Li 7.388374345381541 8.900554268573446 9.08841293084712
Li 8.097208340344341 4.759844148707871 1.6289663928361007
Li 5.464858950579299 8.664698044396507 6.792083015628621
Li 5.788966052260944 11.265200917636317 7.381289046795284
Li 4.3602572199315 7.549144811644855 4.1597889154676295
Li 3.143269107804904 9.9503124422752 5.538603144018553
Li 7.9290730644128855 6.754929519655842 7.487081997757437
Li 11.350865063199691 5.251666563086187 1.5998073251406444
Li 7.2783665363853824 7.478331216349915 4.807041957143113
Li 10.153285375434605 7.620011461133569 5.619744784490691
Li 6.825080716901286 7.56672370774998 2.1198665570399813
Li 6.142579884703883 10.071680603754947 4.255843786993616
Li 8.356978662371972 9.796410930995881 6.362084948822545
Li 9.513835635999714 6.493231276640482 3.0884220739974246
Li 9.667739189896945 7.628086121349295 0.6504134824018601
Li 9.176157526014064 9.368671078351719 3.4082998266397144
Li 11.37070888269199 10.11269475996694 5.5904556447844005
Li 11.902878661207916 7.968803615427159 3.1466452146134047
