42
Energy = -65.04007871 eV
Li 2.5100649749913453 2.813612536517115 7.5912756201566935
Li 2.214240679541477 5.842329763010488 8.47868464477938
Li 3.479511543877649 3.83483831029585 10.490222303324702
Li 3.0802247366481743 5.249910202729995 5.717969267537146
Li 5.193838085144309 2.8949415213801224 5.893957142834806
Li 5.174261388337986 1.7469550700052563 8.743727188923867
Li 2.0618301238165353 8.336168022918985 6.372037638138581
Li 2.818556476941583 8.631564059745516 9.529506046795268
Li 4.7792522592998035 4.412370791937114 8.13089160423736
Li 5.952218351573742 5.919349521520664 5.979799356702105
Li 5.0627128089938 6.529763976690757 10.061636373133574
Li 7.150038931008203 1.8650714460578228 3.79102678219963
Li 6.6850993067324485 3.9221210716321697 10.355193123152645
Li 5.1770335452106675 4.521190916210309 3.4217971801038223
Li 6.315689555181826 8.870579696834554 5.632063028843054
Li 7.7965863238130515 4.303959036431304 4.9027690920904154
Li 4.4034986801181875 7.447846892160881 7.49948899392418
Li 4.54268819264124 10.230382482211796 7.578975774586466
Li 7.836371127658192 2.8910692107529066 7.360776694472522
Li 4.1929239635560585 7.488603331003339 4.127844693416899
Li 7.064166032121792 8.376886183625967 8.396629043449552
Li 5.832218271595945 9.500364466752588 10.498693356873327
Li 8.002633680832066 6.824357215276345 10.837333206339922
Li 9.754867074217298 4.369202958400253 9.705339076433518
Li 10.006560767953513 2.891801071865457 4.21746518782154
Li 7.858091180319528 4.35483813643083 2.0170626157329066
Li 5.310005005226167 6.703551916889885 1.2188043073722752
Li 3.9887907779305554 10.402310788037887 4.658017006677821
Li 6.885909659784579 11.399627902011197 5.23711999387728
Li 7.519441514587393 5.550739083300131 8.260342051236343
Li 8.544904921162058 7.0631717874426485 5.9974780481154655
Li 6.996481602355171 6.814707731656826 3.453736339405994
Li 7.125985044774055 11.295539044199277 8.343299684754795
Li 10.1755186861681 4.847940647309482 6.6592179793769075
Li 9.007910199543147 9.699137695290014 10.148591508391087
Li 6.172047748563924 9.420764231771173 2.643814309774814
Li 10.026597395808203 7.229933534209607 8.633137486339672
Li 9.860852818487867 6.00508246016905 3.681024126177514
Li 8.93337841904247 9.001618565326886 3.96112073355731
Li 11.37050637729723 7.646340472810635 5.922790279453957
Li 9.194012372760834 9.713029947922674 6.9322642194823265
Li 8.374449558551897 7.473943888840824 1.2035171231210293
