42
Energy = -64.68119172 eV
Li 5.012235930055265 10.56123859208634 5.561779067174433
Li 7.7696434641196825 11.199534589443637 7.092231377004911
Li 6.356464541562858 8.730581628835889 7.386756470969451
Li 4.747722023491233 9.942371503237297 2.5237509638261066
Li 7.585790986342538 9.894138401396045 4.006414203759764
Li 3.668811812662755 8.132437289225717 7.126307836114859
Li 9.96158340331672 7.903291467763648 3.2973734899377796
Li 4.540573078150233 10.641652154258463 8.591939976764749
Li 10.09624382988042 9.649445715943434 8.395303173665575
Li 2.5525072449115926 8.832951836073569 4.583259332473753
Li 7.94441414613402 6.552559549137496 4.377209853657079
Li 2.1684475861986994 8.088760778253905 9.56035444035523
Li 5.370612932176629 7.992064954075533 4.452415575131852
Li 8.753825358585583 8.599721344381315 6.113252176314478
Li 7.379911414317768 10.005494255125315 10.009394776423154
Li 10.477762576071047 10.57997952600763 5.34802037272448
Li 1.0465815077458975 6.966516955247406 6.803451349511468
Li 11.261216472065486 7.515099618525378 6.082536320689994
Li 3.671134851444105 7.131482100597791 2.3260492985834444
Li 6.855242942173908 7.597890427575847 1.9599428017702285
Li 5.046734490809189 8.044611799393824 9.840932470504068
Li 11.01905208084417 6.799495061395103 8.980058172992402
Li 9.731746978262121 8.23183325715899 11.351841490726352
Li 3.428582876160379 5.853576764838707 5.292434053044162
Li 6.107944239487955 6.080326155982976 6.496146793783147
Li 8.975302028770823 5.966697791914469 7.066445614586724
Li 5.671061640235487 5.081090687502816 3.431577602962588
Li 4.029851709974801 5.6857252549068775 11.228605517043407
Li 8.241187892587169 7.5031615007464065 9.150287766179034
Li 6.965403625010387 6.711188748062735 11.69127944173348
Li 8.651821478817295 4.914686890772915 2.268361610999292
Li 10.325779981891536 4.777315398987647 4.903003243426583
Li 10.76865916412434 3.9374619690220705 7.9101619865113415
Li 3.379843406633448 5.643558711728257 8.331989646664194
Li 9.056779084165184 4.966990058904426 10.369516157258529
Li 5.129666951890812 3.4563330135089174 7.0168370972796215
Li 6.119659203913156 5.638873335081944 9.131062845554398
Li 7.6021033584224345 3.7869874952146034 5.129031770130999
Li 7.879843145917939 3.668354095493371 8.061216485586025
Li 6.342422516129801 3.388440413968798 10.64448597960658
Li 9.29678860785761 1.7836511545487213 6.479540617025369
Li 9.137300093682933 1.8910384738572465 9.747223045394946
