43
Energy = -61.68475373 eV
Li 11.598863213578845 8.621146045764933 5.994067977492935
Li 12.575408601607133 6.53700964285671 7.812746109060837
Li 11.964477983313342 11.368196541411876 7.178594657957206
Li 11.217972121557455 8.977824696171227 8.818936497494047
Li 11.314047680840304 3.9532811362584304 7.948510474587891
Li 10.357676011087888 5.960384820723018 5.953003632984946
Li 9.323704157035701 8.04333462984803 4.313466356962678
Li 10.11313401136899 10.888850570511417 4.952291737356154
Li 9.360309875311136 3.1986539149216258 5.822334646460856
Li 8.613115617283315 8.10684630542526 7.216006703932024
Li 9.222864949217128 11.009289919650287 7.8315736913206635
Li 9.963228227140526 6.315642758793125 9.05162626825499
Li 8.7583178325768 8.808215262771137 10.152870776829749
Li 8.831847463770483 3.6660029188453236 9.447202031640648
Li 8.411894123089258 5.223875289114506 3.875009484523952
Li 7.760943581610743 5.2944100009225075 7.148506891385258
Li 8.27921950935238 10.327410430116341 2.7941729872511054
Li 6.5774644165942835 7.426188491645266 5.156247000289652
Li 7.490883383711541 7.45961759561436 2.2624738792526027
Li 7.351005765677566 10.234940711504164 5.652136104603607
Li 6.545355022422079 3.1723730859297863 5.001424414169848
Li 7.318838653056271 2.1002673022197658 7.68291140728437
Li 4.729389231372062 7.609164185147991 1.6586376231761866
Li 5.530101805755967 9.685358170433158 3.5114446775681536
Li 7.525863385957906 6.101705955500579 10.58548278098221
Li 6.616310670915019 10.117322986545107 8.513671036328821
Li 5.886489947096462 7.226461117023263 8.253586715072267
Li 5.943658695070841 4.203357549711698 9.197121061342255
Li 4.611591193680453 9.643915257572024 6.334688610799877
Li 4.544134620402054 2.4791002408256637 7.148902698416385
Li 3.699012288529944 3.277716799000698 4.49817614437147
Li 4.883402532643128 5.322109685438244 6.239885670506597
Li 5.470991809140149 5.320212441044553 3.307036862619925
Li 6.151815694957052 8.765619482768399 11.245296099470588
Li 3.7405284189605608 7.528699787156579 4.405565556424384
Li 4.64138112113174 6.337323912926773 10.783645002972849
Li 3.9614016113032706 9.25408479856676 9.323166400979915
Li 3.2332011181238034 4.683169467634802 8.59460832341901
Li 3.057599094937358 7.418939990050229 7.219086638734521
Li 1.59606750980453 2.965983153154361 6.771242773160326
Li 1.9261702564532408 5.528347922571788 5.271077816075143
Li 2.023865248081578 7.171966811697868 9.967676875485417
Li 0.7431452014518302 5.753432362677406 7.865142808454249
