49
Energy = -76.45186723 eV
Li 11.180207585454115 7.155168914879268 10.950431224169511
Li 10.72242939351932 8.865971854324734 8.304943678564703
Li 11.55012316824264 5.85370830034247 8.041431845966672
Li 11.949781279957717 7.533444811256386 5.469605790311113
Li 10.18031360620368 4.2296183904227975 10.368118604816274
Li 8.712405646798894 9.149702030809706 10.84792489396663
Li 8.24466749893792 6.12131574091948 11.956642456945927
Li 9.088242986038026 6.565347783442279 9.343224010381968
Li 10.557445947488107 4.724325368747413 4.88460960062325
Li 7.668673963003836 8.798971408908505 8.287344074204738
Li 9.016837756679932 4.289054213179034 7.405051809651907
Li 9.97160408463544 9.920205338915391 5.297291609033979
Li 9.322174898463732 7.288031575205724 3.5168735835640335
Li 9.439184791415867 7.137932789484326 6.408771890190271
Li 7.089975544256468 4.372628672723255 9.604560985813295
Li 6.237422849138266 7.123891423044703 10.052953205534147
Li 6.774542976340021 6.3768333150915355 7.143762232399719
Li 7.775071306878443 5.303177908184014 4.748093340016724
Li 7.327161341148089 9.472011766904812 2.858632845549959
Li 7.391572093769073 9.202770264569537 5.649503607454266
Li 8.57342442906239 11.305562446531802 7.897052801098145
Li 5.697274829728361 11.08619176322272 7.1906232731992
Li 4.721173196738656 4.9462977663940455 11.323123782987
Li 5.550436387280367 9.963307034058952 9.80425533636997
Li 5.7714118348183785 7.36795652183948 4.352170573291284
Li 7.474906201339804 11.885638138695162 4.887923478894157
Li 4.728337669634237 8.228240329896616 7.223597891477037
Li 8.007024688063973 2.3987013548655445 5.041341179503994
Li 3.2750230059555734 7.657736175973035 9.782821215250543
Li 5.685820133224759 3.922756732142654 3.7211799549651756
Li 6.026210291904141 3.741942297129468 6.748874265389699
Li 4.520110688993247 2.612652397881805 9.00951504546131
Li 2.046054412666686 4.635505501974341 9.628778714418761
Li 8.295353890699422 3.834566499894852 2.3441366385201783
Li 4.395484291884988 5.375345130739043 8.50445314105917
Li 2.70853504378682 10.00508691308939 7.443631393497151
Li 4.784539893412349 10.198267764114371 4.63293383684618
Li 4.009286396775543 5.498377290982619 5.525855137643943
Li 6.611540573189084 6.32143342972491 1.9410186261426507
Li 4.4528399809541215 8.573699598641538 2.056903639956296
Li 4.833263977873746 1.5520400145528 5.6147509412595555
Li 5.979061605244792 1.449656307124097 2.7539854208945767
Li 1.9759908203362393 6.665609382913498 7.263894509409231
Li 2.617073327143942 3.4812223831984603 6.742524258642699
Li 2.755860275415517 8.074982252921208 4.724685234087063
Li 5.036313866179163 3.781152534490977 0.9989145990347096
Li 3.106585391282702 2.959704077013273 3.4762096816134194
Li 1.2738867788763957 5.301692538719071 4.571846218144067
Li 3.5876996970696773 5.827022066607458 2.677788927112039
