49
Energy = -76.81417159 eV
Li 9.262354999598374 3.9183853226841463 1.375692882778819
Li 6.572649039522301 5.632612756446645 1.4728271163835507
Li 4.143406496046097 1.458208720645434 4.296294294595111
Li 9.506157058302676 7.150847288713649 1.3147338207527284
Li 6.761943335048572 3.1991290528319367 3.374393251422604
Li 9.74632758268787 3.053722313131848 4.488805003797007
Li 3.7606017514795496 4.412555034424271 3.3229091214765876
Li 11.44431434094481 5.369157755464358 3.0874794251407236
Li 7.041192821376523 1.3276054495056533 5.959310677332488
Li 4.331671410797538 7.891000146749984 2.515516618876253
Li 8.69257788914414 5.515455216222106 3.459861050029237
Li 7.2939457587320256 8.126297659687504 3.0675059089478705
Li 2.266765273559729 3.6722991875176714 5.96350927624156
Li 5.747176860856572 5.894041844841524 4.241300649405944
Li 5.027017506739235 3.3714351015161745 6.004933529118176
Li 3.9543330257206595 1.1923362186894586 7.307788400593731
Li 2.516444066485315 6.932433124073386 4.876151303226716
Li 7.588532418558545 4.182521836172875 6.0004943823757975
Li 10.069372040476116 7.917707098690616 4.222422343774419
Li 10.300489639774122 5.703447428457934 6.019585172691135
Li 9.141217767308516 10.468972413389674 3.183343211109996
Li 4.307887617544276 5.990118729003097 6.716048494934075
Li 6.080909819141708 10.870319518443463 3.8111207815079258
Li 6.426311344800675 2.6123380010630672 8.706100467427369
Li 7.840081120375173 9.423958190035917 5.6505934226352466
Li 3.0848120077960264 8.777133826812397 7.382184756745284
Li 9.305844639112726 3.731586051123541 8.03055296951344
Li 3.018343463816347 10.219630846101365 4.528786990253282
Li 5.0529494688665855 8.527918548942417 5.1348472351731305
Li 11.394123908490037 6.134300419387032 8.847247274610158
Li 8.811478419944132 6.9324940352827955 8.304189251867243
Li 8.622715783907905 11.892256494333216 6.055186089038687
Li 1.639548290145823 6.178541493012325 8.034919521480973
Li 10.392961803392192 8.961809625724872 7.1601805160372525
Li 7.585784470073018 6.8297328063831895 5.8904637332351415
Li 6.466523462273856 5.331154756017092 8.426449750861648
Li 5.431614667524682 10.905364724474445 6.787871444259275
Li 3.9810016501322796 6.886864236506113 9.588039640569718
Li 3.664097639305112 3.9616942377535547 8.737305408991242
Li 1.7937811923284803 8.38905275887709 10.29427008983808
Li 4.669083601856465 9.699162413383698 9.853579402500166
Li 8.621899625639687 5.20648718050852 10.551558132477934
Li 7.905126204103556 9.96657516321556 8.58375200360788
Li 9.85236772868192 8.324400666104406 10.4114201565801
Li 6.772111868075315 7.566433686013136 10.510885946881139
Li 5.9799878385958865 8.126138229190106 7.7760790202372165
Li 2.209348564707435 5.4286234087531975 11.107058439880122
Li 5.389236207610189 4.869704451916337 11.112552089511688
Li 4.131406261992305 7.580460087645959 12.245356729934777
