43
Energy = -66.96124798 eV
Li 1.602632790761025 4.80842379139591 4.384098424867484
Li 4.555775183794421 6.6916793220051085 7.592096535721562
Li 2.9790640161331106 2.534031476415205 5.978685336829042
Li 2.2325840602818685 5.239741162100157 7.615127752798471
Li 2.7029494104789324 8.397832643027243 8.814012664498035
Li 3.91135826099138 3.156664241716213 3.177675255569618
Li 2.6775473894553854 7.578465890907022 5.595234738638267
Li 5.618247785489141 8.499429358085898 9.611513361850442
Li 5.02696007980719 3.719371404301811 8.160521347151729
Li 4.17737319598172 4.922208215456776 5.288986466046097
Li 4.698219470434511 9.6848625469621 6.865980748492523
Li 4.292553223421092 5.8117024125518135 10.38736510229093
Li 6.159605015486641 2.556290871294038 5.4405216027130905
Li 4.8857511099180675 11.364515820576484 9.348225236671105
Li 7.313941415070416 6.823506776833355 11.733186876615331
Li 6.679008796517749 5.002854492926496 3.3746033668596627
Li 3.853778255429913 6.31097078537997 2.741440765475563
Li 6.8032221952827445 3.6747558299758163 11.021796043874936
Li 6.987252537360165 7.735767647905901 7.0736500081822005
Li 6.008101273997484 12.454121354763869 6.430796427574279
Li 6.767495029707856 5.1060095846391 6.306958949025966
Li 6.874702897114242 5.66961555597333 9.183789569037886
Li 5.487898319584978 7.500908213630002 4.786193158404244
Li 7.140666649495318 7.924380924918136 2.355354043453843
Li 8.53404618953908 8.01949106911838 9.354139793221856
Li 8.231244240797098 3.268382398824455 8.11792394163705
Li 9.582074062255224 5.229276181114252 10.226288100624021
Li 7.697547754113713 10.159800471506378 10.975355588226138
Li 8.363356237659435 6.934134614316553 4.666238418940057
Li 7.303767550549496 10.492380060652613 8.019575898757875
Li 9.235201729807848 5.903348229635167 7.386710558319245
Li 10.272033677476779 8.244835145178417 11.40730257027578
Li 7.114265391226923 9.910249451086349 4.9672806776459035
Li 9.730609846091061 5.998249557002982 2.491185756491355
Li 9.411989971095732 8.800230643847279 6.611267845428433
Li 9.927119177725244 9.093358630261651 3.749360190216303
Li 9.230024790461128 4.081740185647107 5.127386112660058
Li 11.357557763374329 4.183350735472769 7.651860255521655
Li 10.245600367111516 10.304533114171889 8.970564552600065
Li 11.351568324487543 7.358170420968101 8.536341660851628
Li 11.174052389874197 6.589426169044621 5.367004024974726
Li 9.297137877826296 11.604914466662164 6.111532936622513
Li 11.888571649651233 9.716345948972025 6.269979003535381
