47
Energy = -73.10336943 eV
Li 3.5210700702761657 5.100021514090184 10.704929654270794
Li 2.757404656153001 7.687662981497871 9.001523724972817
Li 5.366796751841175 5.831061851843207 8.724471382742811
Li 1.3929120822292504 7.163314759773841 5.963124997301639
Li 5.533546370225604 7.73167899356382 10.749681837942559
Li 2.950680735714484 4.8502865724558495 7.590612784038078
Li 4.796104900516519 10.179818136761472 8.660699342584202
Li 0.7714687333710976 9.190412672326923 3.6333800360924067
Li 5.075253097700385 2.9039270905742076 8.786896034537698
Li 6.531774048380287 4.702820301237432 11.124689180872393
Li 8.113760299610439 6.6085670724503345 9.717513653811672
Li 1.7316815514244313 6.241479761521734 2.9054451570891784
Li 2.4136548668112 9.927846361039197 6.342267901048394
Li 4.25848718106412 7.652771661011956 6.798106109057137
Li 6.692534411784741 8.43140082354262 7.92225470456589
Li 5.836051719490856 4.468706337829133 6.343960528501396
Li 9.72035528072218 4.476832113453947 10.872981582497056
Li 3.6926341210710873 5.599921488174376 4.907892256124278
Li 3.341362442798129 8.338164624045 4.058427878574923
Li 5.395828958072508 10.074269265921732 5.6092947007892615
Li 8.26367151900125 7.027054371025389 12.425557448118914
Li 2.96376286346198 8.634698240699011 1.4206861420931542
Li 7.818082980590364 6.318340412192371 6.773868040137345
Li 3.27501699994817 11.014861497957968 3.449499779680991
Li 5.855744937022183 9.13377697523362 2.7304604430302124
Li 4.628171869346801 3.073152966182431 4.128517659899263
Li 6.101496992743151 7.098662598361693 4.746354571039438
Li 8.12535200004843 10.935770603162174 7.551510804070874
Li 8.117000048661964 9.454906533520148 10.300001418559821
Li 4.918194910920281 6.132905269700335 2.352954011955678
Li 10.698717611074223 7.545083258679544 10.48043064212341
Li 7.816099397602413 3.9387059018742367 8.493849142484855
Li 7.242615835449442 2.0164370936460494 6.170622885271668
Li 9.559969959309743 8.389323516411434 7.847613151009363
Li 8.133177734629664 9.042213135433304 5.201474835227803
Li 7.297650706550184 4.409030522718753 3.9131967399200724
Li 8.310371925582439 7.033805922290877 2.9491168886075685
Li 9.189978328975837 4.059613689810803 5.880257840563134
Li 10.974451053561149 10.339884653558725 9.063593934804684
Li 12.243014909343882 7.610894800943764 7.646725793271922
Li 10.889572422119988 9.948173905224674 5.987395870323852
Li 10.242924431212964 6.787894416199496 5.34948343343147
Li 10.288171974585241 4.495662637510003 3.2990205227027296
Li 10.321945324123993 5.4615359023733125 8.161705528961727
Li 10.213888849089342 2.3493395394100585 7.927496799569136
Li 10.07480068552133 1.791535832719774 4.763781593923246
Li 11.941966120123892 4.179501596807913 6.023440282714178
