49
Energy = -76.2256053 eV
Li 2.4984213807529025 8.2460264700748 10.522012892155026
Li 4.454286953931907 4.487987848054114 8.022127431594685
Li 3.7485144871892295 5.313446000343651 10.778254853731088
Li 2.097861343278214 6.456291282091119 7.5891686622376495
Li 2.98942269937315 3.2660977552024306 5.635916302742816
Li 5.725713173741161 3.7086682933405273 5.148228616212554
Li 4.00147145587956 3.4802480020602196 2.7171644791311067
Li 2.303831730646452 5.917756770810993 3.84288144936922
Li 5.849744960016946 2.777570668187056 10.133305896146148
Li 4.4033528794246095 7.567414964654374 8.788711688601493
Li 3.315736459984775 8.404901914655113 5.553410345059968
Li 6.469640078917801 5.664908265559026 10.039426911863865
Li 6.438903873463377 4.701665386199473 12.568139894197152
Li 7.255575257781726 3.824787748433442 7.772474882556883
Li 2.758687446228043 9.848869012994875 7.939354289539957
Li 5.460089996830465 7.671994775683172 11.794504396292368
Li 4.3278143183675635 5.934150599365547 5.601638071073284
Li 8.255012360475174 1.3736862878736602 8.518822609444019
Li 5.319325252669338 5.945969319847806 2.8019686566871917
Li 5.520186712659688 1.1984827029620928 3.968645957364698
Li 8.184892576932361 2.244069578018124 5.469289507869174
Li 5.460614034331455 1.6617435273543553 7.114403564993398
Li 3.2138667159952305 5.8599774390979 0.9033286885738108
Li 5.078794310208372 10.20107179973321 9.969842990984562
Li 7.288407938411021 8.433631502695153 9.526948310832456
Li 6.19956304820591 8.044395775909107 4.650381891737655
Li 5.8959002490111 4.392969296828305 0.4376318059329712
Li 10.052509195960468 3.7786974030789167 7.270166250426413
Li 8.715208148152561 3.8195286435743254 10.409709167955203
Li 6.434901531368706 6.556370280821576 7.241000172309235
Li 3.9536986034819295 8.413969217501727 2.634098666291699
Li 8.611424709239829 6.830987001084233 11.587303828971407
Li 8.139029975589722 10.9387907232409 8.287501693715079
Li 7.985141849727163 5.551595616223571 5.237309906737563
Li 5.788735588415753 7.437429217598683 0.3916455947468531
Li 8.99133110270318 6.118437484414335 8.63297034232291
Li 7.363818122511677 3.5106745254448617 2.8587108119846283
Li 4.826158502106103 10.773132137227877 4.498686799269284
Li 5.700002520825045 9.541205356857986 7.068406778729389
Li 8.457755988941505 8.445576432720786 6.885870199237735
Li 10.270373391614818 8.665045928280877 9.104809285075708
Li 10.165172019973529 4.658409705865869 3.9599275344878184
Li 6.95960137840641 9.43927326363598 2.3936281336671703
Li 8.062171234985607 6.352265090598531 2.0995405882069837
Li 10.760498708434149 6.755606413686551 6.3943109526116455
Li 7.849644196479312 10.59548273039273 5.080504406458734
Li 10.646799346372843 9.981512019709376 6.145788549057359
Li 9.236099997083874 7.99690029693588 4.197156245058796
Li 9.907012847251709 10.421966444364585 2.9348224538488585
