46
Energy = -71.52137563 eV
Li 9.775509183017704 9.663702649733102 2.2754770519540193
Li 10.25258211844011 6.770549980295138 3.5470092478625426
Li 7.8978371097197435 7.121335581435411 1.6576837135642153
Li 10.666340077720385 9.492006900401186 5.214709914124395
Li 8.403340468822153 11.497471927572274 4.425391584493171
Li 6.702570280511812 10.257359195309407 2.1936130187253764
Li 11.997839202653283 6.802649520066427 6.1169594269006975
Li 7.53112513825304 5.959953246871396 4.295798575258205
Li 8.348674247922332 3.757588123579278 2.8724020708862206
Li 9.896635105414525 4.354023303427226 5.536114917354046
Li 8.013541611548002 8.79388948800303 4.1585092448835645
Li 5.589590751335986 4.814167413869033 2.2830355188189637
Li 9.24752080129889 7.226063849212802 6.3389857071428635
Li 5.479077169765253 9.96992288012892 5.2820134665625105
Li 7.963245842687467 9.78256317905057 7.0163394494288305
Li 5.879909232549931 1.7223349347953285 2.893448275752137
Li 5.394242615671486 7.78509560586691 3.175213024794016
Li 10.690702164922442 8.703406932279508 8.269208432859475
Li 7.8124842503743555 1.7892637132621931 5.463215047425126
Li 4.348453568862118 5.847973414482328 4.780363605930539
Li 10.281697421504125 5.556210369061706 8.391084768186525
Li 5.982987969564296 3.633583036799482 4.94011613770153
Li 6.1931466441375855 7.401997130810926 6.296766958467242
Li 7.604168684476439 4.7690769215881526 7.057855426016017
Li 2.8438173328772383 8.385687361848511 4.637498175901162
Li 3.2603492216825423 3.3501736266741085 3.7352059689235237
Li 2.8585127647152024 6.2502751157810685 2.3528929670869037
Li 7.873700814692533 7.403407569820358 8.920876292012819
Li 4.3381487092572995 1.3123412497082123 5.753920347459624
Li 3.2451480019030936 6.996096363074352 7.1392674515123815
Li 5.348077445197953 5.605407316080465 8.5505788237396
Li 9.020574546928803 2.6435898043006554 8.26366398297767
Li 3.603064859493414 3.971818524382802 6.861092548019822
Li 5.306094075504252 8.742933198160106 8.669563670307223
Li 7.824238746207927 4.764146728717179 10.024011423760598
Li 3.007112895544621 9.892770933646595 7.2453726297623495
Li 1.5115071396246764 5.501761814775587 5.080473002469392
Li 5.981250173534124 2.565933809789013 7.903500428097627
Li 1.363913001588807 2.4527883202349567 6.1088801283398775
Li 0.6328321840784079 7.904842304633006 6.991789961266519
Li 5.47835224319749 6.608215293689481 11.0957210732358
Li 5.409980436190333 3.2880885414894943 10.620501553806532
Li 2.9757427581248885 2.011676445221019 8.714294827005913
Li 2.493620049762804 7.67853146279662 9.610470003145718
Li 1.1012498956798522 4.951194708736284 7.955161895350307
Li 3.116014345554558 4.7865174753731425 9.948341009620416
