46
Energy = -71.43277052 eV
Li 2.606220877984197 6.897049472127325 9.277156557942588
Li 4.525813696443098 4.842062556481383 10.486212028088984
Li 4.994029357927499 7.9779346098003145 10.648328103270973
Li 1.9217408348847382 7.142901413826191 6.2851226089116565
Li 2.046194903684255 4.700107039009235 4.354842378922088
Li 2.5032247204811533 4.366972959841469 7.580932919462704
Li 4.9004291117035494 2.421189611958976 8.613294553719534
Li 3.138745403133974 9.967280051219323 8.560985556093264
Li 3.3690036231474565 7.254849276979754 3.042264136261115
Li 8.189600667740784 8.39225712203361 11.464487582643645
Li 6.8253650462783595 5.782923296898637 12.311424106599835
Li 6.781442597403296 9.441227821689086 8.742725509894187
Li 5.13432862399554 5.164556077978356 7.860671494913737
Li 4.603869566926721 7.955720889349412 7.542568309614412
Li 7.133007420053875 6.951242883207917 6.816488577386565
Li 7.070497863172672 6.481263356640628 9.548752088373469
Li 4.436912544384052 3.2033798431779843 5.708530731525802
Li 7.324523972295131 3.5975213900113197 7.23204035637505
Li 4.797580813731305 4.263032696683473 2.883394864264595
Li 7.44744748618137 3.7910870590141577 10.033594898650005
Li 9.169235694036416 10.89860321472546 10.130454937347835
Li 5.619723666253386 10.81247079635541 6.61954742861666
Li 4.288082202445287 6.084535631900599 5.270955167018343
Li 6.781834765688659 4.892487407282011 4.832799000889629
Li 6.053278104616762 8.474171932555436 4.835079981717928
Li 9.707277174379396 5.9001166784301535 10.577856075147158
Li 6.962169753217762 2.093056207838014 4.496666715074164
Li 3.453386768298404 9.441527514033144 5.207519379470383
Li 9.44544891975371 8.38071851170536 8.842763376381294
Li 11.240864225529169 8.838685357023943 10.94824701145223
Li 10.325801380542696 3.3116068560178227 8.39653736561366
Li 9.415396158697211 5.7359836891194975 7.522027466900749
Li 6.4605654441779325 6.874102092503231 2.64807046130103
Li 8.630702401896126 11.8427877599166 7.281508304093094
Li 8.44671390133946 9.405953289347122 6.21386488735412
Li 9.430895585183617 3.62757308557863 5.3155716099382255
Li 11.953838820398273 6.903073018733507 8.665910401613393
Li 8.217625337796017 4.249863298642115 2.507639665707785
Li 5.389035550514962 9.877107042403134 2.6109720043687865
Li 9.021070213902123 6.5083448410563385 4.583277962816441
Li 11.346285241740963 10.290228338534362 8.097371152843383
Li 7.3949181516653875 11.44836887803429 4.422856147886976
Li 11.810655229900872 5.162495381019871 6.125936206489777
Li 10.893355707408361 8.084804423659719 6.09510038144975
Li 10.439955898538624 10.977268630047758 4.994969961587902
Li 8.539539132704558 9.069576745173048 3.270819746707029
