48
Energy = -74.10602989 eV
Li 10.146930537488325 9.247135346353152 4.432060455689197
Li 11.535536860934464 6.51771364845596 4.313217739978115
Li 7.097565555252759 9.62622289003674 2.697458787913099
Li 8.74197682389261 7.033299277616275 2.788253513960945
Li 10.692733167643285 7.810375926645503 7.022612693656384
Li 9.4432631326884 10.496456268089682 7.481506528193786
Li 11.703323499324293 5.846333267668908 9.07038866928826
Li 7.602996593577652 9.136989767877564 5.5296970649954345
Li 10.110259845605782 8.375114034249446 9.922794790858108
Li 6.142590419594444 6.811226946814463 1.2458899299914052
Li 10.785543523324678 4.646695286300936 6.580678773558275
Li 8.80074971473278 6.513023727100327 5.470780076219897
Li 9.617591226558172 4.217315517736909 3.701193597309918
Li 4.83564525979613 10.290955151496963 4.871033592679768
Li 4.08531842095836 8.927523581331899 2.2140547271809194
Li 9.762122257863872 5.58264556975731 11.279200811767547
Li 5.722584063157644 7.465457276206825 4.056899000295767
Li 7.816267463494077 10.434493915663884 10.15935264654994
Li 7.757020640780787 8.327466908643636 8.258003236402978
Li 8.288712993065833 4.48944057518323 1.0969763763577132
Li 6.210743252403868 10.834860281487236 7.551100376711686
Li 9.750993076811588 3.1944542125802626 9.210713895249981
Li 8.724487239931868 5.678527648413464 8.646585544120454
Li 7.330112375894287 7.511587595609559 11.152479480251518
Li 6.979801740256034 4.472841881449585 11.073071104604956
Li 5.394487531024972 3.872767061744168 1.0975247549106486
Li 8.26562616524744 3.368406886557708 6.0944960914429185
Li 5.181544140514027 8.173147067221032 6.855343142381971
Li 3.451073644631272 5.902719695002789 2.606265978326552
Li 6.644223197797144 4.751985671954001 3.526414867154505
Li 5.557936838452743 6.216243907939906 9.167825767195191
Li 7.195831864341945 2.1216110341151677 3.044747040152581
Li 5.091737688371938 9.03149594752221 9.679323069431629
Li 4.09001797986924 5.089256030227689 5.271036657501524
Li 6.74389173503828 3.248476976202144 8.549881620697894
Li 6.452970222146108 5.621451241536849 6.571510558233649
Li 3.7962195307168236 2.99413851409246 3.4021631135647836
Li 2.9791978775354333 9.723295670821305 7.548353649727563
Li 2.799762762143063 8.011751046289213 4.932868697035614
Li 3.0710329097337095 6.55574728254197 7.487628446302075
Li 5.527794825295888 2.5650024791249275 5.711358097434579
Li 3.7614601366920097 4.793842254931515 10.716159032953115
Li 2.4525047695318523 7.440366612590596 9.902335001996281
Li 2.3839723701756075 2.7895739033269904 6.076626745859162
Li 1.3100336020212118 5.387154062181515 5.235631814154944
Li 4.1175350453593635 3.969210209891165 7.9679136590823445
Li 0.5600824186987934 7.6576989148646994 7.33028548186787
Li 1.2104826790722771 4.826494140018297 8.482041819909028
