40
Energy = -62.83784579 eV
Li 8.806973588873385 4.474436821576536 3.426905408875272
Li 9.267300440119906 7.532065642962621 3.361498834975703
Li 6.8811126265869955 6.313779341421253 1.469857274568041
Li 11.642403973742072 5.666364601972165 4.6475188030014705
Li 6.396215003401029 9.06638417644065 3.188083459494801
Li 8.978544556835267 10.58135090379331 4.406341998706259
Li 10.756347868051314 8.479714258448368 6.10170488167754
Li 10.038488229210358 3.3675039164987033 6.309992419918702
Li 5.52563954322354 3.9766518569073046 3.290134444397813
Li 6.716017017852367 6.318910904930283 4.194804216537838
Li 4.1088295959115495 6.984767850679733 3.148396230175101
Li 6.103336695908302 10.964270063308167 5.824124771340801
Li 9.215661749599665 5.983655742410152 5.860692880116796
Li 3.4255097912192425 10.062165269543577 4.155468389789065
Li 7.822090379433832 8.559109244957954 5.725953383010873
Li 11.137267809027382 9.021577978886954 9.318743877680552
Li 8.801745506441346 10.603588672542035 7.633125218508876
Li 4.911268711993077 8.284043092296466 5.602385374214018
Li 7.0601322595983955 3.917079304753547 5.9294338582057
Li 4.37417367652206 5.343792025755036 5.773932493257089
Li 7.203762469305065 2.132335095740694 8.308732413600447
Li 11.252150348023894 6.030121157831325 7.920534827652276
Li 8.465357038987646 4.81608757173603 8.483905363732854
Li 6.285603150592835 9.167833974843012 8.14045543538103
Li 4.528088799738883 2.467312456338703 6.566084077873448
Li 5.459470031908671 4.423345315125001 8.455207360065069
Li 2.2435013663113597 7.537703472740828 5.846881170622596
Li 3.634701125079009 10.093331901511071 7.459781295250582
Li 6.0509804235080376 11.743668681227506 9.011606409376745
Li 9.554392048677423 6.5566188657142535 10.737643514938389
Li 8.046782835781078 9.49976532543094 10.421172704507464
Li 8.95050903956333 7.746599836419604 8.303726987529405
Li 6.660214870531402 6.531832679467618 7.055362162941554
Li 6.940860754474271 4.021794912520794 10.903318836082846
Li 4.3451716701017675 2.432947779022631 9.806320863643752
Li 4.741325666624156 9.123736146964884 10.448902631670569
Li 4.108814988214533 7.129809201440221 8.231045128302014
Li 2.615255646332805 4.557654693232977 8.056960300746239
Li 6.637287075867028 6.80036330305962 9.910893503819423
Li 4.0941358389037354 5.5240241439780995 10.746644486336566
