46
Energy = -71.37796896 eV
Li 9.59526118342893 5.848982786892867 3.674371042550636
Li 10.220028092073026 9.254504839696379 2.791306102835995
Li 7.812904474340849 7.704183429922292 2.0418166516700698
Li 6.952166997181677 4.662475664390385 2.3554384602739926
Li 11.411434101209174 7.990904623153706 5.395109436241468
Li 9.629214767053682 10.852873491552316 5.478330427760578
Li 7.254620652704813 10.269568949834792 3.613375953660328
Li 11.296024139418389 4.838163773700084 6.149362350092348
Li 8.653444806562 8.209284949092721 4.961855397804882
Li 4.87239393888429 8.29077185457417 2.8902527117849246
Li 10.890718842320318 4.695309075022092 9.268712369842943
Li 6.525678455314252 6.459727691172511 4.2864757187018085
Li 4.067082701752991 11.030134887927995 4.280463594674872
Li 6.276859023875328 11.5849182954874 6.465902845595232
Li 10.612875837408335 9.456384040262206 8.131486191870032
Li 8.73948926887853 12.089946326685524 8.3073373601741
Li 8.300860698378486 4.7288553665648845 6.039002642311088
Li 9.853024621310597 6.824494970109483 7.51233860066057
Li 7.924215146276831 9.55783699374236 7.459993669119378
Li 9.72440181770135 2.6291181885615975 7.383392539491935
Li 12.613501326142632 6.944898605928674 8.14233575857748
Li 5.524045623251056 9.00988725674403 5.607040976903303
Li 8.808767349821716 10.026898436665624 10.618936408530853
Li 6.022542321344075 10.302638337656314 9.48654927375702
Li 5.027009812182686 7.9898652055184245 8.329195673672153
Li 7.072290555979497 6.9309573519425784 6.995128778298566
Li 10.432590159387335 7.335038461033785 10.474610362421561
Li 4.314405304457962 6.406182009157286 5.931968817411231
Li 8.67668203540324 2.6547432002102562 4.392373246533696
Li 2.623044126155494 8.37206871144942 4.961318529565804
Li 3.4926330247193786 10.145991489541489 7.342842077235136
Li 7.8620052841603485 7.6650242054076765 9.573020874807002
Li 8.032299669709008 4.788576247697318 8.948701034065165
Li 5.74246087611633 3.839111747721148 5.0325525984840755
Li 3.5956386591786336 8.125337721260152 10.799818665602977
Li 8.077957467401504 5.6195943390484 11.821089554785031
Li 5.390336650601155 4.85664285268032 7.892553143057032
Li 2.3909428405163533 7.1791424378254565 7.90169829643725
Li 6.4937746280482544 8.317621011502183 12.050232010659059
Li 2.8985628369626264 4.083289184730159 6.613941606030329
Li 3.260189402122041 5.07089537396849 9.905863857909889
Li 3.811473896733138 5.469671115448789 3.364434860167945
Li 6.762608517691896 2.3794102889994893 7.447982406618039
Li 5.802317993468846 3.4051388155180096 10.551075451788034
Li 5.694444508535012 6.220440015529018 10.350720445717391
Li 4.67688691867449 5.622889187838777 12.69698229479225
