42
Energy = -63.05870583 eV
Li 3.067039625476436 8.731555121173729 11.013407139127965
Li 4.949542736230094 6.57030904029278 12.257895887550752
Li 4.0223254962249975 10.700215421338095 8.777174755571982
Li 2.1033594930121433 8.5102776357424 8.132873825148089
Li 5.789729058497287 8.460240382227868 9.986195509864597
Li 7.7141746222815755 6.451970011023532 11.106667206860541
Li 3.913340821418277 6.317166380653158 9.398614915838778
Li 5.864462377570475 4.300599487691217 10.464304103306125
Li 2.964441236413625 10.347458521659957 5.9857885663761055
Li 0.9519247430602056 8.075788698872811 5.3340601133787615
Li 8.65497064453834 8.360666478433577 8.905002730664354
Li 6.847169241423507 10.485817528488443 7.697530631533967
Li 4.791980180156822 8.307593929107755 7.140347283662215
Li 8.67352742350804 3.576980333004565 11.222133615970336
Li 2.821108698005384 5.9749148910108065 6.41058709680694
Li 6.735529402747267 6.171904216848372 8.306046660833927
Li 4.830179729620404 4.002736649518796 7.597642394593373
Li 5.8271150680981645 10.20584454816036 5.030023081280395
Li 7.849610255959283 12.477517596786486 5.582407243210312
Li 3.7069157849095364 7.835699867641999 4.333995474027845
Li 9.59723594758966 5.447428930211505 8.992970792225048
Li 10.490257714047926 2.563126148396965 8.892353079603986
Li 5.644072912044297 5.845874231504864 5.462607918507139
Li 7.723159531596391 3.3354577286729885 8.317509437342059
Li 10.542274364509495 7.464907538214684 6.684580154762632
Li 8.569633942088966 5.122023707915198 6.040415974992527
Li 9.61122545566031 10.337833492693136 6.714052448767537
Li 3.7511236284021248 3.661301912538961 4.716971336392974
Li 1.7531216145060535 5.585892382634139 3.5539370639453356
Li 7.694889516657564 8.10782798175838 6.142658675055437
Li 4.59161634920858 5.490387435842431 2.6696169777954846
Li 6.55711673543678 2.9990687234771616 5.292352699312363
Li 8.588892007132959 10.024863849010384 4.047884390078218
Li 6.5862485797389345 7.745479957525198 3.425395932622615
Li 11.298249780637574 4.4084273503578855 6.599065438612817
Li 12.283841151545827 6.3689148219048475 4.481473989234336
Li 9.398244206301626 2.203993157378008 5.997176838387041
Li 7.3739889308408095 4.82521929547656 3.239838733025745
Li 5.383732031368948 2.611420821449508 2.4572901711531028
Li 10.24166185844144 4.10902585147855 3.8357257576434938
Li 11.464104299757308 9.438124619952658 4.517137303613298
Li 9.5001234103753 7.140798232350216 3.9601899199039186
