43
Energy = -66.64111253 eV
Li 9.494529968760093 3.5041466879134133 5.856669354994745
Li 10.278134653969271 5.952620709379376 7.4869195568457885
Li 10.203408798142652 6.213888266898102 4.451401437935934
Li 12.359925318895629 4.672480455595887 6.25377615599513
Li 7.37180546561173 7.018770767498891 2.3845858254764036
Li 7.600482523094689 5.707119298133687 5.119593891058451
Li 7.933624580225947 1.9185654568125359 8.08167727754704
Li 7.704088252570019 4.740218887246642 7.753579822415052
Li 11.846524692109845 7.972797482888278 6.2851465429078095
Li 10.49805036901354 3.581904564945833 8.818660191469597
Li 9.062047685168865 9.105910473817099 4.086684295655799
Li 6.276795222348286 3.103037804508052 5.630546464452643
Li 8.718783049112925 7.990236388017723 6.565827911282623
Li 5.014640638799903 5.3355129614494095 3.6909368869158374
Li 10.153798154191428 10.579427634702554 6.695213191285802
Li 6.133178334504143 7.9558016744283035 4.657968290482665
Li 6.4273183275653665 10.523827474092075 3.2868655515792686
Li 12.647012889916725 6.237949381209958 8.920323480144718
Li 5.212852872363398 3.1961385366269015 8.517268982762914
Li 5.17074523521175 5.5841425073728725 6.7187295280955475
Li 7.596637926816971 3.9720370596072483 10.406609137088017
Li 8.706980308076016 12.357359115425425 4.604835857183617
Li 4.305640481417103 8.181165980524119 2.6666840219203545
Li 5.397984950351399 6.045116671891509 9.51991883787619
Li 10.643963655320052 8.547706050653314 8.98688287197687
Li 2.8701166918956744 5.254453067067196 8.65721048837942
Li 4.55161355897235 4.147169187975969 11.330530793674933
Li 7.270808571261405 10.513918961401892 6.049184471146875
Li 8.108070448141257 12.769314136558922 7.748771954916493
Li 9.997151133957471 6.0480559031215195 10.663119585629357
Li 8.000052617213877 7.099200529896102 9.262988021179213
Li 4.400760502400074 9.995535054909244 5.639187515048403
Li 3.343352996530659 7.179446087390264 5.527945107327062
Li 3.674852661328736 7.092554474509645 11.402985918793002
Li 5.875920111840049 12.817528049135538 5.518121676468527
Li 8.127346673717275 10.04851669709766 8.812553681218047
Li 6.084971714774801 8.184225106295191 7.441218822562919
Li 8.789406465338638 8.983835239316077 11.441877491546329
Li 3.6277342361218796 8.302117693585298 8.451951897308435
Li 6.798499200313492 6.501786595387125 11.95041178066773
Li 5.480027348180621 11.124220633935446 8.337197491762845
Li 5.937739534116009 9.001903953966677 10.428363944736656
Li 7.2754828039379635 11.793527986878004 10.857297080942594
