42
Energy = -64.78671116 eV
Li 11.677218604227502 5.159422517818608 6.562726204605383
Li 10.735733777899103 7.678157391684784 3.750360355876144
Li 8.442212395453945 10.081139180105975 2.7272972503512087
Li 9.338715567482517 2.865521500625899 6.408148307115697
Li 10.239410211929025 10.564065500702045 5.299121409670755
Li 11.910895528713539 8.303266985223328 6.496024414724765
Li 8.919915356680209 5.044900276865036 4.148730410718392
Li 7.59622631732544 7.126178065335772 2.138180907321858
Li 5.575100642908226 8.872974596537787 3.7694691676181122
Li 4.383813387040823 6.555188930875388 2.1938849414267096
Li 6.434418805060634 4.2030750481000325 2.1634571907333418
Li 11.28305937856932 10.533093833046141 8.437716002698096
Li 6.561455741744976 3.0605878051369078 4.996565580509699
Li 9.63839336494382 6.777116876970514 6.507152240907581
Li 7.102207783728543 10.709404587481208 5.652735117135616
Li 8.262632954402081 8.219482383679397 4.715263203219361
Li 9.302925823604776 4.594058194314144 8.895307976152871
Li 6.344018850330552 7.7386628902192935 6.531346354319706
Li 8.654688778120086 12.05886835054093 8.028227879753002
Li 7.559707035227415 5.093004529245313 6.7239685527990725
Li 9.070329829000807 9.376324801456834 7.44005934266496
Li 6.100594031218301 5.9309437438181964 4.285706523342704
Li 10.747459423498915 7.3070544428834525 9.160509482842572
Li 8.790538662492272 9.57163292121355 10.292410691527792
Li 7.871744434950039 7.308169747616396 8.77598934219987
Li 6.321402968276222 9.955712171810159 8.486597213362172
Li 6.712468543774475 2.7055098351196247 8.064871067762834
Li 4.062755758748883 9.835591342853034 6.546434723549403
Li 8.29153675405615 6.337439147152467 11.345381823372982
Li 4.841033477941345 4.879295318809509 6.875405424630465
Li 3.734869712941959 4.27354172160608 4.297999706046049
Li 3.5309516087215957 7.102506429106078 5.29080582626667
Li 4.249527951270162 7.460218428305377 8.243402876288657
Li 5.763262134992269 8.068487435157797 10.694920571665293
Li 6.0866489105191866 5.410137625746515 9.410218218482875
Li 5.1844263157119705 5.366435022488793 11.98559652712778
Li 3.9905238191103383 3.660873102121237 9.579791550173343
Li 2.1740070600984223 5.2362015451602675 7.390713937487397
Li 1.6109892970661341 8.204885002670075 7.696496908693527
Li 2.7807013857006138 6.534668625812492 10.240559574226225
Li 3.3499644518943783 9.74304156250074 9.67211307064264
Li 7.238388259932585 3.4054646195368066 10.93757408373585
