48
Energy = -75.01438794 eV
Li 7.546795282717106 5.456078393511407 10.858665346131307
Li 8.79886175630505 2.7598566101524096 9.471648564078134
Li 4.163243043056014 5.599118705044855 10.560034078928801
Li 1.342938257584813 5.587410334672459 8.928806390509406
Li 3.16427061027615 2.8932990162202294 9.07611968491201
Li 5.995710432310267 3.7341851187516557 8.906026577580375
Li 5.9944702161249275 0.8471149536015385 8.346421784188532
Li 4.681491587032586 2.659644718790097 6.476929630350909
Li 8.549216697581324 5.200629399568234 8.122954525558768
Li 6.08217119934324 6.62895821291517 8.67382172127077
Li 3.460876071958583 7.991840094617807 8.818376730908753
Li 10.594900485728978 3.6734624514741707 6.946358517818596
Li 2.079393708748971 7.009102744325202 6.130090044082499
Li 1.7617894052419945 3.7301350920129335 6.30922908112488
Li 8.627059680773288 7.919173440243622 9.48512478259993
Li 5.84855437654495 8.535568945685235 10.743759453939994
Li 3.741991484621645 2.069027825014545 3.728349944160472
Li 3.7463979875225806 5.2828941250005546 7.660311026537491
Li 8.860105978825834 2.3600514002856876 3.8687732695075194
Li 6.3446039389322735 0.5593163766995599 4.929668086999502
Li 6.261640693975356 3.2414385465005453 4.019163335911397
Li 10.65105642813955 5.308694742100114 9.846458861958107
Li 4.303258450201124 10.958958384366772 9.56284768422677
Li 7.693462622331391 2.698442734206444 6.6298044454908895
Li 6.372887237772974 1.5434327507801076 1.9329528187167124
Li 3.904958771522006 4.969384904333192 4.707795337397047
Li 4.967565296097267 7.667163715762515 6.001871339705131
Li 9.774374935775134 9.836417265392791 7.643844539051726
Li 10.67440144280768 6.832102752701885 7.099387105027276
Li 3.3522115585032073 9.988427426025732 6.566874626370219
Li 4.667892093043829 4.4943383339492025 1.7909133312292624
Li 7.984176756637059 7.743256371905681 6.648548612706449
Li 8.812842090512962 5.312230393878596 4.910317305589483
Li 6.341119996084382 5.249228881969718 6.243436312571393
Li 3.9205264563189175 7.743559872943977 3.449097218409701
Li 7.759582262109717 4.39833637308067 1.7394597967310899
Li 5.99787305069437 9.49543724752381 7.879994696648712
Li 7.440765127586684 11.1622265238877 9.36557415421875
Li 9.879542694838326 8.762660993607167 4.735413581986121
Li 7.06954518957434 8.346867762132321 4.154649617241636
Li 8.952137143018595 7.176376046971378 2.3837558904845757
Li 5.295818444178442 10.500537321011759 4.3036331997423725
Li 6.3215953029572125 5.983895709671366 3.495505495748464
Li 6.2272009138550075 7.755283070562313 1.3555975100212958
Li 5.558278655429746 12.262767405138769 7.009699398231409
Li 7.995264425856641 10.396376363667942 2.654268806423583
Li 6.9155403040590055 13.021304745165526 4.239463358362974
Li 7.707574893105716 10.730755766756227 5.803254051343368
