48
Energy = -74.59699699 eV
Li 8.06002197201728 5.376180428742077 0.34043165156284017
Li 6.031136209646249 7.876058792687987 1.0523577630620673
Li 5.610947769327499 4.817535459564429 2.2619243369890287
Li 9.015382549560107 8.208928151539912 0.826388379383888
Li 8.314184748232126 3.5090186064746915 2.8215957388848696
Li 6.195724437211201 3.047412198523739 4.903807959231592
Li 4.101016407595085 7.115348776836611 3.312122593565076
Li 10.431430766223446 5.8921816780145235 2.6664534609116854
Li 7.765478972380767 6.50483856868665 2.843722755464227
Li 7.380411289892752 10.571307172639985 2.2735563224159425
Li 4.219418600111826 10.067447442039615 2.3611667003849166
Li 4.738541989855095 4.230352389967356 7.2404605484158635
Li 8.767686937126978 1.8813364971990247 5.689911397725238
Li 10.649289803082915 3.7647237842498633 7.402844617605395
Li 3.443498674075943 4.329983802602587 4.541301096143309
Li 3.5104304901915198 2.522089885033873 9.190831747608668
Li 9.485666536447487 8.658588280474614 3.6303634150629964
Li 7.658839573817954 3.90560357203263 7.466370822766383
Li 6.081548717175217 5.844764088103734 5.115310481020253
Li 6.252883355945211 8.776323281391463 3.9238843034411306
Li 3.6727798085025882 6.720657283394104 6.334367242267999
Li 9.031203918272194 4.9584245937157805 5.179650350801565
Li 1.4106292909642486 6.725761747806918 4.56015938537261
Li 6.014674870796938 1.5995594110793099 7.706522580940526
Li 3.232605542098527 5.496302801264098 9.305563762984505
Li 6.376532152369526 1.8380096260939562 10.877935294958638
Li 8.130018642801584 7.5573452806313375 5.793958941446259
Li 5.992985692441213 4.29515948070161 9.908834897580883
Li 10.936469866967053 7.133591149489058 5.8557880152824415
Li 8.742687404352552 1.587862895290661 8.767179062433224
Li 3.302107241721113 9.287624979113426 5.316288262480005
Li 9.226168691867594 6.184893944039186 8.112675790580118
Li 1.3798226266995939 7.789946824507571 7.427849419592482
Li 1.7111982379179527 4.596890551778601 6.979771060148919
Li 5.962090250102983 9.231491557332346 6.811017041529176
Li 4.087598677932633 3.8243372079874463 11.884442272901568
Li 8.348947301055004 10.5794010031305 5.424069786387489
Li 5.523667376815322 11.474865194535687 4.9173748804614394
Li 6.360436279151356 6.642028566224619 8.214713567889268
Li 8.828880125599511 4.067089693616448 10.215019382849732
Li 8.821150886489157 9.111845954004266 8.085923351033518
Li 6.993740680618257 4.540911685284017 12.580997903907095
Li 3.972047104903915 8.22402506193897 8.732160530914513
Li 6.9107471678416745 11.753920492748579 7.7859121397130915
Li 3.9857611240127038 10.975028744204922 7.754942309109231
Li 8.015395940668617 6.949711310229869 10.67276468432574
Li 5.202858455616276 6.740532093554794 11.233648208759064
Li 6.380217553067681 9.422135668654871 9.763894960281789
