41
Energy = -63.01014474 eV
Li 4.71229049081051 1.9615849327653092 10.07465336072127
Li 7.814144954185571 2.8804599139756792 10.232298413180345
Li 5.4294557990176235 4.040311178915736 12.048955311235236
Li 6.283465571803392 2.2999302096195717 7.450126832356286
Li 7.705331370510323 6.155013366569096 11.124740909728096
Li 3.147436736634374 4.708801643688275 9.877851810840621
Li 3.261794645023112 2.977186775838819 7.360929646174024
Li 5.8614307077241445 4.4725854730692625 9.300137800911083
Li 9.051066174673373 5.27605064414964 8.595234567317496
Li 5.968242276756984 9.458271583514641 9.890333945061995
Li 9.154404953692213 2.6648028476777657 7.273321725940518
Li 4.849943142837523 6.8529613221674275 11.043584231776386
Li 6.602962258133906 7.048483523904413 8.611435502047327
Li 9.060525039111015 8.413211435500507 9.214184303400575
Li 5.179991513772162 3.2912096526546133 4.905478479490979
Li 4.35987687552944 5.4314491848806306 6.998292034638582
Li 8.020305818385754 2.9064029505999818 4.4375677237833475
Li 8.694059660054664 7.330244316263525 6.451664810049696
Li 3.7163972227795097 7.735254954228852 8.468931660941223
Li 10.16769352880919 4.902192589444963 5.651748953111908
Li 11.295126411306338 7.143192094457018 7.442938705774851
Li 7.155002842409773 4.853045769484208 6.4255029127502175
Li 2.652854684909775 4.693490961789147 4.629499030157268
Li 4.398144188071444 10.281011245819846 6.910741986476796
Li 5.528659415887309 4.376498463276171 2.142428648473461
Li 1.54790526454373 5.717866254080007 7.399145861515586
Li 5.2106389579545915 6.136271708510015 4.230323471739106
Li 7.281975234508924 9.885784280341037 7.343380090472645
Li 8.009490172891322 5.849752198234417 3.7234760248505716
Li 9.97816272962293 9.854439348949612 6.431960181887661
Li 10.563126096764753 7.7060286605313895 4.358325282211839
Li 2.9275515996900183 7.641326997449155 5.479397914903217
Li 7.704497806170357 8.785337112964235 4.1088769055776595
Li 3.20828119868526 6.735074369841672 2.4244062866806098
Li 5.805441181442243 7.938020881409776 6.142740648848455
Li 6.116798337738281 7.476231684422584 1.907070253890439
Li 9.043523444842661 8.16962080896071 1.6856573948765896
Li 6.8638517108014785 11.342298876940298 4.900493661656018
Li 4.767327499480497 9.337731389672399 3.8484295078841164
Li 9.579393658304186 10.660728419484904 3.403419278134982
Li 6.997978574466557 10.485337877952214 1.8719953391805335
