49
Energy = -76.71885492 eV
Li 5.003439631239815 3.3276724739804657 10.904608282823736
Li 7.793986996931198 2.28580436885526 9.545444452088162
Li 2.369399614403342 3.8938576436284276 5.85332315703141
Li 4.668815672327118 2.5306424049843983 7.797647846848715
Li 3.2780434919702603 5.081766618674641 8.891752904014512
Li 7.895594618742459 4.777905680153959 11.335433218877649
Li 5.188654074152263 6.585224967138657 10.861036705170525
Li 10.652954459671417 3.339519305729274 10.623415920848464
Li 6.196009463019193 4.679240986393634 8.860324407802866
Li 10.43010358908395 2.366767670951309 7.632340896273444
Li 5.383057663405613 2.7209576036537264 4.66503359858847
Li 7.5509297059862535 3.3357237971668727 6.6173063355470445
Li 9.238399449747863 4.615515116818653 8.712457895470953
Li 4.956705345150961 7.387067089539409 7.857713790204167
Li 3.0969855770407393 8.58015279787778 9.40905422194859
Li 4.721034039872949 5.083747997943465 6.21185123193466
Li 10.340545864923685 6.54232896114809 10.542882529817588
Li 7.663713604778069 7.070946188616787 9.472914921725428
Li 6.429260322752004 3.9512635579025783 1.6004587934687105
Li 12.014631365163728 5.093489854131677 8.268314272629828
Li 2.060000096501966 7.060847166525518 6.895895284805253
Li 3.7744261990913497 4.49435996640327 3.0153440902192585
Li 7.420812421510132 6.147198333026313 6.695943963810093
Li 8.660926112587653 3.7275373365502436 3.8402575021998073
Li 10.21094894157192 4.897760707005628 6.015138087470128
Li 8.00522824469245 7.9079748356515545 12.065238662207717
Li 3.4198743136628913 6.895915170684886 4.392824565320123
Li 6.480630578596994 5.332132260098819 3.9959049119154493
Li 1.410199238304247 9.150281972828061 4.396586003675678
Li 5.340590920915168 6.99203505864171 2.0215783648243413
Li 9.820690351067666 7.349233742861928 7.631902933189571
Li 1.4951024930224015 10.228133125640074 7.2675005404693716
Li 7.077251221354728 9.13529918272785 7.3390088195663745
Li 9.183042278029488 9.52888355703072 9.509593525476658
Li 6.141670818261557 9.49460446762199 10.041208621158463
Li 11.089463387377327 5.626658627915023 3.2451468971476816
Li 8.991408019445132 7.135603144584134 4.587104966034565
Li 8.389020751732192 6.392966866960234 1.962735553081768
Li 3.6953954045606565 9.279723989720491 5.995613642465075
Li 11.807888270820198 7.414055694415606 5.5941272164351705
Li 4.216512101713107 9.67650894412304 3.1987367697270646
Li 6.014456545681133 7.94231939234466 4.939842975373773
Li 3.0661235230482644 11.850889052950661 5.185777338456515
Li 9.260595601052243 9.750660830945234 5.750914359401386
Li 4.57105633663577 10.97432522902068 7.918767899671377
Li 7.510909857578202 9.224702549039367 3.009391647961739
Li 7.619824809309138 11.80964426830583 7.917674804277489
Li 10.56738286603976 8.677352251733481 2.933122072588731
Li 6.104080438967743 10.958834002010812 5.292026004895287
