48
Energy = -74.90840147 eV
Li 9.905604842128014 9.61823823033469 6.104502571440085
Li 10.649906903762686 9.194524726353418 9.249489560772906
Li 10.74527941719771 6.965251705714584 7.110629664433967
Li 8.134117739444418 7.003080231444948 5.648198783350193
Li 10.230405677691977 4.91809247741794 4.926760320781939
Li 8.085708607386897 9.35653497433023 3.606159725748686
Li 8.480452847381228 12.11920261362645 5.019267599871675
Li 8.544736536522981 11.314396682257328 8.2550287462739
Li 9.116994064040146 6.438397475389759 10.01838681709073
Li 9.271811538917794 4.493510867493306 7.7619323862813925
Li 10.395743651012058 7.572682931244796 3.828982332761262
Li 6.996659990905233 10.06737325692044 6.154054595497744
Li 8.013550931376074 9.29573190154207 10.857657389065057
Li 9.976878327999168 2.108761492808547 5.791350543155459
Li 8.246912575594619 8.326256005776447 8.239526096483456
Li 7.742834129007948 3.841033566471749 5.1302575189537025
Li 5.555277241002694 8.100920083463556 4.212428470969468
Li 9.114773459418476 3.065967041894412 2.8227942029304085
Li 5.96829472926621 12.528492437569131 6.813687984292994
Li 5.613719951626081 11.078738878125495 3.8310803093627377
Li 6.6135406817634665 5.083755779619839 7.4739368234004155
Li 5.830409655062768 10.085215760295206 8.841893316889543
Li 6.0763922308292875 7.019209507906722 9.8369549091677
Li 7.61888137926008 6.062368069138701 2.992942484224777
Li 7.359024727875039 1.0317557653005296 4.626734458149279
Li 5.944531483305902 8.762904390159322 1.5172150086490355
Li 5.0303514631064274 5.3372701736925485 4.988091801128805
Li 6.801545526786807 4.115721621923068 10.065157687492336
Li 7.434573582217623 2.1689774670257296 7.548532186999966
Li 3.226612657298806 8.975952294460837 3.18942510808315
Li 4.007223972928912 10.113098196776296 6.294046239624023
Li 5.350608861197731 0.011637105827249744 6.896895868326744
Li 3.5713071967146646 5.302671348437041 10.645955296075313
Li 5.602533912399714 7.752723871573055 7.0756795939433275
Li 3.4095646625552476 8.205768435209965 8.99857690347023
Li 2.1221938147429453 6.05482406486122 3.8024758990293246
Li 3.9193437256245875 5.488650897881299 8.042003394256843
Li 5.046288777175967 2.54246766496051 5.692726855737166
Li 6.012367746692925 3.245511466497898 2.891652074858421
Li 4.616294890380458 2.729770397047132 8.45962631338342
Li 4.453486237503898 0.4730387399590518 3.9196667430680106
Li 4.608091715675959 6.109002464867917 2.240608728488146
Li 3.060619069937866 7.410477083125969 5.993793001133268
Li 2.602124046519098 1.3015543525653752 6.306941327803059
Li 1.2224459079749639 6.265133881544954 8.068026805402205
Li 1.844923750571136 3.3430064637545183 8.825589588427647
Li 2.433593946554513 4.230981583491433 6.119098715460604
Li 3.1238991044836935 3.1737089110753356 3.5067964000555403
