45
Energy = -65.17734388 eV
Li 11.636818362311326 4.880583418342323 6.3718757671540684
Li 10.324397888343151 3.2664696586672224 8.263972849123139
Li 9.857141758457395 3.04970380383853 5.471050362511798
Li 9.367300242213242 5.1042238959645045 10.306890371057998
Li 11.08778625827144 6.251794507825718 8.731043998757393
Li 7.528772171649053 3.2417742726058534 9.483816838518711
Li 10.072146159627577 5.383027882784358 4.014838619846021
Li 10.620432427409355 7.501239864871235 6.160802922811897
Li 7.312152195969989 2.782999682898358 6.710745818238909
Li 9.32836277997379 7.996649598103621 10.910670955134329
Li 8.884029516888944 5.149922754961093 7.171787932112225
Li 8.382389888178105 7.414176802987139 8.706529405897047
Li 10.462147596652128 10.26157516273629 5.482661615935737
Li 6.941284360669356 6.009279797521565 11.168036046419715
Li 7.5886597200048005 3.838854976777916 4.048811121780579
Li 10.345956066740683 9.565852888544486 8.170851627606336
Li 5.0706714151796195 3.880852150148932 10.674357324971423
Li 9.42284670962881 8.337806777678528 3.6327392598328547
Li 7.6083961298203935 6.583246172535422 5.148150857097031
Li 6.010699162754492 5.299730369307875 8.52295681277925
Li 4.841037773394273 2.5660667581314893 7.998680541439404
Li 7.933553881317342 6.1958141957619945 2.394506969043779
Li 8.427075661844412 11.643088981848674 6.919025950204397
Li 5.394331391444332 5.379669249441735 3.15986197370413
Li 4.7330261898068455 2.776002396767826 4.86414430474189
Li 5.287559868367645 4.908076321699697 6.036130555380689
Li 6.159717488158152 8.735201467523236 10.58573415136093
Li 8.147081538561691 10.81148661519072 4.140338610099162
Li 3.1162616641653766 4.548528839723086 9.026200125639273
Li 8.057179684754065 9.09011828696004 6.417759302784385
Li 8.168091202584835 10.250505669797953 9.454887087745274
Li 6.544392117574634 8.620774217388938 3.2857318552970733
Li 4.276239344369226 6.648892693373116 10.479908648220182
Li 2.9828970060637765 5.423689064331174 4.353832372452697
Li 5.545905552819884 8.044723576659559 7.816203425016231
Li 4.688148597838343 7.7011847600594425 5.070410498393864
Li 3.7216102276260914 7.620438548483502 2.478817459338143
Li 2.6927661385494024 3.8991558869930047 6.639899739264141
Li 3.54989651979103 9.086599347676637 9.360761549827547
Li 2.990954706653855 6.815472485117682 7.262263134564411
Li 5.783648692688608 10.666823623292142 5.531089474645368
Li 5.745383913908266 10.75754003711037 8.367102258562863
Li 3.8536756547265325 9.994799350723227 3.7275190792866613
Li 1.9990706603733825 8.085645734926185 4.704846142734896
Li 3.3592212239874417 9.718695842118613 6.650406200778282
