48
Energy = -74.64814991 eV
Li 7.118555826170137 12.037353192254148 6.7049724935925195
Li 8.49121888440949 2.3323628569701174 5.058214395761124
Li 5.65514861724004 1.683535966663247 4.874209223079457
Li 9.362396066258992 1.5825571854295664 7.920814213637973
Li 7.273884840462921 3.566461630808141 2.5119885695888167
Li 6.847573669378007 0.8522960198091603 9.561787311914989
Li 4.409782705684193 1.118632728046834 7.678974206645526
Li 2.612133652414001 1.575345453523638 5.372861751617335
Li 6.865188335483783 2.5575703699577117 7.360364423134896
Li 9.125994895280467 4.598497624826543 7.109507877292169
Li 9.723860885905275 5.084884032115841 4.361729050142817
Li 4.077753622551958 3.500469430450113 3.351012144342991
Li 5.011622671004315 3.454057026094303 9.5650257116051
Li 6.4967328768374815 4.820502146272158 4.913401028506946
Li 8.084416724227223 3.780672307543168 9.858681793482855
Li 10.32200665041421 8.042562683224489 3.8890553040519213
Li 7.958046583440061 6.619059079318576 2.8299113140304333
Li 6.557983764289377 5.349753603257796 8.065906303041896
Li 6.424143138416667 6.28770229182451 10.92128233156071
Li 2.035503762827381 5.233796800517882 1.9575202848771034
Li 2.065979125143915 3.388992643628034 8.046920313299113
Li 1.4614768264599094 4.252913534835469 4.918589857060776
Li 4.1760140271383195 3.9344479548952513 6.4752376267095775
Li 5.2453634381998 5.907186036379951 1.9032972488319593
Li 8.001597480118031 7.223791156255262 5.962812801779408
Li 8.867097826280636 6.918085342553298 9.108007838760154
Li 4.857832488596885 6.952317738182607 6.507254500928536
Li 5.7323987017662414 7.957688090517912 3.9705120187136016
Li 3.8618975903754262 6.081757285972194 9.127683305503256
Li 3.453865770526058 6.120241455871276 4.219751105700056
Li 6.631809933163854 8.950197727085854 1.544532440678108
Li 2.0343435242426335 6.494598474221236 6.888830333211711
Li 10.656725729804625 7.386399160010228 6.7103295188104415
Li 0.9114920426711457 7.156769499745551 4.076727276659372
Li 10.929266669336746 9.437976534448605 9.057661767256665
Li 3.4891869872486163 8.327604757336221 2.276937849641494
Li 8.495511186851825 9.5966712302922 7.659132820492901
Li 6.231050528101932 8.14999971104521 8.772475658691377
Li 8.027810801530777 9.704723643578207 4.32073103699992
Li 5.886931285404954 9.669992555508697 6.355272296425785
Li 10.512464024464514 10.508319178435316 6.111662177939407
Li 3.5768552205092847 9.068670311977481 8.34580834773599
Li 5.289504420678688 10.82365900310557 3.7056677160049545
Li 8.149028070905329 9.508444879303108 10.541705437392217
Li 3.1735956155857563 8.959281527194289 5.279268862341818
Li 9.308721967048072 11.984294608591858 8.714242371781701
Li 6.21150432935669 11.183992131912357 8.77773376767726
Li 7.620466209837221 12.037353192254148 6.0879680401732275
