47
Energy = -70.42312653 eV
Li 11.808815960337402 6.009235565603523 7.508390821049823
Li 11.197582416565023 8.554495445675364 6.36730395660298
Li 11.453188836709295 6.337297384936113 4.498527768840685
Li 10.391559188273733 10.587111717486588 8.243835816337123
Li 10.240239890639645 9.712861395516338 10.976754677125209
Li 9.829054461368004 7.560976645104682 9.132531049048236
Li 10.5844007330285 3.9329781163164266 5.780991612694361
Li 9.376034372635857 4.610808133299481 8.615236192129405
Li 7.770725940847059 5.662540065572508 10.855916720234543
Li 9.985669169912516 10.976918053812454 5.197769271577752
Li 9.02884942527285 6.571435303263711 6.427951801420796
Li 9.405620094160298 8.380887910776197 4.0292021817279915
Li 7.933602312369939 2.7917571021862777 10.480969734029562
Li 8.108183632438424 12.168971342128208 7.132620186669811
Li 7.798588119044851 10.597726150201817 9.647571554496439
Li 7.612140030368505 1.70015227452403 7.810741139832968
Li 8.699287397460946 5.352644759251334 3.7098940686081328
Li 9.014284238815007 1.6271779011286838 5.336102434876226
Li 8.16673179158897 9.28997342451662 6.803244643681835
Li 7.73783857141916 8.380940821117948 11.517066769104034
Li 6.796612275643695 7.535898513348348 8.616058027789837
Li 7.755140130733382 4.097966205163046 6.234176028650292
Li 7.161839033247397 10.373292084851746 4.2503272872958835
Li 5.120828708631957 1.7666183297017104 9.293127691735071
Li 6.35461882988187 4.376796276002633 8.687883901951594
Li 6.807828509101367 2.6897352905985112 3.9084544270551937
Li 6.812007529305503 7.555249271097531 3.0247295712600883
Li 4.774073839515159 11.714947050639742 3.264592463293661
Li 5.7476870183961175 5.490129142587507 4.765743282376394
Li 6.359905138993391 4.769327342954199 1.937190261845966
Li 5.619359048552188 12.447306932219465 5.815235098746122
Li 5.175342986624216 9.257734843492365 10.490711780402265
Li 5.735295229124939 8.24437063792682 5.804276665655537
Li 5.285125461563503 3.7729957017193545 11.32398263544766
Li 5.556461729125682 10.592414055625468 7.972680081847237
Li 4.642472161719409 6.10022233712952 7.3057504366057096
Li 5.028592317406893 2.8895488871829453 6.410024347602099
Li 4.630781354561998 6.392195614472948 10.304524266309917
Li 4.087924737375663 3.43925965277865 3.454583958278993
Li 4.346241140607118 8.952927396129148 3.2888985933279278
Li 3.876857456636262 6.164319653478159 2.634643929570421
Li 3.3364940991070657 3.949947311885487 8.7619334682849
Li 3.643225098916264 10.305603679089451 5.7571122287694605
Li 3.5006158578256965 8.636267268596932 8.164161954190028
Li 2.6944976076857134 4.6312008738608315 5.70238556246865
Li 2.8000564890925927 7.553599094627215 5.404752100482813
Li 1.7644472192608047 6.298144901604695 8.055147368098929
