49
Energy = -76.28952884 eV
Li 6.064470637575479 10.590892657514669 10.584251772680988
Li 7.23610434097224 7.481907466510235 10.530323148662255
Li 10.294939950433141 6.561174144816302 10.172487470711829
Li 4.217019897958825 8.28835617830106 10.038321730442723
Li 13.246656021074275 6.319039457078368 9.822717493046685
Li 8.903266394699386 9.849384569016955 9.813182769603664
Li 11.69226912491426 8.874230210749769 8.642346467526513
Li 6.2467288398165755 11.907761044645861 7.809226161355857
Li 8.139983525620488 4.2767942114274335 10.486123343093876
Li 5.014883042408998 5.174622459752532 10.006908317482353
Li 2.1594680612669666 5.611261874810773 8.876658669440978
Li 1.7385370117961305 8.600684472633024 8.270694031787938
Li 3.39761665209048 11.16496459369509 8.681769003640111
Li 11.402158044240172 3.769791607141108 9.43721641723069
Li 4.329618903703291 7.193476906942863 7.609880327771636
Li 6.908990182984149 6.141644149071506 8.103898780855378
Li 3.399565772296183 2.564891449247507 8.902195716700385
Li 6.47788859240756 3.101651519266399 8.224519038924138
Li 11.669191904834035 6.050057085219036 7.455301051599044
Li 1.7869819092697783 3.794261881507799 6.391982298279621
Li 9.201047582042753 7.707605867760123 7.968036466622037
Li 3.8644437366889877 9.696774481764471 6.545479355137075
Li 6.405163119349137 9.19737634840226 8.155630414659147
Li 9.237711830402038 1.737476083164114 8.431902551269971
Li 9.148597259989687 4.463976111038607 7.936089092545579
Li 11.907620026141077 5.712595478893891 4.390357177714152
Li 9.376874888097708 5.766670823883204 5.515787635961506
Li 8.958729355952494 10.456935781844065 6.9282532451455054
Li 4.193339579993426 4.585106124213021 7.284891414726654
Li 3.7453932386922104 12.28188769377526 5.657911476908516
Li 1.3359205396282505 10.461225828416556 5.978951621166882
Li 10.854962091473196 8.338667378745228 5.680818385769481
Li 7.6771083005660445 8.056401962906882 5.6279564711095444
Li 2.1471668790419702 7.149175592922306 5.672491040022041
Li 6.455235431089337 4.9423438564224265 5.6916925726673755
Li 4.813193547050889 2.357190460944563 5.777842671339971
Li 11.101483142391581 3.2946122536041442 6.18560294398551
Li 8.127615078950706 2.8015629369108668 5.588943167387724
Li 6.204053890844537 10.441518191822807 5.21084424572387
Li 7.133563568589409 6.2174941878626075 3.432834816711577
Li 3.8726052080522004 4.969863925256233 4.436190068419535
Li 3.4551896610444954 9.518324439364848 3.73680998069722
Li 5.0695675673821095 7.526910095100462 4.931636643526533
Li 6.696602793507139 8.8301673116315 2.6110506583175623
Li 6.226832145163929 3.7375188110403466 2.9614922200124587
Li 9.542056092730785 7.496295039905344 3.0097795596557044
Li 4.667112484181699 6.648287838185009 2.1332024052627476
Li 9.359081831735068 4.359388017979481 3.108185532262808
Li 7.614255976122838 6.096368388997451 0.8301000816907385
