49
Energy = -76.82745446 eV
Li 4.822563227212486 5.659354251304118 10.591654420985618
Li 6.837919231536886 8.077636965276767 10.976071881349242
Li 3.744321045568953 8.797464307796377 10.323894600340372
Li 2.927824427205647 6.439170283381782 8.275370514370248
Li 7.772772404256804 5.152704440624764 11.999252428033001
Li 1.8544571080099503 7.028327418082272 5.404072742740397
Li 5.9859248715182405 10.526827370700506 8.548122276240674
Li 0.8514730405314682 4.55652065143409 7.228043297605533
Li 3.5342653107911692 9.339028870348681 7.144350688447793
Li 9.970709245974772 6.949932716847397 10.37984316883615
Li 0.357760164487159 4.627903757052804 4.325796550340142
Li 6.401403435052855 3.069558955063436 9.841782848319799
Li 5.193157020840698 4.751457535902371 7.754235282598899
Li 8.326778486728083 8.551202823621352 8.295965734056539
Li 7.515798470205321 5.755230012896363 9.367754920665602
Li 5.476385737242098 7.706154540230907 8.514270813246759
Li 4.6402636155568935 6.8076172274618445 5.813037914448363
Li 5.348489708287564 11.579128576378663 5.454721272135287
Li 9.709287980449718 3.958549828182298 9.685334910837756
Li 3.14796071736773 4.37670851210967 5.549010916136154
Li 8.406546987864928 10.885198920938771 6.2641446239833245
Li 1.8571384244358005 2.0492350420689354 5.653605783305164
Li 6.329500604257993 9.082291193727746 6.034125459612255
Li 3.158004434227087 3.21765159634026 8.779210696096397
Li 7.203985331661092 6.425138998825657 6.651132819023143
Li 5.209677209603182 2.096221499487078 6.8206099300317815
Li 7.873960785883426 3.660288178928882 7.2008492413234055
Li 11.26169190860176 8.468443812665747 7.760207048063797
Li 6.013576896185944 4.33053883614187 4.759823796501436
Li 12.339440408411969 5.592337228619537 8.597707863373886
Li 9.894259380759527 6.009392528318758 7.62025186634978
Li 2.5554721146474844 3.882675514308728 2.6507027674410932
Li 7.027620581788207 9.654119276629846 3.3214553012296073
Li 4.012580376592256 9.006881039527068 4.165319092913476
Li 1.7025843878767235 7.010791593774702 2.3457979880436537
Li 9.194491852748206 8.122957796463478 5.4453415026372385
Li 4.563055790150315 2.045754908425682 3.960943523803091
Li 10.846887839001248 3.4591059827782447 6.656006202083531
Li 7.785157067682565 2.1877693283208623 4.594432479441227
Li 4.197944269272172 6.163882883503563 3.035323561080123
Li 8.26024176321304 4.404774930778732 2.4326762801190562
Li 11.733273991119932 6.307554876844583 5.49048409134643
Li 9.074420015870336 5.1055015834049335 4.964659418541827
Li 5.506058298014843 3.9225673638076817 1.8631875775314877
Li 9.534986206471379 7.183416327424123 2.6641158153378384
Li 6.900791052097589 6.895727319535791 3.7972436939662346
Li 3.609169579947999 5.751334754174518 0.26687211085868273
Li 4.444019116507934 8.488976391629269 1.368869504084965
Li 6.7104761418188925 6.637021727834026 1.0267502663246786
