44
Energy = -68.00620885 eV
Li 4.492857386274414 0.38422944592671476 5.854336296320951
Li 1.9962122595446024 2.1329629898322673 5.393860658717671
Li 3.428651371240488 5.235576488573351 9.397175905860315
Li 4.00921701505502 1.8723614044386603 3.188909189129328
Li 2.1324379100792994 4.916306601271101 6.521269080694853
Li 3.601422816380267 2.440541419678182 8.07752493503525
Li 3.5622024838684205 7.898919074123818 10.994888038337345
Li 6.105981409395478 5.889700074681274 10.94834114188664
Li 2.4914634378802782 7.824362588392654 7.881797939794234
Li 6.829163209208187 2.128391413535668 4.181694541753261
Li 2.765037530233462 7.644116053149091 4.507396087341903
Li 5.711287214437732 2.9116903600161868 10.355420985230394
Li 6.651478382152425 1.8692988770096914 7.527200102983136
Li 3.3772099407122997 4.787723189177388 3.5989603850086813
Li 4.613615524928003 3.191576117524008 5.68450257384665
Li 5.897215500999262 4.712907240952044 8.2954011129888
Li 5.1727329570035145 7.598261577834115 8.795492718243905
Li 5.7127278892374616 3.8303489634538908 1.6284636438916653
Li 6.612603019871514 9.010263212450925 10.884837308204647
Li 4.193341477193315 10.260210929950468 9.104033618084527
Li 8.514677886269919 4.046745348873644 9.149046122075397
Li 4.506306429439853 6.092482750001007 6.218711663806245
Li 7.468023264365848 4.212506402339288 6.156668594857718
Li 7.019490302073366 7.104095579143029 6.575246766943205
Li 6.238963232615945 5.076912021466406 3.9702868871380645
Li 4.616354826184045 9.179722601368585 6.283447782352856
Li 8.201577347187001 7.019705191297999 9.088816650344363
Li 7.073784390170287 9.706071090209152 8.101523269719827
Li 5.703411762430594 7.734125235504297 4.012423398918353
Li 9.179646831413638 4.420718688177659 3.817167268247312
Li 4.413451074314922 10.056549094009172 3.2676501643212124
Li 4.5798994142432665 7.098432075052593 1.6840595870077335
Li 9.688100016927395 5.654109902688833 6.78095521544505
Li 9.679048506480935 9.695016346354342 9.534106769309446
Li 9.562148719099365 8.657763981282551 6.8914428157308425
Li 7.5648112977238435 6.310553769411485 1.8145815643053997
Li 11.289270170655525 7.170006195406211 8.654663088560653
Li 7.269664640372487 9.888512276478798 5.2201016586909565
Li 9.269373720348135 11.510717282868997 7.015619051248263
Li 8.673895477198649 7.284831750635358 4.364182798692514
Li 7.329695201330548 9.257201699493574 2.3364256403142756
Li 11.634783869945993 7.313969491713389 5.401399552520459
Li 11.923210268742972 9.925053307589083 7.213243476532268
Li 10.16300963925329 9.912897082458123 4.437833319499363
