44
Energy = -67.89734581 eV
Li 6.630926011141247 7.501748027360645 2.2912776674333433
Li 9.040434838295958 5.25373722911076 2.2582886442735663
Li 9.341492915945429 7.648024090993487 3.9787817186372783
Li 7.1667782374387405 12.230049533120333 6.118322492144279
Li 3.942871269379574 6.727184528259732 0.9909924397578019
Li 4.020920848847265 8.800191721548838 3.563087321123945
Li 9.716799757910543 4.872508170870901 5.259772460343831
Li 9.387706175091493 9.98217938472486 6.114301705044001
Li 6.88742701218744 9.366706057755199 4.5808745696155615
Li 11.00737883073886 7.335492036526173 6.590242340318943
Li 6.167620264684067 4.591203985166031 1.7563693008935066
Li 7.0003574895563325 5.657621342528361 4.483223876010571
Li 4.561531165871762 10.722934371587785 5.903037110853755
Li 8.638197961095615 11.642747115134034 8.682796207698763
Li 7.989589972491108 2.928478381981963 3.8736678461229666
Li 8.099602459542476 7.318088860588342 6.4925027997488645
Li 4.285589389793508 6.001847095049333 3.617173283824291
Li 5.120031835027769 7.761828851447822 6.225686027163367
Li 6.836185555618795 9.840252598557322 7.568590793808204
Li 3.436573485445029 3.536004149503819 1.7749299171319444
Li 5.9184582057957265 1.4976912978313408 2.017035131134251
Li 9.103752676792162 8.539592864752303 8.797060554606446
Li 5.415115351921459 11.648827104322065 8.926864475944736
Li 3.375555029494179 1.0413854556226871 3.7015381620456376
Li 7.371999420804488 9.930335867784365 10.846849313187844
Li 6.804773040912823 3.6666261665403495 6.635833597455331
Li 6.260207169873318 0.858049363884238 5.168092131586786
Li 9.279476466555616 5.2026056609437035 8.113093382153805
Li 2.2900108006084796 7.117570585297343 5.797389503646839
Li 3.2527957685112687 9.275352662196 7.951821684831338
Li 6.3626443233176015 5.972029232222685 8.36078529726321
Li 5.0681117636994495 3.191189620128321 4.0701019762102515
Li 9.076108736381467 2.215309594939873 6.979494195235492
Li 7.916496094186749 6.666316686789647 10.626782059256916
Li 4.263596946598548 4.987016029280998 6.325812366906274
Li 2.242100379926163 3.999621474350543 4.552230619431322
Li 5.527792358124167 8.353037513810374 9.479585069795856
Li 7.390201418740876 3.618185138895669 9.723989211720315
Li 6.284296271124061 1.2925360415542615 8.158276900702834
Li 1.7034372896030288 4.29897721836587 7.563585311200743
Li 3.3781305322815314 6.42676234278122 8.614722984852493
Li 3.811012393064165 2.1421133045555933 6.517366209402822
Li 5.100939855852895 5.701279705807879 11.064529326870764
Li 4.481739641066417 3.671234367876835 8.964398800244886
