45
Energy = -69.76101112 eV
Li 5.243482776710558 11.012859346543648 3.026003925196263
Li 7.658312681286804 12.188668098727298 5.371682191017264
Li 8.038216555728365 9.57291020969999 3.9628944693803234
Li 4.903602978892003 11.676865078867404 6.007836296854149
Li 9.690590894747784 10.407588670142664 6.722942124575342
Li 7.015288298123955 11.564871312379175 8.430220503115146
Li 3.3496707425470227 8.460004776447553 2.680223542654485
Li 2.4528732283365486 10.107931315161649 4.969751993988453
Li 10.113360500957603 7.6469547561050195 5.234038658487709
Li 5.04559629063958 9.020302508666587 4.885574279703742
Li 7.077495725158632 9.626196979108498 6.705534459028557
Li 9.045828333402213 9.330268322180084 9.52083609826101
Li 6.173596055014987 7.931419800415107 2.2271552421198884
Li 4.190504164205068 9.473111296390863 7.835990161456949
Li 9.12064161450624 6.864905865857602 2.387212266977425
Li 8.569358674794852 7.479670395728509 7.520604571701477
Li 1.4207631917086592 6.601600649021267 3.89852105586728
Li 6.337040728616141 8.09044081323494 9.486355377106825
Li 9.156187581767721 4.813559518729537 4.615824265715692
Li 3.7815844213852756 5.469162810146938 1.674755094220088
Li 7.317072357770501 6.934549639403366 4.796662083918444
Li 4.5803124568641165 6.185528940246864 4.1983544290805614
Li 6.758291464835572 4.959952244812865 2.506883555990641
Li 10.392891336926812 5.1731484687328075 7.4813010564651155
Li 7.601481362496587 4.923165572308083 7.216363872233678
Li 6.296593283415907 3.683525972634149 5.040102165767699
Li 1.5889320444698443 4.744147351665307 6.8912504890156745
Li 5.61229222793332 7.077107154860406 7.003655033074292
Li 2.8432152907304546 7.363404934871383 6.190936798969558
Li 8.670212057017343 6.116772931799039 9.993885836366678
Li 3.3890723287036955 6.470232096003722 9.00864156771229
Li 8.092980006761877 2.290918130324023 3.2032236121856954
Li 5.924916921952582 4.910693508765549 9.476749608593
Li 4.9843887068345065 2.457581961327074 2.9731949885365734
Li 8.57985130072076 3.1122923292752476 9.216670123788816
Li 4.375571811307141 4.671781564722014 6.86007039451044
Li 2.848044351791849 4.115225627864523 4.259923380757647
Li 8.77123673109185 2.346192806175953 6.3107411087476715
Li 6.108261130986125 2.3738441430345794 7.764024725840804
Li 3.6804570434115393 1.978132908868496 6.081707452417901
Li 3.4580759831531585 3.0037884530112002 8.985030245146046
Li 6.353792095819974 0.6973824047776898 5.414558719775894
Li 6.0332425633676 1.840470522740215 10.435004148340502
Li 7.724564076513676 0.1865758710365817 8.310658706204798
Li 4.677467872731172 0.06588236236060477 8.240356412056757
