45
Energy = -69.9791224 eV
Li 2.8249066738895494 5.718987994328803 9.684402071717987
Li 4.066146997861377 4.614492235886572 6.881030972146024
Li 5.3668636215318175 6.907181685429214 11.358445714614428
Li 3.774458607009791 8.602852757920939 9.350746166245418
Li 2.823802562087449 7.473798685815474 6.759058611053101
Li 5.562459400064701 3.9993494883353335 9.925934283529049
Li 6.418965338424087 2.6951296586245577 7.056814960406644
Li 7.9977935114486485 8.806962820884555 12.541487662098652
Li 4.683682697409457 2.9873067531852744 4.313110587287412
Li 6.063314561719008 10.06377023175718 10.547016386992706
Li 6.703813269952314 8.869572273777477 8.131892194245038
Li 8.16573081379469 5.030036473017516 11.395113068270563
Li 5.226434679766679 6.447923730387415 8.507309198552669
Li 4.568332287965398 10.307238431168354 6.930480294014427
Li 8.430039978018584 2.538149198567367 9.389721460090012
Li 7.673456860685263 2.581426027634788 4.2069049957199365
Li 6.502799477569315 4.920903961170836 5.259704230132593
Li 10.55345120399861 10.703843230597666 12.214527705392651
Li 8.163752830278565 12.270076768876917 11.174130119725788
Li 10.23400129460436 12.052080049163301 8.79667806168571
Li 4.107125071001824 6.119715763176267 3.9711226013785685
Li 7.787044472425951 7.349583236312947 10.013364847501068
Li 8.954676702026541 9.92895185134819 10.110238148605111
Li 5.4353883224064035 7.577880972881947 5.969865974535339
Li 7.205972129448328 11.75474723578822 8.004466479762732
Li 7.645514924263781 5.045051832531541 8.328561780120562
Li 6.3504883016309766 4.725093190922035 2.426667191977658
Li 10.47855955931676 7.412768460118773 11.343384398966089
Li 7.056873917859256 9.883299173114013 5.390247671320711
Li 9.335217791675687 3.8027938822474905 6.525838513368766
Li 10.380410365812791 4.899138934057823 9.28696583180985
Li 10.109745722987775 7.5330763870482835 8.51427228823966
Li 9.164694600355627 9.77205593217284 7.298356134940874
Li 4.616764937153185 9.521991194088027 3.912593395295864
Li 11.06863956079797 6.290592258685925 6.213743646575161
Li 8.206713211164624 7.037679406647498 6.382453629751514
Li 11.739956513366215 9.581661177665929 9.703944872922513
Li 6.891439183335619 7.536495338031997 3.531440083777388
Li 6.008302358750919 12.311674717300205 4.923305038440314
Li 9.078884240428318 5.459341780581159 3.9121428921892707
Li 9.16551066093189 11.786750885192939 5.331487664730372
Li 12.779167818874685 6.833060553255912 8.823291404929567
Li 7.546850579038597 10.560769453164436 2.7940256686181555
Li 11.774945180633292 9.319615916985413 6.7096739681265865
Li 9.582242959050541 8.680454695708898 4.489750634660602
