41
Energy = -63.15174088 eV
Li 3.7141690888952423 7.329584842890301 10.24615317783895
Li 2.167137309102306 9.522157084077186 8.037446246927837
Li 4.9598299656269536 10.286802268261185 9.47973402906147
Li 8.042879341496953 10.903010294148952 10.368794113640911
Li 2.0663035070197946 4.848195669068108 10.540062424098345
Li 6.68758659267793 7.9798747918840665 10.881263330575988
Li 2.1773616163377194 6.380969943391892 7.874823710183415
Li 7.066124629397057 11.859457033448669 7.628979624223685
Li 4.772310184129315 10.25259664873609 6.199912583895814
Li 5.307821097108868 4.882975745789747 11.122071074972007
Li 6.2712707295326435 6.14316744444111 8.773002183769403
Li 9.66965204965925 10.162398764745578 7.629166645175202
Li 9.68091160937454 8.28011617324853 10.060620388371639
Li 7.281365072558126 9.10562345353737 8.358828309684865
Li 4.490660764810468 8.091623861892876 7.778685438532099
Li 4.017752073485379 4.259570022666108 8.439660579107043
Li 8.470221851261714 5.349933680258486 10.578516923312895
Li 7.637127599822224 10.210282416745292 5.199240942486185
Li 4.7643831139502995 5.683183623448446 6.222333097210181
Li 6.6628142915983535 7.636180668974531 6.183885995217836
Li 3.089189069238023 7.684101899282953 5.260396440148433
Li 5.307392590755882 2.926885116093358 5.868617336475644
Li 9.327847796997329 8.044589011001463 5.574864141535077
Li 10.735317019976783 10.360582098262341 4.795443949704364
Li 11.420946335377767 5.855821607002723 9.711289859368296
Li 7.603297525926119 6.35490342680931 3.9973602409537152
Li 7.428160484552347 4.748230232687881 6.4035651881390825
Li 9.743158208424656 3.851252187968654 8.278092595424988
Li 6.8594803433770455 3.21891221054962 8.742986919476923
Li 8.781247595131676 8.591287845821986 2.740835923181316
Li 9.07951895318307 6.617745478839809 7.984404408326068
Li 11.598697016530714 7.798850357090398 7.171974689061
Li 2.4425441318267653 4.338015395754207 5.584769079823948
Li 10.01000247145986 5.098224833333679 5.402335244990639
Li 11.437192905604807 7.544619199590971 3.8851498309683894
Li 7.4161148318466426 3.700591527903039 3.541131919985577
Li 5.662018570691346 8.373264979991747 3.6221027130202996
Li 8.46724415175975 2.200286427036826 6.069479725019444
Li 6.7960240021280445 6.357148947340949 1.3572303925259015
Li 9.63853599536136 5.608827579811446 2.312852811854818
Li 4.8234446015615955 5.346653431678058 3.5800100781114614
