43
Energy = -66.59606808 eV
Li 10.50817914111478 7.983831589153447 6.452617144406564
Li 10.83125421418833 5.109581634369887 5.853289418398835
Li 8.932458947831742 9.350429965792253 4.225728812217668
Li 10.377875528664202 6.768872226971923 3.24657466616371
Li 11.361774657708068 6.037244638810233 8.942464347032622
Li 9.443470399880148 10.913116719889594 7.085407238862091
Li 6.833107203068148 11.272559675159496 5.4601584337168525
Li 8.801200797594218 3.1346782326124387 6.587343310817735
Li 7.020763715896779 10.660310476631087 2.2434269871872963
Li 8.872936027389233 5.911978084990412 7.849383480538183
Li 8.179378169596971 6.662285015588609 5.111824814190462
Li 9.255460783962784 8.500093748767478 9.195036436737581
Li 5.988418830892922 8.781737556562826 4.1035887825897515
Li 4.734575330469561 8.921186090879315 1.5706546753467243
Li 9.380068994304894 3.4023290857543764 9.464384502058158
Li 6.845745842516398 8.617922660224076 11.284785473748997
Li 6.714301957678809 10.472233279149595 8.744332304694115
Li 8.5043534994059 5.90632755016202 10.883007109600582
Li 6.57464193357925 4.782140190429375 6.705879858021842
Li 7.31075258383139 7.073146747886576 2.2626544942816813
Li 8.591959754317026 4.326103438240853 3.7871480578942447
Li 7.624634260489334 8.837371528024155 6.7533088212345636
Li 4.318940893087112 11.052365022102585 3.697790748364325
Li 6.682239669898184 4.333273528744339 9.32698884721103
Li 5.352976389245208 5.836446953232935 11.298346544367558
Li 6.1864255172187566 3.942620300436042 1.9018594921540626
Li 7.051924114129246 2.881850589901215 11.568743564104786
Li 6.407223505040915 2.5491389589673554 4.884776712929765
Li 6.631107804912346 7.2039966228258026 8.929301190088427
Li 5.665410154487749 5.4141644788871455 4.192194392311743
Li 6.751379884380562 1.835954232493238 8.384802326491899
Li 4.452184249069827 9.88441234439991 6.710339397339634
Li 3.873641611378975 6.039766311905048 2.3096272861770033
Li 4.309423870067825 8.528896840741277 9.521965069275929
Li 5.267072678948876 7.263953204293089 6.4278956649518
Li 4.235753948829094 3.091981864505929 10.002007036617092
Li 3.2556883998678092 8.214072797742368 4.364767923980468
Li 3.7271695667996414 3.2856197274505576 3.7383069042855137
Li 4.299662976906516 3.1977300675916798 6.946591093730775
Li 4.139432556545793 5.633629785801942 8.470945137164753
Li 3.14161113041363 5.467477776546761 5.604462407213355
Li 2.2908998616237692 7.643936111277988 7.345408442683504
Li 1.6355706265415528 4.363047378679536 8.023164059612787
