49
Energy = -76.58441036 eV
Li 3.718472767833108 11.442094820567434 4.797143166455576
Li 2.321631773690477 8.882193785855684 5.813930822311091
Li 4.048010845037544 10.836158142110204 7.741757446080924
Li 3.7883585606917873 8.03368862546134 8.32126509220653
Li 1.4576170367809946 6.20511061339913 7.272547845082237
Li 2.0301937161421844 5.9862045048760555 3.9014301429963383
Li 6.202718153858701 6.359316774811602 4.248512069686074
Li 5.624189435867626 10.879083566871202 2.6038925439010776
Li 3.9622956674412806 8.582919392247858 3.2780225630657256
Li 5.239000511082898 9.138598439393018 5.603591958796349
Li 3.3432407607673817 6.701565428284023 11.08802763641759
Li 6.074172607859843 6.789014055822825 7.1826219889431435
Li 4.847797456861559 9.456368297801047 10.845553080100782
Li 4.017042356693585 5.083655387140187 8.565639692655113
Li 8.461370420481991 10.947125582097819 1.9282154256323196
Li 3.8163596896051257 6.327168083005049 5.7476195612453065
Li 4.5801471615572344 3.9014671675218344 3.6535143421327447
Li 5.49066035637919 4.272907933635274 11.262053019424867
Li 5.927615499621906 7.010354933851915 10.1045812784715
Li 5.94633343813349 7.097354918511118 12.807149804362451
Li 6.524479662432935 8.710864943047696 0.5445792583318368
Li 4.607596855504238 6.2988768130329165 1.7969801118364093
Li 2.899715381227488 3.499169303828315 6.16852403040856
Li 7.338558614624857 10.996734571396697 5.226436130313452
Li 7.51445808549922 5.860370878085305 1.6614186292454065
Li 6.628094621474157 9.404642300628417 8.289995432398715
Li 5.275661432345963 2.2479197188575077 8.526612875896264
Li 5.556075752671928 1.3663031027087535 5.573433661292377
Li 8.118919639135354 8.761748342169776 10.888579507931075
Li 8.370025539960821 5.604884538211319 11.126327676653824
Li 6.918801182268269 4.664639502764951 8.812268460774654
Li 5.6762990558207305 4.0722053110953755 6.2388599125407636
Li 9.460366696751528 8.165371128542702 1.3499272243301792
Li 7.355587798923041 8.68125868695374 3.1101117371000995
Li 8.304503902243615 5.280692508057393 6.245806016255795
Li 7.656780111369458 3.567958794238647 4.059690470593545
Li 10.021755126009438 9.417415207517026 4.312739420307322
Li 8.07778117365449 8.196167742984874 5.841966727336591
Li 7.363502378708917 12.260884094844846 8.187063136383419
Li 9.632332714065466 9.677876181765525 7.774736599677268
Li 8.511218640748293 7.114217265512482 8.567912926648923
Li 9.902475050582412 4.461854800284776 8.519202167887963
Li 8.009466792756012 2.351085197831755 10.02626384050103
Li 9.42981929884585 6.322888842198101 3.8687319224898875
Li 10.501605429220183 3.6764617854382133 5.591075599835541
Li 7.970101873825329 2.499206779817181 7.039328709650163
Li 10.700522924736706 6.941523616440859 6.595551668829459
Li 10.84517437193001 7.396783412462379 9.796926832055119
Li 10.254207467812037 1.3599758608812078 8.098821419114023
