45
Energy = -69.33181945 eV
Li 10.003090510629622 3.406881850171669 8.498934429431825
Li 7.7863594239659255 3.0521905582422604 6.122914075252228
Li 8.059853793181789 0.939529487539156 8.315619718680152
Li 8.438138332280275 2.2888850131206517 11.123403274138647
Li 5.4905651423694515 3.782925276481835 4.0595539650121655
Li 8.345953255227846 5.420639015926054 7.573349633246417
Li 5.654650320319838 1.276901022718 10.239686795819503
Li 8.479540907287829 5.403740318315745 10.510746150455617
Li 8.286056174299787 3.239801214646691 3.1870622281504817
Li 7.5682784156322125 5.879823790662726 4.4687861915543055
Li 5.273550760582268 1.9431612935927574 7.001869331691646
Li 3.630968048738996 6.0217547213310905 11.069859560167783
Li 6.167111355034899 9.506534077454821 9.168244840782174
Li 3.072807371467473 6.2035213378628695 7.90209326919164
Li 3.0341011714810757 3.8233977598594318 5.978103935836689
Li 4.111108005519391 3.7191924338363926 9.122060861212132
Li 2.8730983370883036 4.748732730382726 2.9632273741859603
Li 7.203909106360291 7.705248313534507 6.744593132405868
Li 3.1381938335463615 6.494852156134808 0.4616842114923569
Li 5.982781049057039 4.231781546077588 11.547574315843091
Li 3.417840265100323 8.643624089661465 9.535739399769804
Li 5.630363045825737 4.897649108085753 6.893316353435281
Li 4.640126718572867 8.498158630106813 6.964988856150853
Li 5.20889403148628 4.028301412922939 0.9137428220196637
Li 2.7579305908087606 7.831321786944003 3.340462664342351
Li 4.292047847030214 6.422373551378389 5.09675595637518
Li 5.9964546773140475 6.899632296224006 11.73151057839253
Li 4.792681005313813 9.153289771711483 1.4959938178804033
Li 2.0128589537531254 8.66452818475318 6.440409747616391
Li 7.01321803463868 3.3492565564248573 9.017170797286239
Li 5.875905480845352 6.422916129012325 9.26007793047142
Li 7.7736451090680205 5.502382804286363 1.5492127277064078
Li 6.374290075663632 7.505990167919479 11.73151057839253
Li 5.222223374100669 6.406193868004106 2.2687598252940653
Li 6.038922949855421 8.476226060852392 4.1237141117040075
Li 4.052287671162997 10.280705696114683 4.60896088592968
Li 10.178363753213725 4.396864030672955 5.357268989590642
Li 3.854747997168926 11.020739187118377 7.629375132615264
Li 7.702732179023721 8.359576357526937 1.8874193947715874
Li 6.741503218159469 11.045695834571909 3.1601038979186185
Li 8.70772425112872 8.006232127185438 9.128314110291702
Li 10.302106852527551 7.13237581607022 6.51500539376462
Li 10.017339033916201 6.563812224289322 3.3018376916422487
Li 8.821902529165943 9.05305030169065 4.654872094079109
Li 6.67026217590353 10.58261498147678 6.300716061306277
