49
Energy = -76.89359188 eV
Li 0.9337430852522726 5.83003789371557 7.243068130428693
Li 1.6096205350676607 6.023569034093648 10.387166773464038
Li 1.2793827215009634 3.215392183876693 9.034245603218633
Li 1.3079235468280839 5.2497117543280964 4.250318397793825
Li 3.054279038785534 7.020893607605983 2.3996301104179825
Li 2.943268390085112 7.993458904033066 8.182008824431978
Li 3.727912455940724 3.7729307444753033 11.06753279652053
Li 2.6447365834080614 3.2650696436926934 6.201803619506557
Li 3.4977765628567554 6.309338753292581 5.711541846803894
Li 1.7686202903105173 8.29313246301615 4.9901470684736955
Li 4.280199674446472 2.0950328204599233 8.477226940985402
Li 3.3193525117547966 5.00016092454461 8.498059318585936
Li 4.638022642557253 6.783166415759027 10.47846660125413
Li 3.404004435349487 10.18335895700973 2.9510242069794037
Li 6.020493939944536 5.988821776040867 1.8594449932279344
Li 5.772783203263403 8.978012077788778 1.196583402509671
Li 4.308352167604603 4.31662570327664 3.8083866179602457
Li 4.329939072344794 9.80783856647551 6.149701398228801
Li 7.274186786613428 2.2362221079236453 7.817427618303388
Li 4.904205545582038 8.125213420453768 3.9331039543806128
Li 5.360848196875379 4.166748408102658 6.674459408837777
Li 6.028359821106145 4.371491188939427 9.484537315908513
Li 5.653122278367162 1.782334354022111 5.285607173830738
Li 5.540242618486747 6.859043204006669 7.6381605082229935
Li 6.45951090234055 6.01856090171201 4.735646204637867
Li 6.423569415290266 2.027745512515596 10.886572325653066
Li 6.461013752521722 10.621067793603498 3.74207462736271
Li 6.444945366370293 4.87475680633972 12.18952433221537
Li 5.927496323265565 9.3773260293241 8.844715675575909
Li 8.957472416647477 1.4263019964380446 4.7891168120967835
Li 8.457144551605916 7.3345863680383445 0.4342371118463575
Li 7.7517849587269065 8.095066118361425 3.0171520186465144
Li 6.900065620473999 3.0168928346305997 2.764836193994006
Li 9.928655600817244 3.2714930313244626 7.296023630931914
Li 6.879503818957143 8.651734639061926 5.940692477127528
Li 7.664632027398287 6.962517214297135 9.970315663975335
Li 7.9815692819320345 5.466330535855255 7.5295021417746355
Li 8.794363574605761 5.31501123302498 2.800746146472456
Li 8.761905265167343 10.248004770426117 1.6327566422240918
Li 7.2450296513156704 11.295874793318308 6.733686816913057
Li 8.761861588334424 4.069082473583844 10.11291529740764
Li 7.942060001019716 3.817961516984656 5.265919213707548
Li 9.264084956691159 9.904206614406897 4.7506565086306525
Li 8.933172273101784 8.763775492765378 7.804778205416582
Li 10.571889893057648 7.777829097010052 2.8740750202648884
Li 10.864195396951246 4.963596676663489 5.003550553909659
Li 10.566552747801756 6.157432698003845 8.14558547970545
Li 9.099109740041756 6.958108351126124 5.403123555071354
Li 11.537052177566181 8.075982750601533 5.842983402343542
