42
Energy = -64.77951827 eV
Li 3.777078683337864 8.95769380399937 10.858767383084428
Li 4.007221331832157 10.402337670106222 7.943328337707004
Li 6.247561477734841 10.755569966064744 9.922980065712226
Li 8.915130098648286 10.559412514951553 11.522838604024075
Li 6.805272164290677 8.146499654774175 11.612607426983228
Li 2.96435341787142 7.242942958833828 8.304517852229372
Li 6.309878523139645 12.598282061787677 7.243086952817755
Li 4.81762143637146 5.89795675728656 10.739641688886048
Li 8.380483940947222 8.777996134038323 9.405756619234333
Li 6.669507965858616 9.83146541243154 7.0137924166897365
Li 8.837459997517971 11.449853735447522 8.452384719177221
Li 11.1660272530538 9.51328046071663 9.478125013416795
Li 5.485624320039537 8.056451712390414 8.855491095678135
Li 3.9204479383102524 8.556880747330183 5.464413828818617
Li 7.249657680077453 5.953666336604196 9.153842946708032
Li 5.4640618820970275 11.084262653206398 4.651020969484858
Li 8.105414561661432 5.242344480866003 11.539978988643814
Li 2.8394091803388877 5.533571168100421 5.635207221533665
Li 10.016021321895252 7.617717459493979 11.60397439048024
Li 4.515026128552484 4.580246893018621 8.059469106491818
Li 6.566306405299298 3.190116907315225 9.706031734265835
Li 11.019957109990216 4.725942300783817 10.978759609543628
Li 6.756426240667772 8.412356876339874 4.363404507208117
Li 12.76142238956999 6.956594124360595 9.97664137108644
Li 8.430502269382886 11.110795503755881 5.265217643582178
Li 4.840532828481594 8.97528128446081 2.3996716946456487
Li 10.197259485379584 6.543394785936249 8.855318836623846
Li 9.366958553284395 3.7351007259220546 8.659949140056499
Li 9.865720765690977 9.19217617374156 6.878946181185048
Li 7.975659489705379 7.307650033936976 6.818805961339705
Li 7.311433067405767 4.372453274190393 6.9639832759034315
Li 7.631560835997584 10.200111104595683 2.430428668244676
Li 4.9050915470153615 6.2013938850025365 3.4969446500761627
Li 5.395992438907318 6.463458864941625 6.321674329292841
Li 9.561404996287754 8.011277588587093 4.186112303210156
Li 12.145525026831859 7.496306553670796 6.937052310825217
Li 7.355671997787299 7.2118526037617094 1.842424093803754
Li 12.197025714682582 4.540207666044332 7.9976822856193674
Li 10.001805360363933 5.471167926810934 6.123980449450396
Li 8.915264193371016 2.710354474751202 5.449661959026514
Li 5.382705520515644 3.516998825870631 5.202510357584649
Li 7.660804959429845 5.442032326285093 4.347070878993021
