48
Energy = -71.34342578 eV
Li 13.056988784149041 6.259692806451051 4.225950386596036
Li 10.485868861588319 7.567574867766942 4.413917802213686
Li 11.798677079185321 6.56927170411169 6.9161450280865076
Li 10.602726629375226 4.76306645831652 3.5772641262347413
Li 8.622786737454438 9.719026892967586 4.476487322695773
Li 12.425145520973683 3.939398807947406 5.834018066958263
Li 9.403922385801868 8.143495497045166 7.024969581012911
Li 8.404749912128358 6.442012161635724 2.505169834497263
Li 7.061709780502533 12.339461882702551 5.028732739547588
Li 9.296409574682066 5.226953977394036 6.271594609555484
Li 10.920765341135498 3.946954477458429 8.290574061603648
Li 9.991113018796108 2.4847650686888985 5.4095083902296235
Li 6.350125194170952 8.358002166639135 2.7506083775816705
Li 8.147802170286312 10.685845948145028 7.249335701608558
Li 5.622665391842157 11.115001698246758 2.797201265371482
Li 7.883404645924932 3.960052238848912 3.9814191646991963
Li 7.3390949086056185 7.127304446550514 5.308232049445993
Li 8.27351152422675 2.8992919784677027 7.716885135123003
Li 10.309777042933227 6.604842940734651 9.413702783835177
Li 4.01761029503606 12.009880201560536 5.094371929438723
Li 5.498670250397784 11.767331642098126 7.611871459139801
Li 5.634415778051536 5.616506742906604 3.4389084832509247
Li 7.298418835663931 11.362109399051256 9.887842641837667
Li 5.892123245064979 9.692585511989895 5.512038529445409
Li 8.760563148835507 8.947418202438275 9.711281828570021
Li 4.437450532281964 7.234302721404825 5.7601506422630955
Li 1.7947869279535762 7.197245085321709 4.262016325855365
Li 5.9263992188083 8.788536585962154 8.384336849713522
Li 6.108492776211785 4.735361991564701 6.38311987464953
Li 3.5021869065463185 9.384969339526187 3.859595870022394
Li 5.161937786555646 2.797310809260702 4.367099846935909
Li 4.469564491225989 10.729386685036332 10.119908671364916
Li 3.355575325298331 9.8683701415115 6.991409650618325
Li 8.159652056568298 6.718105025918649 11.562898662737076
Li 7.461541323058516 1.2918522568768187 5.227015073594624
Li 7.458819678302197 6.3478554564204694 8.451670487325856
Li 6.637843847717235 9.149342088989192 11.668432086756088
Li 5.809184976510843 1.4939597862980818 7.5606641454665
Li 3.8301752136531197 5.770341202054443 8.120899900052889
Li 8.691155605455194 4.17543067241604 10.305096963396869
Li 7.100649867478499 1.7726411526753256 10.149510928880916
Li 3.116656474597615 4.760511196510795 4.62793215014717
Li 1.7242428615824872 7.473671028455419 7.053877609461741
Li 3.6813580909220383 3.1692887245839616 6.992564989297086
Li 3.0231925646013322 8.241072660137386 9.407247012045527
Li 5.3699416028879075 6.678613854546011 10.480838479410579
Li 3.833743179433714 8.692500433996823 12.12080373057892
Li 5.736126458941794 4.029245358826233 9.306470153607478
