42
Energy = -65.25818153 eV
Li 6.849317466503073 8.398584533984442 1.8963729255393413
Li 6.408321394735745 5.536480770118162 3.162510351122804
Li 4.84980659137773 8.08430425733773 4.555320354222285
Li 9.354773882294316 6.592542884676108 2.0217190476411218
Li 7.003093956865388 10.482152646537038 4.164573480376619
Li 3.8977596059606268 4.961574026047764 5.471789768249438
Li 4.368039203360775 7.137527307354639 7.483616560505568
Li 3.8406246250069858 9.88309159900666 7.032598656200733
Li 9.626556159104037 9.648885570074059 2.722338628948731
Li 9.05379786973723 5.0280462019066565 4.6864233512335005
Li 7.353485990049879 11.501720544368835 8.095511758245625
Li 8.135536174848395 7.8443898565151 4.16403911330457
Li 2.0155596192214023 7.529668095282273 6.196760881533396
Li 2.530688843391976 5.148712268104431 8.248899544970998
Li 10.99009396871003 7.57771146384755 4.655328645676695
Li 3.9962510538712444 2.2389086176809476 7.2345366738962325
Li 6.95194047470868 6.874048931231568 8.574897755762864
Li 6.654414121247541 9.08930434203506 6.5839616496328714
Li 6.558107164979663 6.130866981949648 5.851899767427817
Li 5.402907707698232 12.03899132806182 6.1225343445091
Li 6.408883167685921 3.1799108009266215 5.534090931837952
Li 4.57370229285099 11.886955769003603 9.252658381918609
Li 2.5641463513288656 8.387090738432741 9.222533419635596
Li 9.41680253889767 10.112762130585729 6.056613812414432
Li 5.599656126432077 9.256758050785924 9.439148179619014
Li 4.7456524049446855 6.3180557309953365 10.30173268557347
Li 11.262024899777575 5.377361916289496 7.070890421668733
Li 8.693770791334861 9.135839842852704 8.894603219337117
Li 5.437760651766363 4.415431668800145 8.00776531817227
Li 11.438579895167388 8.433021627688484 7.949908270440442
Li 9.089121705906681 7.248218792994899 6.733001402217654
Li 7.834010014060604 10.845001566565113 10.948506945137867
Li 8.357372715440011 4.4367964892305505 7.5151630861776635
Li 10.329549976932043 11.30514799719312 9.035839737250674
Li 10.582611430748521 8.72139526891578 10.957103735992492
Li 7.611868438586684 7.635969450131905 11.220204915549187
Li 7.439272565085405 4.5502594482495535 10.322512102629881
Li 9.700765416250594 6.3717884192539636 9.380901216713495
Li 7.090208870610287 2.028805378528811 8.459548745779044
Li 12.321939012698504 6.0652666211796955 9.978118125941824
Li 9.992960831853821 5.649232293146714 11.94649223304935
Li 10.207442060241846 3.5246588405781165 9.568976304221819
