45
Energy = -70.02024049 eV
Li 7.688382621608556 10.943958489817598 5.58809051555837
Li 9.697535759344857 8.83495462268241 6.553747116923494
Li 10.151768640177524 9.424110348795512 9.488969684270938
Li 6.5110299339252045 7.766244653571849 1.5855674264741968
Li 8.561045650015254 8.574084860161575 3.76983545065395
Li 10.889898380304126 6.512969480899952 7.979098620759232
Li 7.215643750613743 10.239634510056332 8.45373899326723
Li 9.045512932188986 5.884422276966895 2.044396499954631
Li 5.459233988669349 9.37854858055639 4.191032488216503
Li 10.634362702455139 6.413334873795201 4.688858826383006
Li 4.767987671511823 11.747824664771436 6.6843787639004475
Li 8.229327451770628 7.528341890765655 8.863323124333776
Li 7.508008131329426 9.016080221542936 11.264754896689855
Li 6.258625327606569 4.61723526657891 2.0611505884544985
Li 9.80877294323355 6.670977544439883 10.944354521612535
Li 6.963109735572032 8.27157695587671 6.309141778992058
Li 11.272916758793864 3.8104102432492226 3.106368483595435
Li 8.518481303039863 5.876301669447927 6.337069137857858
Li 3.852403563797409 7.009628293601846 2.9357860748969555
Li 6.727789507228875 6.414533413499253 4.025285924715152
Li 4.717159152777435 10.869216065456563 10.113111056868966
Li 8.787335710590462 2.792843055890378 1.5790075385118145
Li 4.652806698204055 9.256629905949312 7.393961775333835
Li 8.66723023602484 4.571524901433967 8.809187586627441
Li 2.304406273319299 10.497792816080313 8.134138917600525
Li 5.21318921134274 8.16842218960142 9.819011915321385
Li 8.690789924341788 3.99817546829737 4.079662558727863
Li 9.643473574302693 1.380512165837019 4.207410473520482
Li 2.649950055296512 9.190130690070568 5.279158065900542
Li 6.756018491470448 5.934433892181343 10.911813164500844
Li 5.794712748708623 6.1973201418616854 7.985772266812182
Li 10.616533409780926 3.77948105823296 6.236269447176383
Li 6.620488731433604 2.099679305445428 3.8052055972859673
Li 6.178280090905226 4.259913713102869 5.869841405096355
Li 4.817823038565026 8.038072897751295 12.512010142313976
Li 2.623698400444787 7.372301647791245 7.898066059667202
Li 2.550877881668013 8.681433214548282 10.615571071687349
Li 3.996184439799874 4.153623504415797 4.197244931698189
Li 4.345156783569884 6.825930762697111 5.626371203749081
Li 5.839641263019101 3.5334466711616925 8.823443931202476
Li 7.9551324882964405 2.3309806919138714 6.650484611822799
Li 3.785348844663506 5.754393845570811 10.244082260787858
Li 1.6960928072409627 6.156236121043287 5.154404082395591
Li 3.435789938454877 4.504571288539694 7.21580573066986
Li 4.834630110439315 1.825818172443823 6.295689448556817
