43
Energy = -66.33459878 eV
Li 8.352198592551758 9.89217917783203 3.8581155395585083
Li 10.419614765504082 8.74103485441335 5.90327280712528
Li 10.116222797306184 5.986201187944695 4.37475559455239
Li 10.964666994007116 6.646591427199633 8.113974997589068
Li 10.548294642489056 9.714761725422575 8.924231341016647
Li 8.351689320391198 10.784725197099611 6.894357732375804
Li 6.0568411160441515 12.02931721116662 4.771344799541799
Li 11.112464240681424 3.5604413218501834 6.8081583271177
Li 7.904787822803016 7.549619783926754 5.325599501619951
Li 8.946795998996574 5.412745227901704 6.829012072383276
Li 9.379375992912681 2.9937555041744304 4.118824914879649
Li 6.0351458290320545 9.481928701173237 5.773263796750314
Li 5.331059594777 9.245323287519382 3.0545067768873024
Li 8.412502002830783 8.132825872293754 8.014859052003938
Li 9.158649343117258 7.145679063652038 10.575456783702617
Li 9.770339069951923 3.9957033506007513 9.46842769849773
Li 7.754004601118502 7.02092412790253 2.5902593069793642
Li 5.391942816639016 11.265286353637888 7.815275828922727
Li 7.531018704854946 9.988674799913062 9.994878906835236
Li 3.2726653418390934 10.47095215096904 5.11213288462944
Li 9.90964949318393 1.0794971617737967 8.671718844018484
Li 7.423032436111561 5.482937004128201 9.106086389177342
Li 2.7714948243994013 9.90060201746656 8.050648640017219
Li 8.378895899758648 2.6898543730247417 6.883022126973127
Li 7.448059137307723 4.549085532727068 11.728362698171784
Li 6.512466745105395 1.8631040464705526 4.489883932389556
Li 3.777429897512542 8.015887902166401 6.276666330042725
Li 5.6243994280756615 8.533803140840478 8.51552419562125
Li 5.943324731790043 6.255892797318063 6.962786237517164
Li 7.144643030329402 2.52119839952185 9.424758237583768
Li 6.061599115555547 7.2209715517391375 10.946248678285434
Li 7.270157944470436 4.618521337531485 4.802702714034276
Li 5.437187482186912 6.750199262667893 4.24883740790827
Li 4.36626926839249 9.739882495882059 10.65164450597234
Li 4.837420757637203 4.681230443924072 9.597298382099085
Li 6.975867376749453 4.056989095900985 2.2170838456045825
Li 5.567821190540058 3.5311038277526294 6.857445211393186
Li 1.0569094731858524 7.889895270595395 6.539380661078016
Li 2.7023761365338697 7.343723477122448 3.8150888337154036
Li 3.092618097488477 5.346815458713719 6.575736605049605
Li 3.1973557676723523 7.190659734809424 9.111266039924384
Li 4.417935808544115 4.258953011020671 3.984484634534408
Li 4.83895715526727 6.3487290006139885 1.6112903253203372
