44
Energy = -68.7108728 eV
Li 5.404624051925688 6.809457618090471 8.5895461293137
Li 2.0760468459014323 3.9485371779083165 6.970181834847715
Li 2.7307332210900106 6.23096132243637 9.192486271259085
Li 1.1161380211589318 6.852451975287542 6.375214246482027
Li 2.532633855940186 5.030200603661333 4.080858671532122
Li 4.728970025207201 8.865699110646583 10.551508622295247
Li 4.819298235560367 3.963430198878169 8.561315426506987
Li 4.844566876492757 3.2398028514010484 5.391716656861765
Li 5.547869730797972 5.781776964763149 11.218865965188513
Li 3.4244009098716957 8.873139191801862 7.590249035362769
Li 3.682626171799627 5.999142675576994 6.4052668230193905
Li 7.536237205660457 2.6012631893564846 7.236442695374134
Li 6.302685159707362 9.595635651599522 8.251635686995352
Li 3.2892123745122612 8.185474013181029 4.457418261323206
Li 5.443162150673019 5.926090959392156 3.9340362683475276
Li 7.70201099200542 4.893193885748711 9.235690775275755
Li 6.000022761226942 3.3122781236488024 2.4699309152230016
Li 4.66517773185331 11.686419839286588 8.929594833304563
Li 6.8751536821482055 8.15093811236745 12.803709318402095
Li 10.111626138966425 3.291531088736618 9.118391983785491
Li 6.47685591190551 5.189184604169831 6.5800132072293485
Li 5.179410721984987 10.752344762282128 5.68416508844051
Li 8.728292116199176 5.531423205375637 11.854254996753275
Li 7.136807837969446 10.80653842656086 10.610355755483221
Li 7.846656598967597 3.921242533861173 4.451663222763817
Li 7.564641772802561 11.953485965587248 7.418617073589909
Li 10.242531620272949 6.53759982348836 9.254227276043894
Li 6.3903170848211825 8.833094172163692 3.325315935570708
Li 8.146234349626592 6.783177265439406 4.7833937974106595
Li 9.150407517635438 2.765010025662119 2.3984208803948484
Li 5.682652039397656 7.957381552821053 5.9642167339008
Li 7.3103991003166024 1.2387922891418377 4.289817279382183
Li 9.35047127820395 9.638036901744524 8.545233309945687
Li 7.634514307232644 7.729280528962463 10.246665795073273
Li 9.450119456038236 4.948718323808046 6.8149560112269185
Li 8.043456355244025 7.394167570978902 7.52715478234468
Li 10.261137842270067 10.96456981100246 5.784161216916458
Li 10.540920068170363 7.802152313832221 6.213929466468832
Li 7.805240441111128 11.636465913156636 3.9778450148889677
Li 8.031380036388297 5.892908906193792 2.140714902599762
Li 9.562562041246188 8.819243697893558 3.4172454035140465
Li 10.480904684705791 5.38052166472211 3.9596142935461316
Li 10.038241930584949 2.3939095630633984 5.4345380687134135
Li 7.98954924277319 9.576340527678438 5.7519075583814745
