45
Energy = -69.83859869 eV
Li 6.021420259748491 10.83369415535749 10.269937144006812
Li 2.6997134708823634 5.946079593696181 5.512533275135721
Li 6.251659984491596 8.695065221796266 8.722441950786635
Li 2.3518156992312416 3.168760600114269 6.407511194734549
Li 4.449931721364819 10.539747784652501 7.309445903755951
Li 1.2970011884324266 8.225763894077648 6.574304111121312
Li 4.050713128958934 7.56424837044507 7.267792763903348
Li 3.418964974123557 8.992741740507487 9.680844503237088
Li 8.933592291588257 9.497051976443336 9.644636148888718
Li 3.6670421234861488 8.939998238805652 4.828106919633969
Li 0.18071337070072263 5.344703009629541 5.09888568552519
Li 1.720696934999232 5.632500524047186 8.109179307330443
Li 6.542997701304582 7.6888956769781 11.147260929590528
Li 7.5019624970063745 10.974912055508513 7.240638143435721
Li 2.677772635283704 6.944928302252634 2.925468157912672
Li 2.7556225209158622 4.084216008349736 3.5320955172083313
Li 5.997184275276327 8.316656240522612 2.9783965451149594
Li 4.314352382438072 6.199333766272128 9.69506753819478
Li 5.810389707785943 11.17858337812414 4.453481606657859
Li 6.2824968452205106 8.793563786359172 5.8164008516396315
Li 5.344000081853654 6.044524891658492 4.812036363280561
Li 6.855272815855386 6.428864094482325 7.443823069641749
Li 8.888578782042268 6.3508170911907955 9.45570854456246
Li 8.592479628661874 9.680285804475487 4.375789340931549
Li 4.618246530331801 4.631995929979703 7.288296037836026
Li 8.162170856765943 6.726768020882604 4.810418369014987
Li 7.638882848603746 4.107863418000461 6.321449431336728
Li 5.434831961165508 5.389998578661864 2.186828508529632
Li 8.909567967488805 8.4216892897673 7.09661212272964
Li 3.5055698282573324 3.254483091227406 9.45038023842305
Li 6.534478480342992 4.45813271441598 9.59816009533006
Li 5.276118395612228 3.1587809589640012 4.819568446287638
Li 8.694412705532926 6.9811042813852815 2.1869495796271052
Li 11.001375053699391 7.973519994322852 5.160004021039706
Li 10.66462230136405 10.565959805827731 7.025826629044222
Li 10.003763638595235 5.704915637973449 6.893947213783209
Li 11.55998362479549 4.695220064778338 8.924407859947863
Li 5.864725172331494 2.1107609712549458 7.62156471108896
Li 7.8513512401527406 4.175137198601938 3.5264948988971323
Li 8.905454070325748 3.0372601548985463 8.46835300635534
Li 11.53081379069522 7.831778662913602 8.252764751433178
Li 8.107736172977766 1.5752214385891936 5.507626133544128
Li 10.576578554767147 5.272262892326557 4.058352229078546
Li 12.76771540764231 5.6560221398824115 6.321250016572943
Li 10.763844262906279 3.1568670071213836 6.176553603040072
