40
Energy = -62.03943494 eV
Li 6.327787650028979 11.84072698686714 8.109324207700483
Li 5.490796698346993 9.804133502842227 5.863131768626456
Li 8.474785255035282 10.143879933535027 6.312370073164893
Li 3.615332379692766 10.284161400360304 8.134970566373001
Li 8.460054026356113 10.128540092886098 9.685755513696582
Li 5.498543495722493 10.198192177612656 10.669489256101585
Li 6.259333084508657 9.061796489194823 8.338485845196603
Li 7.463844696289555 7.7772516973444 5.177409868280075
Li 2.8312164383723024 9.368725872656572 4.615874512552141
Li 3.6850711964648433 7.611467493213178 6.95217606182431
Li 8.775699081666666 7.68507780020946 7.99318423614964
Li 5.740365606354017 9.528959742738083 2.989459793940129
Li 4.118255879981835 7.49742704806642 9.693276411758468
Li 7.001965201136692 7.358212021408923 10.458401968154085
Li 2.1633420728591717 5.076560098506474 7.969992675308205
Li 1.9906992201625886 6.26997623281591 4.8443294824034115
Li 8.856868814854566 8.95907611066777 3.154899404408379
Li 3.3917750377848503 7.563422740428447 1.9610815400428026
Li 6.235919657016175 6.400363190612007 7.3056212483619705
Li 4.696237509727194 7.290214747583712 4.397869183358312
Li 4.1536029304501065 4.777298965562507 6.156559290023876
Li 5.060566101846653 4.706823733073356 9.23021942248584
Li 8.119396925685674 4.939479459078062 9.11785128389823
Li 2.1094568869777373 3.168438909620413 5.328905733050637
Li 11.01907448082584 5.63100837736133 8.09761050317536
Li 4.02896339479348 4.76212276693731 3.144137883817226
Li 10.491099558509738 7.57770458216179 5.537181809693294
Li 6.501852331853169 6.79922141519736 2.1903435575846593
Li 6.846489387339776 3.757519840911184 2.2228171424616114
Li 8.917694750704209 5.3010852600262925 6.312808308584062
Li 6.7066215696165745 3.4371937636445873 7.064745398003635
Li 6.857662766190397 2.127533333481796 9.481871134973861
Li 4.137441650332337 2.241074304110671 7.634168793327915
Li 5.2751803974801135 2.394976449135474 4.720974226405968
Li 9.121360959606683 5.7814786223128225 3.396055847882553
Li 11.271748937588463 4.394094472235274 5.2253664633376244
Li 6.542535144202391 5.063814239545658 4.653098851597519
Li 9.507920706207486 2.7486818564173987 7.542395291335836
Li 8.438494199878066 2.853468061235487 4.704553614580176
Li 7.014106995857026 0.7278687562129825 6.667262584713821
