42
Energy = -65.22696568 eV
Li 8.818142589161717 4.434079673700204 6.121452738072592
Li 10.511302397189096 3.970573237573831 3.763819792144442
Li 7.897560205878259 2.4713555409809937 8.034509143103115
Li 9.342371014271507 5.193584914429505 8.852238488211592
Li 11.258567643093679 5.830834525689749 6.704116297544927
Li 8.142384111488042 1.9902179578593588 4.6597783790218115
Li 9.575449995723087 6.859102245102387 11.306149301550878
Li 5.90554350686867 3.422008153280714 5.897797577528004
Li 9.813798901349031 8.256339943671145 8.28843814854729
Li 7.1958267676035925 4.398323999600632 10.682495480676504
Li 9.847908101193916 6.89380398912881 4.397787556833378
Li 8.12645742777904 3.0598946971265293 1.6079244259789245
Li 6.578891238732009 5.0432587429572875 7.956965436984206
Li 7.766229326289144 4.7769335837322435 3.6591766185285737
Li 7.954746135379314 7.170409687496855 6.452799423601978
Li 4.809960049648188 2.9135781395636067 8.683633624793748
Li 7.400133323475112 7.23742100938187 9.580986477623046
Li 9.073034584441588 5.996835363043791 1.4558095622442004
Li 5.449977520003553 2.921128103154596 3.2104161497646944
Li 8.095470490485415 9.59407624084949 10.835160041313653
Li 6.589960256807313 7.134258012839151 12.165848919463246
Li 4.581442880240357 5.785994643128591 9.916271085953172
Li 5.974402413728722 5.551353371255333 1.7079426434618254
Li 5.075636323756012 8.896829385944965 10.089226760987398
Li 5.228729356981927 7.541458002995242 7.558483030539642
Li 8.65857701248043 9.766022530695682 5.2686215993963375
Li 3.713709815030184 5.145426790754667 6.999677342516078
Li 7.379618807324406 7.748409704329301 3.271272268450024
Li 7.105063269419136 9.76349271023743 7.905258739507031
Li 2.917626169004366 2.696463181595468 6.02793508141374
Li 3.4192248391992086 5.09543108010775 4.0050684538141565
Li 1.939481460030137 4.096426158645211 8.769808266409658
Li 5.721108215626956 6.1803492541272576 4.977895042698592
Li 5.816883384257175 9.2366584989426 5.229720094058447
Li 2.433185077266069 7.389415528360625 8.369097383966693
Li 6.518183068967443 10.61291291321229 2.9271452703190417
Li 6.269243261499098 11.891842653118832 5.747176334517851
Li 4.04556569055262 10.166058702368908 7.333415030113054
Li 1.1211251702237917 5.412525832308175 6.105764360995378
Li 4.481099799546427 8.062103269660616 2.898060943876789
Li 3.131882109304542 7.823457450752565 5.511318596316146
Li 3.6831907898192515 10.740978158616173 4.297874869027221
