49
Energy = -76.28610052 eV
Li 11.606460287587037 9.661434720174837 4.580493716165935
Li 12.349886312249158 6.375432199324851 7.756022829850722
Li 12.504254282423279 6.52107485110799 4.453820505352337
Li 9.321016312246893 11.270167999888816 3.024420550603174
Li 10.860915476724971 4.435149310152302 9.918846384849925
Li 10.242305389265793 7.105514590241446 5.649831300487798
Li 10.98813153959005 4.1339814377688935 6.3828096486004675
Li 11.297313297520644 9.128847666299377 7.4837173602481215
Li 8.80330626699994 9.43128837426044 4.882904056621061
Li 9.333500368165472 11.449324261498667 6.515680483333366
Li 10.179909293974303 7.545944210326519 10.269005969313033
Li 8.57654277901092 2.8716755373324427 8.481781332752762
Li 9.972728421892635 8.060623167599537 2.7518771746754385
Li 9.73086977387094 5.152227664917166 3.674433485887519
Li 9.610071679410323 10.508108845526595 9.570425857775612
Li 9.58650088743414 5.965068913759481 8.03208720208474
Li 6.7315466185140025 9.167471849281798 3.026874751382983
Li 7.37378405649227 6.831927213460804 4.639944617165983
Li 8.614297120214058 8.669680875173016 7.656850807204202
Li 6.604713633656501 11.71487711766732 4.73945787227584
Li 7.93970828972768 5.180407403926762 9.967276264335423
Li 8.105262915143088 9.581020941735595 12.03164227164135
Li 7.9684612415473035 4.459801735223805 6.2008387161167615
Li 7.368033620505243 7.987149827140936 10.017482938497249
Li 6.318267390659337 9.444230055528944 6.262798546091438
Li 7.543142453833803 6.46996186110983 1.7758192275777291
Li 3.9589131581818515 9.596184669398772 4.333547658656479
Li 7.575517382452559 6.491375855463341 12.430647880069104
Li 6.765607934857866 4.04810731622654 3.4450696154144245
Li 5.09968826443174 4.7467466346247384 5.698609288989861
Li 6.6690243327423815 6.577600485187206 7.583652653960629
Li 5.683256231357962 3.812263603553981 8.489100479438706
Li 4.795137672365789 6.442145354844245 3.1935794025470883
Li 5.127272490947689 8.74859199392375 11.614126790908362
Li 6.55498267516194 10.6526828344421 9.114347551440236
Li 4.715632613599304 8.438599715242317 8.731762205126882
Li 4.186803548040949 11.055266511837257 6.994284528453918
Li 4.589656320370989 7.441618681746112 5.879534463393642
Li 6.3012835169048325 3.2316368542313167 11.310271139326963
Li 6.036021090544295 2.0881720853216676 5.8902823579849475
Li 3.827928990853663 3.30580978639257 3.816057603897535
Li 5.182647318983363 5.935824544413627 10.529594227460741
Li 2.392131194786952 5.853576583616553 5.205018415657777
Li 2.4697356249548306 7.339081955968746 10.26834679597663
Li 3.2061594512824314 3.8186740912425607 10.201484526253761
Li 2.3370819711711954 8.606339742848931 7.25775147923632
Li 3.1437841334156835 10.378913897470715 9.831486698069813
Li 3.51560414377217 5.809283454766449 8.035348627977243
Li 3.175031973599734 3.0868574671033246 6.960516130824975
