43
Energy = -66.57693056 eV
Li 5.872016752611838 9.058790924164024 3.088428656839565
Li 7.910548577953328 6.826897941985001 2.6608378645442192
Li 9.983032985556008 8.663265951172967 3.910147300901527
Li 3.6697639350978615 6.672375801418259 2.915255019780047
Li 10.395958787949969 5.703195380240604 3.8777579817818935
Li 12.701256882353459 7.712403918257017 4.875364016198973
Li 2.8827094051558966 9.767323195061342 3.8561125645261387
Li 5.414372893082443 10.698353447390136 5.622483872684663
Li 6.011876418210652 5.735224816547122 4.238678849191328
Li 8.517582136965057 5.619246669257025 5.9184459596516685
Li 8.231209080001806 10.913292145956879 4.348683162125247
Li 10.369024454963354 7.667267934778015 6.509102812761531
Li 7.481554195353366 8.269197454679595 5.340788859245214
Li 11.26781087020931 10.207190988315016 6.299809587324404
Li 3.5720863792802633 4.946651298008699 5.59706565169881
Li 11.749378493073827 5.107570501014294 6.2876446393660395
Li 8.053998253589663 3.5851172329051835 3.7284581827015515
Li 9.121777520565935 2.912201593939516 6.558864574943286
Li 4.385001233597637 8.001410418064731 5.317750377440062
Li 12.698785878213387 7.717131495590571 7.889143579006864
Li 2.7409298527223482 9.677602372474592 7.0783003507419995
Li 10.163524177182092 8.781947426375487 9.358033252809777
Li 8.294641797758873 10.149962722049171 7.305780517869153
Li 5.005914071787287 3.125580344142842 3.4625117774706005
Li 8.020730161259662 7.44548532203705 8.258138127401208
Li 5.533735070246123 8.872157578633587 7.852454370638765
Li 10.188073086572453 5.647497076739664 8.694784069305946
Li 7.010266737321821 0.9917081878792582 5.090444286814182
Li 1.5536447042211616 7.263103328347148 5.614737976111534
Li 3.2515146605211416 6.890579999656907 7.9055291869840065
Li 5.837566354126934 6.207655472942347 6.943597339269527
Li 1.304237158192562 4.895493578914117 7.744213295264741
Li 6.277598350544443 3.4682041738348834 6.044840055263759
Li 7.047970645861258 9.325846854726073 10.264540678025835
Li 8.24101569665807 6.450280329292959 10.962241366079107
Li 4.445109082245204 4.094427536122878 8.410834118734812
Li 3.578583960139663 8.834536489620469 10.05171959390862
Li 6.6370953350639645 1.7849506972022773 8.330595987399475
Li 0.8036526162343003 7.735910032101024 8.748428039796389
Li 5.569544924054011 6.628414254801038 9.870244829468321
Li 7.437301642196846 4.545881728611291 8.627326642603125
Li 2.7770785250065986 5.749068930302004 10.418159954544686
Li 5.964869921709653 3.9247989517940423 11.00938172280479
