42
Energy = -65.03158197 eV
Li 7.843833837811266 11.422224128081446 3.005085559097037
Li 10.024223807268529 3.5383382942752655 8.577214290574306
Li 7.291557897974828 4.882696453021127 8.513096994794894
Li 11.986641357884384 5.340262308104281 6.606731377364537
Li 7.280265258810741 6.4764417929083775 6.070137455772753
Li 5.356510993075882 8.855113126010714 5.776847896335982
Li 3.0648813248883697 8.68519663046838 3.899473399467162
Li 8.429418157387254 8.828147702435224 7.16931406355569
Li 6.15516203307596 10.287305587734583 8.30151001609479
Li 2.2274298536717025 4.126713633870002 7.27167277442335
Li 10.116342046929672 8.395747809584957 10.292786846837823
Li 7.531626083788185 11.469783107040572 6.026177712111821
Li 9.531547719474101 8.890332561806604 2.289710404867218
Li 5.435283312095737 7.2817998463368205 8.08071372278111
Li 5.911849511486257 5.624853498977628 10.834247302533706
Li 5.189112718599332 6.673090312964165 4.157730431668268
Li 5.037989014851226 11.11530205489665 4.372078560765643
Li 7.563080322097746 7.793460053554741 9.675241842256098
Li 7.7559619485435745 9.047122645769855 4.4053735906531895
Li 9.051569221599902 5.488377937193422 10.776383803204595
Li 3.314090236516107 9.400098589484015 7.784918297717547
Li 7.476173788491278 2.799708888158359 10.435897667651767
Li 9.203434963868448 4.3920026330162845 5.712688792657428
Li 9.523103247850358 10.896532423388171 8.35068458521381
Li 7.191335973216544 2.4404199557139536 7.336782390961882
Li 11.906673828543955 5.93203467122517 9.568481622472378
Li 4.300440151621615 2.1879429701878044 6.123660358580194
Li 4.786272155651569 3.34947068024576 9.065609754364612
Li 4.84657934368386 4.844316292790149 6.709651929722991
Li 10.103385605287837 7.303999574727093 5.056255021479039
Li 3.2662793046417438 6.280026755766437 9.24482330186166
Li 10.193156137140157 10.340212713112564 5.195307954008895
Li 4.953311028852502 8.705451189466498 10.663685933942318
Li 3.0275989825104 6.908005514462661 6.215409350719204
Li 9.71834397924617 6.350808314565645 7.980650987680169
Li 7.657025248224887 10.39008576681864 10.823646499114124
Li 6.3924257002490465 3.9037802033513005 4.622433534702254
Li 7.609463270298239 7.826347545910731 12.437499795146532
Li 7.992529497193513 6.302114551862493 3.2141062739892403
Li 11.469716997488767 8.479768088550488 7.476724552716828
Li 3.1670932663264963 4.606273547249854 4.3147056550208704
Li 5.95131351519704 9.002234492102017 2.406492639559008
