47
Energy = -72.68768489 eV
Li 3.5008464715358283 2.674956565358192 9.252163146143713
Li 5.750041931384709 2.0121639265127538 7.088715004155825
Li 6.43659936566286 2.2241289236377617 10.163825326396537
Li 3.637324691127182 4.227708948678449 6.436278875065998
Li 4.904632733634929 4.675025366864804 11.43384578395516
Li 2.0799192581804755 6.795407225628948 6.4410578499249285
Li 3.0235481454795816 5.712220964328033 9.090094123093063
Li 8.253608416950144 3.382897588612616 7.955345146986589
Li 8.146182922551706 2.829831388166851 5.032933046555557
Li 5.540368528506997 4.418867526091191 8.628228591705614
Li 6.346735148573419 4.825349694063694 5.838701676942109
Li 7.846142085133823 4.920959612635953 10.502445891098725
Li 4.339992706495208 6.710030662526662 4.153593754923466
Li 7.159621649140116 7.28742993885614 12.114688877319942
Li 9.431186732881105 5.339041690333621 6.235649526756228
Li 3.0167297658621095 9.430918379676665 5.775743599297286
Li 10.643487136732254 5.172076599336297 9.02989307423344
Li 4.88638847713016 7.257352906414334 6.958366854001632
Li 3.216356653561819 8.774602554263364 8.81108100999245
Li 5.511993196070113 7.101914866156933 9.833669885992673
Li 10.90293119466857 2.9823060869595808 6.420052281848903
Li 10.094822132448162 4.789094955445873 3.7163676302705326
Li 6.888459287762078 4.9029334383733065 2.841261698174518
Li 10.197121194934716 6.176016508880522 12.176074743308167
Li 7.624392647677643 6.967237824057331 4.468259852238201
Li 5.670125728618867 9.369830690711817 4.6818046761625265
Li 12.220504594898795 5.7917046547953985 6.2180518242982705
Li 8.877229540380545 9.747623566419659 11.501744217824385
Li 5.464991547896701 9.907281561686961 10.979379850049126
Li 8.045956064828376 8.971075756076162 6.451115964314855
Li 3.547093589292101 9.642916817379044 2.8088218843705346
Li 6.168629631387533 8.139105780285487 2.0981610554349475
Li 7.5450544316954575 6.495662287345965 7.841254776702353
Li 8.992683840956994 7.1098829598694175 1.9513426900818611
Li 11.708435660259262 8.09585125428221 10.0955724608272
Li 4.483497802168751 11.935810052472874 5.07701025881147
Li 7.22638895006244 9.129439398408762 9.180305767001524
Li 9.126647515426363 7.393854706024984 9.99758359569701
Li 5.352219030786948 10.27549936874142 7.541026826869341
Li 10.441312978806051 7.68014089882733 4.555253867599806
Li 10.491440290648708 10.49525418195358 5.721917674127708
Li 7.54007795769903 11.632001080945173 5.834464308572156
Li 6.127585577463706 11.22950231190237 2.6776803455863605
Li 9.709968707294234 10.275173361890142 8.621050222088492
Li 7.247260100470248 11.908875134035235 9.178763419071059
Li 8.522947539483189 9.741479267591354 3.536322127605049
Li 10.36454630827395 7.758678575900167 7.450822123636628
