49
Energy = -76.6545051 eV
Li 12.048603369956872 5.631898579516356 4.095132953040284
Li 10.804169230425638 2.9954078131831054 3.160750785016413
Li 10.599846466613627 5.464162284418057 1.2869132618360266
Li 10.051033833727669 4.056767732189161 6.129997393908549
Li 10.197210458240665 8.067206151833261 2.872343319675778
Li 7.9593427522741464 3.770824587525735 1.7228384417430693
Li 10.36281855327824 7.4830695332852235 5.7380726234236645
Li 7.7638013458013795 6.8227835242965655 1.5765936699592216
Li 8.39768301856674 1.5331668424052216 7.274105220233914
Li 9.276948842227275 5.328196117284128 3.7277881395197157
Li 8.11384977938405 2.2973938285479174 4.281006243726607
Li 5.568589422044062 1.2362390986258207 5.9269770117379625
Li 10.610522027276847 6.204562096579775 8.483838978943977
Li 5.281745012169313 2.929018387916596 3.402745951119238
Li 8.263061343493474 4.2585903015308 8.670571884317237
Li 8.066540756060196 6.246360232354285 6.473373624355237
Li 7.642684533937595 7.993328518352889 4.2565509880665395
Li 6.920285648629484 3.6921458082695766 6.194521472227321
Li 8.97759335578292 10.223569758841489 5.130118744706663
Li 6.42729485276759 5.390075107420086 3.9383741839675364
Li 9.465099335899874 9.207925598881818 8.006342381997339
Li 4.172227016947714 4.1785716746577 6.019193292277402
Li 9.188612077350099 5.3369230359026245 11.313057824610576
Li 5.6718873017297495 2.782122105787103 8.568529402686726
Li 7.166636278057193 11.45997928916968 7.359001507645291
Li 3.4829398205785744 5.628317850833598 3.413369532864828
Li 5.207778781009275 8.056005632851289 2.697222256648578
Li 6.757450631691905 8.74411332627289 7.160676846612448
Li 10.073243226195704 8.286467129255632 10.918641176458733
Li 4.8705761245137795 7.146905383871169 5.553583138026981
Li 5.675752316546879 5.851454767247483 7.985064465109601
Li 7.06321778440455 7.601704512572649 11.981815409359411
Li 8.075495176821207 7.092410610127496 9.385283988051087
Li 6.049116864510678 5.130004464843099 10.623973580124076
Li 7.744103844754033 9.924627529131609 2.202309382239192
Li 7.593921085654726 10.07668497774536 10.222662330355325
Li 3.175288521044602 4.628716231396052 8.858038631616662
Li 2.7730116215327567 8.607896075079774 4.560138624343229
Li 1.8033509483160206 6.063055725004427 6.14723615223486
Li 3.2051510186912275 7.3732161106976415 8.074966790210112
Li 4.830954313839933 9.658868480494736 12.09609135043531
Li 4.931898252881374 11.167664796607106 9.475017777389395
Li 5.825642193092174 10.210373237775503 4.681552519249756
Li 3.5690745511173465 6.8135416153017525 11.143370809115899
Li 5.363545714353236 8.361860370308106 9.668310630037345
Li 0.8372577101074021 6.676154318098263 9.245733798503258
Li 1.0669292009103695 8.951187757102192 7.194272693407521
Li 4.041370949629442 9.832705039203354 7.0430489604983135
Li 2.487937352441717 9.37136845489511 9.928115610652151
