41
Energy = -63.33774667 eV
Li 2.7886252527663524 4.318426831281969 6.024922962147329
Li 4.943724121029206 3.0169995698665866 8.33737077935264
Li 5.681664305554295 2.970268657516723 5.245632437538408
Li 3.2565660862568717 7.3276619087179755 6.0744957980449845
Li 4.726126551899004 5.6088568525281275 4.077209252672723
Li 8.261289401913688 3.0241848142606758 10.174338576052985
Li 3.1553905630191257 5.827383842786234 8.639288922181503
Li 7.734095501237343 3.7723563280717705 7.398329432348028
Li 8.993868578911433 2.885510666202553 4.809537155679096
Li 6.409683458250027 5.421306687827192 9.576304240312922
Li 6.832115827510114 4.115987697408717 2.4693305354966624
Li 4.284308765441013 6.160757217222603 1.4283336204029207
Li 1.8510589980105412 6.493459933507192 3.7766032658544693
Li 5.297376746377309 5.360925104056113 6.853688608671021
Li 0.708546409458113 6.699580503575156 6.709017419067166
Li 8.57047944635519 5.7295217797352995 11.772407909339561
Li 9.514863938459385 5.476303068840039 9.188488736248202
Li 2.4617301396869267 9.010239063001134 8.188105596060632
Li 10.615570998163626 3.0987371335706193 8.051356165162572
Li 7.566412969171695 5.306003511298247 4.88925793169911
Li 11.20315138315564 4.279851105162587 10.962542953499476
Li 6.0859581407527115 7.818203001289097 5.436658834225336
Li 5.248391079218002 7.951820095528304 8.264205332387709
Li 1.531325084096649 9.27780808695182 5.1533363365322575
Li 9.668585000706878 5.479029873477834 3.1477624829781927
Li 12.232222182393093 5.821297583723274 8.559658709300543
Li 10.146354955937936 5.44766617723327 6.2058507730578345
Li 6.9243339545995735 7.262646396565422 2.717101684371895
Li 7.7937223653781205 6.774689234270159 7.386986973049325
Li 7.839904690042022 8.197147460283544 9.839915746612549
Li 4.132311097799686 8.54584541453104 3.475507574161762
Li 5.7670376321121894 10.660192389840985 9.14767800416421
Li 10.81129161331693 7.528909415903979 10.64732511548327
Li 10.208727056871998 8.289783773220151 7.779878129761488
Li 8.985733860333339 8.025061682421256 4.95556925593899
Li 7.021090316318717 10.300719908951917 4.319613030181451
Li 7.5164159376458555 9.658600878781613 7.162000140246288
Li 4.569100711831634 10.174658718684869 6.284476391566962
Li 9.008333078525368 10.93269420677663 9.075718306793384
Li 9.692127772093764 10.899353713830232 6.031768201406621
Li 7.0652266613315815 12.318215782559259 6.860481831374227
