42
Energy = -64.43807215 eV
Li 4.645489073161593 1.600202032707488 6.423820844537625
Li 2.8782347883798156 4.422678108842128 6.552532675182636
Li 0.7632078341860111 6.382663392020723 8.165050289543839
Li 2.0517462606104875 6.853284925453041 5.298322171188834
Li 4.249305374886118 6.491444093682025 3.206529541504187
Li 5.5730048182597915 3.943759944237081 7.430185292092469
Li 3.2406208323201713 5.067677043673838 9.353975601091474
Li 7.0256419742280025 2.2209000864219735 4.290159069631075
Li 1.3960953228709279 9.215026694447022 7.169642874310953
Li 4.768235892289925 3.9191075964910707 4.398233595860281
Li 6.2992533103572965 3.9741463608803613 1.7547674743749027
Li 5.821902457343683 3.435924581585109 10.242051723553777
Li 5.211511078466128 6.3405825288377535 5.951397083632421
Li 4.191972061642875 8.985246638356562 5.158359924867675
Li 7.70172841255378 1.9805819041926136 7.2473970852646294
Li 2.3552542201609272 8.145493254254648 10.092050683257836
Li 7.0639406929059625 5.974396252412195 3.413045999498383
Li 3.441359681196696 7.457452182316943 7.746955790126553
Li 5.937545964365547 6.26555036011365 8.993749410752809
Li 6.268374761853106 8.760377214764489 2.544215454958289
Li 7.591595158426915 4.574957051882305 5.683146988122623
Li 6.22139305792769 8.77071798924688 7.483728570598166
Li 7.178924110979506 8.119422025232922 5.011715864134028
Li 9.328538799510378 4.156168417004322 3.3199049261103557
Li 4.079264615577617 10.454902076260938 7.919359066781202
Li 8.371662088969408 6.653179380980327 7.291957860849871
Li 6.5381584277028715 10.88091513758302 5.4375492985156075
Li 4.627617420202242 6.249059736619371 11.569023117201878
Li 9.5782354629978 7.092411159577132 2.048533795345549
Li 10.284786877699256 4.3679022801131175 6.416834462502058
Li 5.435153391416361 8.87315032207979 10.192283872902705
Li 7.70726589175679 5.988270474032288 11.170778972676692
Li 8.23950761252682 4.30351388239354 8.811085576260083
Li 8.390938796723715 8.4245505920937 9.49070232394013
Li 12.01968939043809 5.669955675382474 3.8829143494228107
Li 9.230964807789176 9.437518090841774 6.6350557268212516
Li 7.124497328609869 11.114841898470695 8.533067793055043
Li 9.670335139862843 6.82611821052927 4.715452315515851
Li 10.348164776338205 6.138398222564468 9.38005854282856
Li 8.929210762901393 9.726171410877345 3.63095396759538
Li 11.42449111220645 7.241353945119152 6.741345918633917
Li 11.698049762338682 8.620789699038058 4.027413123804503
