46
Energy = -71.09164666 eV
Li 7.535854746412632 6.0736962117084365 3.5160472451503284
Li 4.243723611030018 5.789033827151013 3.101684440397256
Li 9.62387331427483 3.2674842927040975 2.865659658945424
Li 5.7127570600197135 8.425689110244981 3.3458394739475206
Li 7.465312059831609 1.1076027428341289 3.7706776182748825
Li 9.915716672549586 1.3984718014286688 5.493872029737247
Li 6.498055863854262 3.631204637311327 2.4493908611787605
Li 10.436484705943103 6.249119934738651 3.520432790859025
Li 11.013264457572694 4.289425286736809 5.570822500784156
Li 8.813937427630114 8.645396350157188 4.250005227172051
Li 6.479698941099502 7.982697345172066 6.119725934128357
Li 2.6034406531084753 8.690744507860801 3.199003511899915
Li 2.6949316845682936 4.796285222787169 5.676808947752243
Li 7.01493863190967 1.7313291209237025 6.7808719905217
Li 8.076485191360925 3.561706606064687 5.040013624135784
Li 8.841946700826355 6.200826361380614 6.19071830262488
Li 3.657975450390897 7.532749964581408 5.434852103739191
Li 7.510859947017695 11.08767956659203 5.150208131910942
Li 4.8534379796675475 2.6580820876609303 4.732287370776445
Li 9.467897371278463 3.241215676725779 7.92475409251918
Li 5.6806692953460765 5.1687084088661654 5.4907084632954035
Li 10.776610378969798 10.686592482159432 5.571302775149558
Li 11.238109338270611 7.677632212680494 6.1105454119978475
Li 4.500700214532342 10.303825271222085 5.318763556679758
Li 8.920279199493429 9.265596172370467 7.038845140727728
Li 4.580918771252036 3.2917067180702864 7.82884239445177
Li 11.233967181729081 5.666303028081918 8.304979103999164
Li 4.384726115244685 6.135989777775679 7.8038517668385925
Li 1.7373765214105632 9.740509348175163 6.297270038730704
Li 3.8913728102582685 8.997303487622208 7.93787053035128
Li 7.057460720242983 2.4291784506255536 9.77253206654988
Li 11.145878155489882 9.430830021357663 8.640970553944266
Li 8.666145116963229 4.949013865420737 10.503775911076428
Li 9.103622835945341 11.899535965135563 7.850395835857996
Li 3.685637578415098 11.816764174196152 7.925684888046672
Li 6.375257715115686 7.711766948058953 8.952182614613934
Li 7.128824758633513 4.718210152306148 7.9589218645047275
Li 6.375492894138327 10.490691361477017 7.73423237758897
Li 9.024938746718579 7.243531399809632 8.922147242569972
Li 1.701759984110865 7.114425633358584 7.903316557334628
Li 5.637609268157511 5.058969571649766 10.326163815701612
Li 8.29009834810495 9.849295120512842 9.980920437049488
Li 1.8830004776226372 9.871569290778101 9.513076281782585
Li 3.688886763439306 7.428389748906636 10.417062816604622
Li 5.1102463405964516 10.072143599721265 10.3937377191262
Li 7.039006100388661 7.542214556656292 11.588493160507062
