47
Energy = -73.45606108 eV
Li 1.5898723286917371 6.4147902722787995 6.12587728315551
Li 4.930023120914469 8.557030841178316 10.87816480070405
Li 4.630710947712415 5.453714549463231 10.918716448323622
Li 3.587372861738962 6.9434502172055526 8.41605600993185
Li 0.1646619948160196 5.780761665067941 3.4801754410882095
Li 7.79608665502125 7.066539093537006 11.52788164713757
Li 1.6272542748133305 3.466933214651091 5.309429246281453
Li 2.114448352037265 8.285633817128463 3.7004150105165237
Li 5.448938788307532 4.213576079872258 8.418960424053365
Li 2.392513292655066 9.383608778408481 6.556207260497963
Li 2.4542934128985285 4.168267669599031 8.479514480080683
Li 4.98643055455019 9.498574484246625 7.925401808471115
Li 7.619946647860455 4.396585113756957 10.336912797896908
Li 6.357779945983524 6.947437886984284 9.108616731040817
Li 7.646531613103535 9.504868049217457 9.746435561353302
Li 2.89449424078219 5.522202675714241 3.5836905314911602
Li 4.220890609813057 1.9372293926713313 6.89160999083869
Li 1.817087653055928 3.4794043288918592 2.139264071013243
Li 4.011411936353021 4.787992513214786 6.169656496316481
Li 2.1301491501058565 6.4578100958709665 1.107419462221199
Li 4.393610921759992 7.590896351013992 5.556355205716573
Li 10.58390281926628 5.245311274275202 10.017477647883771
Li 6.566888136044705 3.2741548022131335 5.795780658802976
Li 8.434648396635076 4.4926471541381865 7.680458151216662
Li 6.602584417825304 0.6331680464536628 5.129798782728678
Li 4.308313622984667 2.7571476397300434 3.88220504202691
Li 7.219595392983907 7.912111192284092 4.099106113958893
Li 10.416769396784211 8.457777102520406 10.671982956138786
Li 11.932444397112071 7.490154978882648 8.176665485141967
Li 4.751079371489076 7.63851491920855 2.4170134133083487
Li 7.394992142011349 8.862997815923631 6.822563703339683
Li 4.66986334202308 4.595052190656392 1.3980432924915296
Li 5.784677974593558 5.3477330162396095 3.9185821802377885
Li 7.255018333598684 1.7461360570797502 8.088122426458565
Li 5.286731918366944 10.064694926838254 4.634882500044486
Li 9.15529818422456 7.128819162798157 8.650862767542701
Li 9.18482657889179 2.3760824674867407 5.613960391838151
Li 7.195684233771143 9.54329680651879 1.9207049975559278
Li 7.244881240597201 3.038690245303076 2.953901517918976
Li 10.01804302889818 9.86041825672753 7.791597605951167
Li 10.963755265410668 5.012316117452698 6.784514638546529
Li 6.742889970639685 6.211113243952422 6.4486070910653925
Li 7.4389185144933725 6.220203746415128 1.7413739486668527
Li 8.641615722520836 10.317773522744163 4.64162116237521
Li 8.71359681002323 5.219691555976348 4.513098429867873
Li 9.72986347132184 7.929274402972037 2.924293313382814
Li 9.76535960378748 7.596932801562349 5.891523112396526
