44
Energy = -68.36082512 eV
Li 11.234670342768958 8.766450503334315 9.465991181350883
Li 12.700826795819008 6.9829924911653745 7.465642141350824
Li 8.449026809048895 9.901558547515725 8.068919274975254
Li 11.222793587874675 9.516795761584161 6.469460670389446
Li 10.857783003392534 5.607341695806071 9.6455812012402
Li 8.392163535903169 7.279151570321996 10.124932665309654
Li 5.487089863119843 8.750111110888101 10.007384521670648
Li 11.025453767803983 6.877059219616041 4.662347922983066
Li 5.0580533701482535 10.080602910919586 7.216099590272694
Li 7.007278201973537 10.863002433749969 5.04919732931868
Li 10.623984865309154 4.468536419040005 6.526591110374035
Li 10.00297556773372 7.292651626138068 7.514297448926757
Li 5.85603331852873 5.446327753802718 6.682294759145379
Li 8.432268416215903 5.959655251165246 5.510734783322009
Li 8.11976315404112 4.239802758648998 10.9905676983027
Li 8.259669097117783 4.993903122265108 8.270690873836678
Li 5.815828052418308 5.694522116113761 9.689519908046972
Li 7.013404263429425 7.714395454634547 7.568390467711049
Li 7.592416058616518 3.253828763408691 5.760190931143751
Li 8.576266254687999 8.62326062547558 5.184798759052342
Li 6.127446698134276 5.667096936474403 3.874175630260338
Li 6.009328857736092 2.885979128798697 8.275796786226286
Li 3.2128217951290114 1.5587574167930307 7.126223243304126
Li 5.625029675182152 8.23845876988985 5.109009136204464
Li 8.523876677419587 7.077190815360804 2.7282521342311017
Li 2.4955937792538303 9.391333841044721 8.868870342162644
Li 3.48130875392298 4.494153836393831 8.102310819441646
Li 3.4759178038840193 6.034425026013699 5.386417566650085
Li 8.931548722730332 4.2897201293512826 3.2906807857409373
Li 2.9684730803277395 6.654246420276121 10.376758846875621
Li 5.77150425586735 0.8011001314713614 5.5266138075781175
Li 4.613753798567142 3.287448714070889 5.510602392787559
Li 4.125370911941492 7.394251788988167 7.936789347632666
Li 6.4372139603764476 9.021906353057682 2.501556724499745
Li 1.7212081759948008 3.8246417353353537 5.576911038449854
Li 3.156287761817801 1.5369330779401464 3.950231109480082
Li 4.198586130580471 10.535323757518132 3.998678020255908
Li 2.6550365618144127 8.695784746681435 5.741694568725442
Li 6.123679844430335 5.763562422953305 1.1907717467760042
Li 1.398650522952422 6.524184104275023 7.436291462370928
Li 6.049658153257392 2.902385234800945 3.064517148556557
Li 3.437877511168032 4.5224574698695905 2.983432028073798
Li 3.8226659397203133 7.533270305809165 2.8676399683978704
Li 1.0446659265093925 6.439154094834259 4.100050418488593
