43
Energy = -66.31123093 eV
Li 10.120870992053815 12.259069203297297 6.921636886187047
Li 11.020959420222571 10.306146144659344 4.834070403335889
Li 7.844851794365526 11.24682476371853 4.664039072537297
Li 7.19786713606117 12.130815363471086 7.597319835332788
Li 9.053247584544007 10.796870978046492 9.493988796882507
Li 11.616033529999083 9.731725614267827 8.044434957499663
Li 8.912646383557638 9.70747700460351 6.648273340126356
Li 8.842690639880296 8.492605998967512 3.822638961392466
Li 11.01985019458802 7.466239088003082 5.995993801782037
Li 7.644380046263931 8.592676751653247 10.827880799493116
Li 5.01840730967022 10.76634802122253 5.979582371640948
Li 6.329560992078265 9.551875041574204 8.366323422294641
Li 5.725198913962076 9.173818849795559 3.220841454891942
Li 6.466100294260215 8.341360566559763 5.741816770982405
Li 10.836051753158788 8.590155005200725 10.901404259271912
Li 3.9292156124576647 6.448043789488164 3.129460287461229
Li 9.474302128995282 7.885580590289578 8.617573160836823
Li 5.902226181428176 11.357052325082009 10.39650125144831
Li 6.9229173937972 6.304561386925992 3.291921206104383
Li 8.531058182833089 6.394238870402343 5.9219731408292935
Li 11.627709754291542 6.1887591935880115 8.862175121264755
Li 3.6269806492015753 8.179132864755397 5.467880065497389
Li 3.284450768628455 9.60094407328117 8.362738959462366
Li 9.970734595012548 5.633599242521723 3.566630850840196
Li 4.764479296373755 8.513231339275192 10.62117610343087
Li 9.05761719817273 5.832632277532257 10.772984412852416
Li 5.329923756105396 5.60850249058832 5.570823506419988
Li 7.059274726192195 6.906094517617308 8.246662791022656
Li 9.0758656509615 4.856805220707019 8.248626136808697
Li 10.800747160740723 4.268990764050861 6.30663522515394
Li 4.359252421401897 7.041794749155691 8.006223638832699
Li 5.201849560315092 3.7205811767781367 3.359581735668018
Li 1.7171385606365301 6.616433772953306 7.196629600736881
Li 10.744087045728566 3.1886226465186494 9.525704374379371
Li 2.8961594741865264 4.475595361268227 5.309149222418078
Li 2.527953276657199 6.682146877500186 10.101211444441896
Li 7.810295445011329 3.9009712998248878 5.064109328513673
Li 7.568398291695959 3.1408708664830725 10.072053650724456
Li 5.768445044577332 5.728762976964495 10.37064824312268
Li 6.455065985514735 4.306257009919151 7.718757152989112
Li 5.233258074144434 2.412635202337766 6.144479383585483
Li 8.5025021168318 2.168826590508473 7.379499409169944
Li 3.5989459621447115 4.354204288049934 8.287895448657865
