40
Energy = -61.60157222 eV
Li 12.422893618001726 6.829091330351756 8.858996020083673
Li 9.908262032365876 8.729410820745851 9.941964432514315
Li 10.34869419529179 7.838991161852401 7.201336526008049
Li 8.808064396878928 10.557919269491878 7.663167758115065
Li 12.818623565829297 7.667216113786534 5.863158855745737
Li 10.496765615857434 10.014062257522927 5.1660660576611654
Li 6.729483312073259 9.86646345971936 10.300782680023525
Li 5.930258705651587 10.537882835730723 7.52834552653353
Li 11.05298545696597 5.137517287177132 6.624721522628882
Li 7.647968271995078 6.930271678212851 11.13025004878217
Li 9.599878102814957 5.766510513196838 9.161640697278825
Li 10.189041659430542 7.07414138124474 4.418394798827428
Li 7.970124609729294 5.96795335681566 6.445043427500146
Li 7.082012631074606 11.242182508884591 5.006045549242443
Li 7.658380228001593 8.043686445839835 8.334146599383876
Li 5.36633450670521 8.103613516436816 6.483916702250406
Li 7.97302116974833 8.615403258305049 5.3804907940035305
Li 8.55328566816291 9.64935431227032 2.811529991578496
Li 3.6004074112989075 10.02239749125348 9.0389693808467
Li 5.102164539440923 7.562516659201857 9.385089605759276
Li 2.994072829043133 7.723256129951515 11.125892832689802
Li 7.822985171232074 6.704390616553689 2.6804838658118046
Li 5.604481353190741 8.782660458857428 3.704425235691919
Li 5.283716183721559 5.105530591621489 11.410724996879862
Li 4.98213364699432 5.490361007539059 6.9899725783274205
Li 6.778647575242246 5.255254467346494 9.02174805713968
Li 3.628526154662554 10.154987786730285 5.692122198534022
Li 6.002991990036571 5.859674283410328 4.375212034820997
Li 8.504530792727904 3.349553695519619 7.646241657540596
Li 4.812909152393959 6.402447619209044 1.8661796828740593
Li 2.700682913187127 7.583830136568217 7.69115909566512
Li 8.814863884811086 4.231691056583117 4.539972156227439
Li 3.3321661651006433 6.897472085421105 4.79822847318054
Li 3.3262231035637577 5.251724628308517 9.311086372387063
Li 8.009370428729039 3.582371949524191 10.823324485279546
Li 6.613769519795426 3.8445264992642496 2.44953223351993
Li 2.9179962578901653 3.938143761572281 6.5902440782671965
Li 5.3635907999967305 2.9479389259032693 8.782507830961155
Li 6.10894848252547 3.2217790438612877 5.706582689838763
Li 3.94575600614993 4.067949586200628 3.7593428627779817
