42
Energy = -64.63672967 eV
Li 6.133470841127439 9.682770890283374 9.814685298705458
Li 7.867817389019749 7.253342583201934 10.38535029966381
Li 7.062463946981611 12.112219881282849 8.082020285715634
Li 5.090507833340283 6.861490314719335 11.05028732849058
Li 3.105245855147379 8.905641431906487 9.654309508529563
Li 8.960184472049244 9.789099224086605 8.756659789551986
Li 10.64410668537903 7.177092308389808 9.353195875923783
Li 7.276140795728303 4.54840096364986 11.60136504975219
Li 4.458240491867754 3.8302948948126607 10.890597847207358
Li 4.38131834622106 10.536300390705012 7.391541852847226
Li 8.152826185325797 7.244150579783006 7.648903755831858
Li 3.0065272831365255 5.89205256807566 9.05688628820432
Li 8.945853168011814 4.635803115479824 9.084706654926947
Li 9.072979455910255 11.29775677824569 5.854946250760339
Li 5.243781673349127 7.678231697455463 8.199220232263606
Li 6.057988927787774 12.049581966650173 5.184503129000818
Li 2.8840616972709445 7.892601839549034 6.678265169793305
Li 10.682493810176203 8.804534318668754 6.536103043840394
Li 6.086726437002577 4.965771046509922 8.840018025856956
Li 6.72300667340604 2.312545595616305 9.474570320920728
Li 10.334113395990455 5.770820116140254 6.630819394506554
Li 6.953741286453639 9.68600588125647 6.554399579450317
Li 11.237304907257313 6.782391161205229 3.946288319659388
Li 4.6562524842348605 9.257732455605517 4.621500230573436
Li 3.359994385378511 3.014134246848777 8.160819489714834
Li 4.263181303798343 5.1322257516051035 6.529089791101066
Li 8.732573223062733 7.8532484702350756 4.740343116485433
Li 10.57920097551503 9.808933856248881 3.662580701721202
Li 1.478357182545725 5.059582312966705 6.5194307230248665
Li 8.923830161835413 2.3994264572453012 7.1230978335245485
Li 7.72432893472109 4.691936571394554 6.126019366080345
Li 10.438979373715743 3.6575770042536124 4.743546218853604
Li 5.840964761622998 2.6427869289565833 6.571329492717249
Li 6.081305787955779 7.005376912247489 5.493745266624162
Li 3.3228977952707845 6.356561488984095 4.078530555196537
Li 8.487955449852524 5.353953186910895 3.4489782073805175
Li 7.491623674696374 9.980932521398127 3.481494796133723
Li 9.129811238409612 7.87975746393424 1.8403274153056426
Li 3.1855335629604533 3.0743704007310506 4.961114404256337
Li 7.727136826701763 2.4076490325629454 4.209913695375728
Li 5.63754845006332 4.500059210550221 3.9510696939328716
Li 6.184601793080625 7.224720952663905 2.710608379429379
