44
Energy = -68.43944875 eV
Li 6.738699523390827 4.184350918839007 12.118856896510739
Li 6.129762947427564 7.205908520488442 11.427983935089529
Li 8.85707370706232 6.089428424380658 10.876192130713767
Li 5.1725577355819645 9.849896456454896 9.835180380384488
Li 3.8641784003045103 4.85794120124168 10.751114452598108
Li 8.159432839300717 9.859720101084472 11.118723030643643
Li 6.483131118838979 4.9681225149197985 9.52725655459911
Li 4.550261293375215 7.009264918635308 8.93903730257601
Li 2.556172509210158 9.002027730294454 7.68865481827291
Li 10.79347568197044 8.25220363202017 10.399079742920735
Li 7.7084193775311975 8.16639077656654 9.09728118934264
Li 4.4491488781370645 4.191764608055815 7.579497222038661
Li 5.425293440747419 9.148734619343104 7.162741136251339
Li 1.8693923029722668 5.85447588724313 7.919405639434706
Li 7.222457070628803 3.419345742410948 6.9631462064669245
Li 7.3700563827331385 11.113969039421004 8.064127387858935
Li 8.854131594996709 5.425321818002199 8.125772514726346
Li 1.2523974002801976 7.214120632377948 5.212346353692999
Li 3.6322461597798106 9.42968590988558 4.821447668901978
Li 3.7835600201330184 6.8148573165591415 6.15033036395529
Li 10.276851636385626 10.280054201882223 8.241995987926558
Li 4.359006600609168 11.708558848123587 7.229903698701557
Li 9.332899307305933 11.424928644346856 5.481251416043159
Li 12.966967689531442 8.213453674430294 8.11853132868468
Li 10.334696779839833 7.529509586863576 7.809038293277866
Li 5.208384731744137 2.140488385358183 5.092494803353576
Li 6.623653646971174 6.564130323718164 7.0978222573944825
Li 6.447202723206613 10.735841762816396 4.986380121583695
Li 2.6800622530506817 4.429788146930467 5.1277317984911885
Li 8.326047182761295 8.949563024275585 6.374899793461136
Li 8.874109081401912 3.1572438942193615 9.71013685303641
Li 11.601269614670203 5.411329518104903 9.085759878769181
Li 3.9023872816586556 6.663852886192485 3.2545783863909357
Li 6.148468526042755 7.804965588590225 4.692650774785365
Li 8.832844044650656 6.214565093344906 5.319164651610253
Li 8.16398587805206 3.561498151565619 4.089112831924657
Li 11.105545796990599 8.845048644816627 5.427129290209917
Li 5.7432031992135855 4.916324408032296 4.982740607808015
Li 8.717015641959039 8.754417379227686 3.55540980787753
Li 5.754612887117422 9.071028090856172 2.3229015329196887
Li 7.218627107126653 6.174554743502658 2.6528516542405995
Li 11.9180248222093 6.0688164117368455 6.053264311549094
Li 10.19058139874354 3.720633868698469 6.3778659556949995
Li 10.443497848438925 5.730115135745006 3.2100952129618254
