48
Energy = -75.15238037 eV
Li 5.801530281784187 2.1571277458618185 7.437197256556181
Li 9.360390423428962 2.2142266277128915 7.466731941215416
Li 6.0169703793972005 6.278675616287039 11.045082183863952
Li 4.382993260673732 4.174118449435964 9.295577618483795
Li 12.207633226636197 3.9140016903983774 7.125338894526994
Li 2.7218150850274334 6.429244868095711 10.779614878770268
Li 7.643869545216983 3.775299941692951 9.454227506209607
Li 7.6096567554137176 1.4622677776807222 4.8736523194956485
Li 4.766871442776623 2.920205590416902 4.644814077142455
Li 2.6796972620925317 2.647143952129948 7.063606980159772
Li 7.688714480689164 8.731513042007697 12.100018487454237
Li 10.077639887110891 3.6160403732124253 4.822977323683653
Li 7.389813426136614 3.911138815048201 6.121783430095376
Li 4.49940299892749 8.91367894935055 10.984721682288653
Li 10.796291600242485 4.071562751942496 9.783332765330137
Li 6.743332520229175 5.854094314996355 8.034377665018004
Li 2.2356734555587505 8.729410748864378 8.510575464794403
Li 9.685922572484904 5.040988718236473 7.4538031736963735
Li 10.179483184604504 5.685708543195922 2.4993219853277218
Li 8.898456138836593 6.563222499353174 10.11506250617869
Li 7.34575292297176 4.271845139357794 3.3815105689494693
Li 11.698236079695233 6.373608618604139 5.265802468427028
Li 1.8976562809913031 4.994112773840054 4.950378311449738
Li 1.8704230355571563 5.619734620681558 7.932683257332155
Li 4.379190959292355 4.788353021982727 6.569357151537775
Li 11.547574309189354 6.860513750287058 8.359094988769922
Li 6.274870439146554 6.529094610010836 5.32519590862702
Li 2.073524651489139 7.978082786242998 3.470637231525152
Li 4.430715940071299 5.82254975806555 3.4289837877673572
Li 8.990599344135331 6.3561569161322975 4.885073114840743
Li 6.888389612570138 8.66045303187029 9.429158905851182
Li 7.376093620169452 7.2898653413430585 2.5991461786514543
Li 5.662577554319226 8.786659369834961 6.758717574605832
Li 4.396917302520996 7.120989827553057 8.68316155930297
Li 3.2611491803531316 7.350725223386745 5.870820771045392
Li 0.5465684470021877 7.813222030019123 6.070834584470801
Li 8.654561971051804 7.743936534846726 7.3463056807083875
Li 10.154426437680845 8.692443526120774 3.371311930750329
Li 7.857526908220782 9.160578556713219 4.9037851756663615
Li 9.821748626498826 9.338146058588713 9.54103405064791
Li 5.028211805151286 8.833437879376643 3.8075505596107653
Li 2.907922374137785 10.092131294027435 5.724699831492229
Li 4.780331783666549 10.694422902892981 8.366422426411654
Li 10.682066586264307 9.206262501771915 6.3619001795484795
Li 7.558660435703598 10.407418930402267 2.460485272063293
Li 5.966429928609764 11.329839490184987 5.281760373296591
Li 7.950157688012426 10.629962385859974 7.473369291699386
Li 9.287106394006234 11.482096062652936 4.762490517161416
