40
Energy = -61.64047253 eV
Li 7.758310174114241 11.724671475783305 7.085901532034963
Li 10.657998054574776 10.71319530366099 7.927813010909214
Li 6.845656284677512 9.952463651741079 4.6505327390819415
Li 9.750605660057506 10.58556682732868 4.901274120014642
Li 7.967754568584278 9.991213660595015 9.669325708490744
Li 5.6490746620906975 9.437686702629795 7.149960859293203
Li 3.7287116726812903 9.185707723251046 4.47571791888626
Li 8.637536694551144 9.091421777005218 7.139257606916286
Li 8.055574471784489 9.422745454785423 1.9142173999232217
Li 6.018801963986933 7.591475988821373 3.2069339204132485
Li 4.71555804539196 9.343780439464215 9.989126697879003
Li 10.844336881643686 7.6386313190417 6.396542004621978
Li 8.858855887964788 7.955554409837243 4.264489014789079
Li 8.031979179901962 7.2226763858863805 11.285242813659885
Li 10.484616617508188 7.938489105208172 9.45003143028097
Li 1.9811056141599845 7.258639806447249 9.96164750111654
Li 6.7417915499968295 7.495521170951593 8.954861101231751
Li 7.233025472034927 6.963782188736526 6.140830534085316
Li 4.180078211133963 6.927789398831879 8.468290649095772
Li 8.971932733222022 6.062991433950697 8.248405965670045
Li 9.986874457432 4.906296160352497 10.570822203673023
Li 2.736421221002119 9.09872119250204 7.493488700440883
Li 8.352943454649928 6.02896373689012 2.37280479676009
Li 4.617157470193953 6.993529720782731 5.832469264158623
Li 3.4558488870995254 5.738550028673414 3.654421829326967
Li 6.306978845460412 4.962525115862609 4.259926763058346
Li 11.477880478060552 4.956057838888689 7.880683286640647
Li 5.672273715334525 4.937175938064927 1.5247187006582874
Li 4.856586289688244 6.5946584839973355 11.193588549406543
Li 6.219379639220113 4.855181508937783 7.551003875347523
Li 1.9681850756135852 6.230152848853399 6.809365627475374
Li 9.127018251796777 4.9555145073206175 5.438158048714966
Li 3.614423189877013 4.456811500796147 9.265075810038802
Li 6.884095350739653 4.612157472117462 10.183410386157117
Li 7.854236755528082 3.056323939427149 2.9275089854007392
Li 4.039502305965086 4.00464498532008 6.189781815010052
Li 4.805225708858962 2.7328506138884463 3.489582074724385
Li 8.760917549588731 3.2614333099444024 8.146233432433995
Li 6.91643453699611 2.663713335731463 5.806098156777716
Li 5.699302280828345 2.2288852776650065 8.547472626348338
