40
Energy = -62.30599381 eV
Li 9.692483024469178 5.010327712716236 12.5705169085563
Li 11.309541118848532 6.730750594936553 10.332477080668427
Li 8.503650224146616 7.376889597786093 11.335683900870567
Li 9.110642352005112 4.705166425855419 9.662646863872862
Li 11.141769588789355 5.4147741156501406 7.235116713161264
Li 6.623587706129781 4.877883680161166 11.517757484181713
Li 12.201229072919347 6.826145322701917 4.513315623228375
Li 9.422405121433636 7.528208785702889 8.46793771276602
Li 9.299126767326737 2.74249791760266 7.091174879774854
Li 7.337929981054326 9.361809669392844 9.476944820806194
Li 11.863398036370361 8.484781223825582 7.361968108754933
Li 6.769710541910544 6.447674203649288 9.218398621497968
Li 9.74279408324909 4.741018247327139 4.562576632167363
Li 10.115505836542782 9.808263816725372 10.108156917561281
Li 5.4924274757910725 7.9559509727038344 11.306816925397627
Li 7.506562115849469 10.36012375843297 12.007820282886989
Li 6.4444928281874825 3.5502773523524005 8.457801241896695
Li 8.300156997126201 5.2987655002394 6.94934686896511
Li 4.096068301703031 5.43891902820087 9.378818598991678
Li 9.799799542244013 7.513546450701982 5.578987981809474
Li 7.21904685225145 6.458896598468794 4.494463061667892
Li 5.05470790349603 10.884159181743312 9.953478888514217
Li 7.25031449769381 8.003078241222044 6.898648965575858
Li 9.246330912968535 10.183379116988212 7.137808718805684
Li 7.929606758433166 12.04418664526371 9.379074614986434
Li 2.7427021990461884 6.783469559777095 6.647514464023377
Li 9.509691679510125 7.493556967272869 2.8198990241592785
Li 4.729200556048533 8.309533398772775 8.376943490887474
Li 5.3820370684791445 5.767949966881062 6.78166596296253
Li 7.793683864520024 9.503450335669116 4.50644239956495
Li 6.656389556784537 3.557040713817853 5.345461311348007
Li 3.667274646430035 3.644823000799258 6.686022666383036
Li 6.159575307233498 10.69410138295287 7.038779354139826
Li 10.99446128668967 9.727403197657257 4.494314410201527
Li 2.7538789404849977 8.541343748231492 3.872650137544628
Li 4.963992283517237 8.339939622895185 5.401789966663752
Li 4.285204700630817 5.642140933732196 4.197360184277693
Li 3.124927095595627 10.11543830480754 6.686035153875116
Li 5.692017121404797 8.169633312855149 2.664431452379496
Li 4.881584001970645 10.80821044785324 4.184463661197883
