40
Energy = -62.41739778 eV
Li 8.698803822589312 6.138509258331442 10.593042299680645
Li 12.035821999441245 6.055638023829195 6.712153280727407
Li 11.344351077596183 7.546309143024839 9.552161523210902
Li 10.701500324259166 10.767365686485645 9.552106184489093
Li 9.526867588710367 8.976448302360321 11.846857367829344
Li 10.696040480624406 8.990712512311237 6.829886679778391
Li 9.64429975223955 6.891647439838339 4.71793691866273
Li 9.507996299897615 4.052195330349695 5.9117157730827445
Li 10.54696767702938 4.200314499214623 8.901541609005768
Li 7.562234478014433 4.861246635499162 3.3241769393651395
Li 8.399450466421298 11.056890164653606 7.336794222823498
Li 6.401633813083214 8.24356065478019 11.1197276232838
Li 9.46550471809397 6.406379014314673 7.664142353341947
Li 8.78565618773381 8.823053879867446 9.232107894676597
Li 7.7988638788053555 8.431382073903944 6.532056486745669
Li 8.811681157900392 9.79333616338103 4.2336959602470845
Li 7.485026531843892 11.076345536701496 10.378657913574585
Li 8.504296055833581 7.586055618869231 1.849381480208627
Li 7.563340727158546 4.190345365780091 8.379776798395284
Li 6.727518315492499 6.8285347661907005 8.653839514462998
Li 5.94445337477818 9.508817144690266 8.489028331497336
Li 3.8769775511906404 7.44026998280936 9.264222963852205
Li 6.724884100244836 7.614342882576304 3.9942784449668935
Li 8.61517850658714 1.7589407634453482 7.9244127586253
Li 4.170471347845465 10.427695924204368 10.37141452130802
Li 6.237183073064265 9.661241541228504 2.348853316307036
Li 7.147347330590773 5.671594771524625 6.008050009474815
Li 5.638296220738541 4.999443509955345 10.548234091664325
Li 5.437263810510119 12.05889154200069 8.040379392745596
Li 5.89968842186649 10.242653625717182 5.462208279590266
Li 5.457842013289337 6.712966499920881 1.7232311304279502
Li 8.113810820056354 3.0014903426666506 10.707424171755678
Li 3.3254621944385616 9.773251533153381 7.217266796925184
Li 6.482199909599063 2.969763109481356 5.870212373702103
Li 4.979059167724218 7.567006623222062 6.443144489270518
Li 3.7986843662916066 8.370180533781706 4.036532714890093
Li 5.6557610303599235 2.2255891006855837 8.931617810765292
Li 4.634796179970792 5.402509164458015 4.497385992636328
Li 2.3215118367395084 6.751175928774491 6.468856823742884
Li 4.641644944704035 4.88623754580908 7.611562851844263
