49
Energy = -76.35492096 eV
Li 3.6416212610229626 7.831693571484545 4.204889755376834
Li 4.435865907718228 10.75413595222921 4.4705378845324315
Li 1.815005390112023 8.971161031286282 6.324129194373169
Li 1.0753204640892906 6.338367107574438 4.4882599681404125
Li 5.595808255175024 8.777988320289145 2.077287972707266
Li 2.9638718835075806 6.041740687471986 1.778129798328891
Li 5.8358303550705575 5.862540781174132 2.7382956738463533
Li 1.3693113919614142 3.58155106691217 3.1243987848017523
Li 6.226855548614769 8.539645025353867 4.849165339971157
Li 4.538823447925622 9.325857785541071 7.043695543009308
Li 1.5808184452038658 3.8210999502082754 6.289639181090253
Li 3.792577111393146 6.646477141414767 6.878204920316158
Li 7.733965603145038 10.660312337000065 3.6769620683496234
Li 3.5393584554642383 4.834890101569816 4.303979104862679
Li 4.267939334231296 3.176782491484343 2.1306668369260198
Li 8.459808115457285 7.590009699556703 3.277613596403769
Li 6.309508777961264 5.815493862677145 5.513532114515691
Li 10.76241285695966 9.851702441020514 3.7475385268493437
Li 2.8703423182080754 8.203594774386193 9.23333793215144
Li 3.4019901140751965 1.8385043150447549 4.987795280534017
Li 9.866540352518983 11.668588278469429 6.114257917573592
Li 6.933084509596721 7.899534305167579 7.598765402666372
Li 0.982508692336148 6.342093925554424 7.532200681667673
Li 6.80561511359484 11.017244287871506 6.543536066068216
Li 9.039768139631214 8.994429454361384 5.776924613388038
Li 8.758088084359189 10.027494774189359 8.529104699658081
Li 6.049317831261651 3.2099609327183716 4.55854576699345
Li 2.8744472484990786 4.844113519181218 9.166893806628186
Li 4.426230642985448 3.841497124842578 6.993898705256097
Li 8.689708463169417 4.590323736169295 3.6630144709481263
Li 5.784469565292763 9.742832641092699 9.59502677529699
Li 7.083603811567197 4.682672019418375 8.06751059430527
Li 11.522861623329247 9.257709083069498 6.759630667431875
Li 2.8970436603221796 1.846951477648207 8.249994212191345
Li 5.453170926921767 6.623603918960018 9.636579896009932
Li 11.270153096916342 6.987902089624563 4.648881688258604
Li 9.386196641914864 7.108755002883316 8.696814382372324
Li 8.434325669511628 3.0292575418742738 6.298907901219284
Li 9.11557781184858 6.008130258818688 6.1228027646945895
Li 5.896807332961398 1.5716266840260409 7.232023905458493
Li 5.382123644283106 3.2780174120029657 9.881066771310568
Li 11.191074910345062 8.967275540451265 9.83588027953805
Li 8.19481219485237 8.189419558878578 10.926696851905495
Li 8.158844514979334 2.248036742018463 9.333996693501806
Li 7.944507554686246 5.077183294572169 10.696031075744871
Li 11.206247105710084 4.089693939277602 5.6929105539438565
Li 11.93023752820723 6.445718789663337 7.751101251129009
Li 10.877448650990289 6.164800470469137 10.881860969938254
Li 10.042830874235177 4.3020004164403725 8.499861831774583
