47
Energy = -72.80221366 eV
Li 1.855931109129808 5.199261011234867 2.815813981353683
Li 2.8384141311387623 7.871357509191408 4.190698758178909
Li 2.1127579139527857 5.128684843523059 5.998531725717728
Li 4.3818388838318345 7.116327247416721 1.7158787793235213
Li 2.713912371222703 10.917768798313332 5.478398951503073
Li 4.649471074970769 10.096865528343695 3.250219871891803
Li 2.090286090675647 8.135111276868624 7.034295752413515
Li 4.358516721592331 3.9426401355436678 1.6739823037809438
Li 3.5154040545271137 2.8108081465489594 4.345861280872716
Li 3.267941159658861 5.308934492720868 9.207409170646635
Li 4.301564733302557 5.409562993021447 4.071374189924533
Li 4.736083482017359 9.09479541096059 6.143244187439062
Li 4.252848676158516 3.317454960610333 7.365159306395365
Li 4.499799352455999 6.369597360678016 6.725645930002721
Li 5.897683787293789 11.582166701473657 5.717678587149517
Li 6.021565051827769 7.738498399666278 4.081172303465211
Li 4.129462407934322 10.746746970023903 8.200496956465754
Li 6.8123502631270565 5.234723239706038 2.794079469031159
Li 3.771890929646317 8.066338980501689 9.325984699190446
Li 6.50171730467932 2.2472204755528566 3.337736866985029
Li 7.820714032800066 10.141925258542967 3.7105148340405236
Li 6.315075809051367 3.9110797576959517 5.578597675543657
Li 5.390412728574559 3.6026650795759583 10.773199717596297
Li 5.734659039037677 6.600639217335729 11.089882674944558
Li 7.436102360833241 6.423875047054506 6.100701474511399
Li 5.529265167776932 9.767368930972687 10.95365959186357
Li 8.991619145505833 4.0211661302820865 4.35435499891396
Li 6.362146201850698 8.17691785414359 8.537111654603896
Li 8.345120444552192 1.6287094382591176 6.020917050744973
Li 8.93281859580415 7.250841728467918 3.7355334369831112
Li 6.9142234753040075 2.465947356661999 8.512026702129804
Li 7.765058105916752 9.25392868215328 6.317554275418212
Li 8.845055888165449 4.146592010039354 7.3486533390316815
Li 6.282827883182073 5.219292113918196 8.611380949653935
Li 7.192406661180938 10.868870161037355 8.582331645273909
Li 9.277542535150074 7.0929756053713495 8.285418190780806
Li 8.175933373115699 8.407408309161875 10.6587034100032
Li 11.155795256062287 2.918152196898913 6.374442571575538
Li 9.854245098569335 2.160467289316104 9.014207971821481
Li 10.601379419238445 6.004719543580189 5.92754424609836
Li 10.417055659375306 9.053478330837871 5.701638149334814
Li 8.512969538054856 4.954975712029874 10.326910799778519
Li 9.110573646873336 11.743195771224231 6.188546116867776
Li 10.961754881655514 7.316378547355248 10.62813401594937
Li 10.004488026560104 9.79559137575094 8.637041853538962
Li 11.25361120939964 4.911150866826664 8.732485686327392
Li 12.130902467822239 7.776085129698118 7.8908907336798
