45
Energy = -69.44368256 eV
Li 7.048108924740301 3.292548005232666 3.367546771857076
Li 10.24922571441146 2.5974405099396938 7.661882123819797
Li 4.638599479755308 1.504238082683792 4.867632216815454
Li 5.615971764698294 4.038049439972753 5.629055276198243
Li 8.921084355232063 4.240569508106272 5.682766780628686
Li 11.98303927809798 5.147844408040567 6.410880581877486
Li 7.439288950000466 3.6244242130674564 8.208515990705234
Li 11.67331095726426 8.048266772466144 7.8114250666797815
Li 5.173724179801888 6.361226800073048 3.8673069914635683
Li 12.560299364191321 7.8127420209743486 4.8281735103589645
Li 7.043719673696092 6.408682094251222 6.53508427915018
Li 10.040870208159781 7.0835225261557015 5.629365777364503
Li 3.5228326578434594 6.208506705203418 6.280475574244438
Li 9.737993437416073 5.521634743414005 8.154859915354379
Li 7.44992033344604 6.050172199342435 9.922180258224518
Li 5.430743900092849 3.6844343940552724 10.59453187981919
Li 4.64141224475165 2.509246783439501 7.815708474023827
Li 3.696131310929373 8.823943443579791 3.2462470972933297
Li 10.18959651274713 7.53230813028373 10.422661952655973
Li 5.172782421709877 5.384948449215327 8.338979442463193
Li 7.414811364227935 1.7014902484332903 6.141471910307779
Li 2.5060476067183086 3.652482522691531 5.948759219906086
Li 7.358099022722582 8.810065880728596 10.802167288184322
Li 10.848301708288009 5.373563337221728 3.5519197236712046
Li 8.657172156210423 8.211346334385118 8.059748018543658
Li 5.10695994393561 8.557743393890954 5.684010328943556
Li 10.370354242407796 9.963689300641919 5.933543379030053
Li 3.869702762103917 3.8867288323187648 3.2809911390945343
Li 4.176495723611053 9.695627468185403 10.479410316920605
Li 1.9917329763163012 6.224659583190991 4.0410230455778775
Li 4.605840812388178 6.717635830204806 10.808267867602366
Li 5.695243445543854 8.409649757939132 8.48441831655496
Li 9.773260894651262 10.416590878667247 9.189163249517373
Li 9.999147809188685 8.454157409428005 3.1046928355357464
Li 2.58342602526083 4.699575420389194 8.987681523739992
Li 7.972968808337513 6.147100744032702 3.68537792182046
Li 6.562082532830354 11.212511976254746 9.494347840663677
Li 2.8397136123123348 7.749657396263386 8.55047991976763
Li 0.714318936180948 6.084326339223638 6.887482650556144
Li 6.668522199395724 8.655689520322534 2.4728453865792863
Li 2.1819009692853495 8.76125107894766 5.809172927265199
Li 7.775961906533867 8.72158081304772 4.958946493863749
Li 5.6388213391625746 10.983114839208156 4.398026996882878
Li 7.38326418310357 10.53804340770581 6.927596605461785
Li 4.239174513039977 10.648522216382693 7.363862200535198
