41
Energy = -63.15423527 eV
Li 5.3434551945056175 8.883161192176141 3.603132487292617
Li 2.4117034241751423 9.43675615479737 7.611039071030911
Li 7.867866345234732 7.412895467232272 3.1825617707999583
Li 5.106690218467128 9.8659315118562 6.339328022380157
Li 8.021406505534653 10.420852116528048 2.459887472222517
Li 6.254851938984481 11.920861221545378 4.484137550316134
Li 8.346755866707479 4.766956973413779 4.015799192188922
Li 6.348300848014185 7.043912310787672 5.839825713651022
Li 3.3839084977664533 7.231040540624563 5.540057253563125
Li 3.011354328580017 8.321246916469063 10.408868329986001
Li 5.135439375294321 10.442156587186183 9.230705010520916
Li 10.428027760777635 8.98365573658272 4.030881510895371
Li 4.527748250000214 7.771087703019046 8.221521175609178
Li 7.763453165600252 9.68032883215602 5.112678465648933
Li 5.227043608100092 4.938720143236436 4.249781144242405
Li 9.150969678018683 7.116642370505059 5.78445166766964
Li 9.451431728972677 11.84980908527627 4.8113819455246345
Li 7.063907300250513 2.222727152008931 4.426186753396881
Li 7.522019508497848 11.543044014506908 7.3833750168469345
Li 2.384793642566213 4.1633369419369695 5.649514798690975
Li 8.631244487053168 9.931525379997426 10.03496514715021
Li 10.119746358278423 2.6795900583664194 4.60246699133992
Li 10.007382608806452 9.76672553924027 7.049879692430995
Li 10.976932650809838 5.86068719396176 3.8347757928653716
Li 1.9867809398006901 6.27407366385323 8.108599529283627
Li 7.3400623063132855 4.2739995161548165 6.5039655675513135
Li 7.018532967133754 6.005439225061427 8.785412453683103
Li 11.959670648109595 7.401738577622979 6.299205390029482
Li 7.371859756159837 8.761624817671846 7.932634623347552
Li 4.2284765000806015 5.520521856321127 10.039286323499452
Li 4.8843603775995605 2.355211303770563 6.417570762131868
Li 4.491300120254087 5.010078089275675 7.215969755528492
Li 6.1448382999031255 8.007572172552344 10.749137674352268
Li 10.270196752760015 4.69339861859216 6.665284962030231
Li 8.382662456046273 1.9384364459186192 7.155123202630644
Li 9.84580536960972 7.174884522554864 8.54061056573922
Li 2.864156181013277 3.183743057245728 8.60453406780268
Li 9.06156040899817 4.199606209090873 9.392725390778686
Li 8.891365754903303 6.95065751129643 11.163216883572106
Li 6.030144334033926 3.17431619195448 9.026159216534372
Li 6.750755447223797 4.934648627405715 11.469244801031493
