47
Energy = -69.71333473 eV
Li 1.3297131045420998 7.297469802249714 6.6869368758345065
Li 2.4937771291262525 4.682422742993554 8.004149590360639
Li 3.0734179967347455 7.492767842325603 8.878150873807417
Li 2.615995202186822 5.342976411576702 5.060159170022816
Li 3.9150739955636085 7.7600092591752174 11.587494590709406
Li 2.6896310875569935 9.957570366663733 7.188163734770816
Li 4.491937964392212 5.239053165265193 9.967954988083722
Li 3.675923035583271 8.046755729157624 5.193588648425273
Li 3.8506538163755 2.8632300636573227 6.0042000287067
Li 4.972074783993796 5.884708814297687 6.9943380723683255
Li 4.230870965804411 10.022931115027417 9.75164389748105
Li 6.732139720075271 3.449065217702427 10.87234624305784
Li 3.8365870311213186 6.531202629577173 2.7537593948261727
Li 6.070187824587611 6.049546105049616 12.182720184073323
Li 5.248326656735304 4.363697055243627 4.013702745474872
Li 4.68412724680848 10.84336101350649 5.192301240402344
Li 6.559812611422825 9.351242760014484 11.863175142163257
Li 5.332710589935757 2.9618973488269633 8.426773160242897
Li 6.925348991636266 3.741071218499495 6.147069095868967
Li 5.437064739212424 8.93008785528203 7.226021628527182
Li 5.15174150073781 9.121585410324379 2.9684731590194957
Li 6.353888143886389 7.70344424515277 9.544291932375488
Li 4.918448373511556 7.7175114661912065 0.3520070377394943
Li 8.330726736975178 2.453686200093975 8.372603591524616
Li 7.349136731570044 5.255336248835902 8.635200949312038
Li 6.552927940052309 5.861800560320037 1.932436309807911
Li 6.524828007314544 7.104440704510614 4.879930459094186
Li 7.124792628938752 11.406091524811004 6.454567714599073
Li 8.226220427780973 4.248417216451061 3.6220545438625416
Li 9.432066928990727 4.416746947169846 10.595966205417556
Li 8.226773900350443 8.660058909591376 7.020721160617463
Li 8.92836793341357 5.957964175532536 6.126012718835439
Li 6.884621000358202 10.771440639137165 9.18288255128826
Li 8.619153073653502 7.059587630315129 11.521958634797045
Li 7.444743308547577 8.656999275753874 1.3388113814006848
Li 9.717980417422881 2.9143743220935527 5.682492143081334
Li 9.164765695051889 9.430992023127923 10.062026684822154
Li 10.704438766627076 4.25189673918833 8.083031241258633
Li 9.725227977499127 6.85264384569061 8.848103752584073
Li 7.934946078481722 9.602696526097738 4.067619999559725
Li 9.049573411360255 6.96896872948884 2.9575368479542163
Li 9.827707683213935 10.88820817060905 5.796956505236047
Li 10.59162029020596 8.34229977052482 4.896608839608133
Li 11.028530827645378 5.430700497648832 4.110722966733185
Li 11.017379844740933 9.231916929344862 7.786033970032322
Li 12.540696568948212 3.8413355729693297 5.892095930276696
Li 11.881272155001898 6.621729350116346 6.798359059415226
