42
Energy = -64.79983823 eV
Li 7.416770017067077 8.539617235270676 2.002679446277956
Li 7.851408252326049 5.516988106687577 1.931031556481993
Li 8.811104914172363 9.814333533028366 4.2999839312459525
Li 2.068367560149552 6.968752226466289 2.180615372346889
Li 5.119044875323928 6.609608040756473 1.8639203602124728
Li 3.44278200962161 4.1258200692536775 2.2576914343662753
Li 6.758848836120873 9.757261192314651 6.474820154932815
Li 4.612124275393697 9.022290884457934 3.7277963806857923
Li 9.592251490676464 6.9187389982445175 3.781761726649119
Li 10.00289572272286 10.679721682781642 7.061046615762799
Li 9.257322668915853 3.705866286721949 4.195544721436448
Li 1.7314087326340335 7.843786152515542 5.178278113170226
Li 11.697500128672234 8.844867902834011 5.206344279140478
Li 6.754704818118129 7.294154087115408 4.464553804044051
Li 1.1108392661171935 4.9140186040516225 4.332578287914538
Li 9.296713346360132 8.092278296845329 6.443444276217684
Li 6.172023996585094 4.316053983092202 3.836444112455286
Li 4.402178186890978 7.835671414317337 6.539327817353608
Li 3.774699640082201 6.098109316650148 4.235741120654355
Li 3.587767974701281 3.2044072623403177 5.220418526853377
Li 11.15124455451105 5.818590774896619 6.226676738115626
Li 6.894595402246128 7.189295165542767 7.795208767976921
Li 2.4600194141225074 5.526200934824489 6.872083327023002
Li 11.509300753190832 8.156091448915253 8.275363794710678
Li 5.299649868178237 5.137696026254014 6.436917261732422
Li 8.164189909792752 5.331199695864418 6.054614035904548
Li 6.7230299953144295 2.6320068407342223 6.256369562657211
Li 8.538955060939623 9.01420441751346 9.178985844304435
Li 5.250806764567905 9.025173730729593 9.269528421270863
Li 11.976072050529302 6.119513972281809 6.970052446924136
Li 2.0856762968443463 7.987790851032174 8.356886519761828
Li 9.431264943846264 6.108112477340884 8.685629627327156
Li 0.9029958486693669 3.2389488196102865 6.976523027692325
Li 3.936134252107555 3.3407251100036937 8.241060319273828
Li 11.976072050529304 5.166574137729012 9.225415858058895
Li 4.4141237596483505 6.192817791875648 9.122877270815218
Li 10.373016259432317 7.140526500479304 11.008459322038458
Li 1.5104869743749805 5.1049104026301855 9.406019321747348
Li 9.72212611534645 3.4347952035589056 7.591982158869415
Li 7.189852332382649 6.680219836859483 10.652363398915062
Li 6.932178219970239 4.360436603612242 8.759209764174459
Li 9.350497765967301 4.254514904010307 10.693080090006655
