44
Energy = -68.04999189 eV
Li 10.644214373809683 8.859394549888654 11.26725404062561
Li 7.421034198855118 9.412414144601556 11.388546501352822
Li 10.974562430286506 6.87208765724469 8.717294257079546
Li 8.625612097136859 6.667740685036101 10.819081916939837
Li 11.348326787871736 9.828451669099833 8.271279239691077
Li 5.863914226788147 6.941634921015522 12.190961547402651
Li 8.862771239816942 8.79290070673912 8.984635192818297
Li 9.228385834605191 4.006304020159047 9.295063133058209
Li 6.594914063878328 10.689892961738778 8.587289995520985
Li 9.534020591262507 7.760237860297877 6.20595463817256
Li 6.189985373850828 4.985102127111315 9.585018433192262
Li 4.16027282728152 9.178141783293041 10.752850943308195
Li 8.137765721392936 6.168693535642959 7.907260054277318
Li 11.74754291198137 8.843501957944941 5.357698098932553
Li 5.952773835694384 7.743278116821909 9.43762727546928
Li 9.006343496306512 10.401636449590105 6.368089725642739
Li 9.176919670387527 1.5507521844208814 7.41045281415062
Li 6.707582680115095 2.005670752969119 9.354962543556166
Li 3.501085283993116 6.131109616601295 10.434279997192336
Li 10.18809939969819 4.718802702872752 6.403029404594383
Li 6.658688472005505 8.483076189847939 6.92144795664901
Li 7.2986924904701675 3.512962304315082 7.143580790487439
Li 9.361732779847605 9.64599218609089 3.4220227942829613
Li 4.306071917543934 3.664029075832499 7.7265267328419895
Li 6.209721330860287 1.1192712293522349 6.436811067381849
Li 9.940322786844 6.6009265439410445 3.556954510662365
Li 7.7892897936594085 5.5055639686096285 5.010484306726435
Li 7.307404872140516 8.131488713259426 4.30416437503025
Li 8.44486958780761 2.724966083511992 4.656054344059632
Li 6.086018323541033 10.626700088770578 5.175899005077098
Li 5.622479707310583 5.906773053520935 6.571704165656319
Li 3.884747317540891 9.677608837588135 7.6520268107607485
Li 1.535900758374185 8.39413728956477 9.158092416319516
Li 3.487313557406209 6.930398764431363 7.8020121731481655
Li 5.469691586025912 3.6205018948235757 4.7264924973702716
Li 7.612832382403241 7.521184439948462 1.5533459120855462
Li 7.362174759797462 4.678735210113043 2.302419445015096
Li 5.1917473255699065 9.028900557995927 2.383444805878528
Li 5.306683574320681 6.3183299908962125 3.442145501120177
Li 4.280207955949895 8.202339681865858 5.155371066394857
Li 1.5195680897381063 8.183864501590858 5.97336206911573
Li 2.946961378429372 5.465707344800682 5.259154198150783
Li 4.779715453478211 6.3275336267893145 0.7855296479857509
Li 2.5952858650936137 7.353559346341686 2.8577681530052748
