48
Energy = -74.64507911 eV
Li 3.8193505647703803 3.770252634145797 4.774450542133586
Li 5.1330012151857805 4.736934940752212 7.251756213082277
Li 4.200657878756087 6.714540559032274 5.259475700181239
Li 4.785323595956049 5.7046552573337195 2.417926973884028
Li 6.195857882160608 2.9579677423020496 2.843839563594559
Li 6.391646922237012 2.3003528653128513 6.032800189799604
Li 2.284281561075648 5.75542112079956 7.34583131050161
Li 4.095478225377797 5.13573748793481 9.9652057262984
Li 3.610010071044746 9.276057511165527 3.8685831855646526
Li 6.449355689914696 4.955962187045751 4.610657473873646
Li 6.736265476467961 3.2058352979471287 9.268150171915108
Li 8.177336886779756 5.468911610220844 2.390177905316297
Li 6.564404536888222 7.826802766047798 3.5987995322513804
Li 8.853877977479353 3.2605937605266573 4.539235144496895
Li 2.251772015405705 7.687950655126105 9.863567935249632
Li 2.5616186013759443 8.959664384000176 6.884221245364597
Li 5.3986925920708915 9.259914971959942 5.9810078808410365
Li 4.457195392559424 7.415278008535373 8.239548429722143
Li 8.018681332354534 4.4717170578427785 7.027206404805968
Li 5.343998797799633 7.7837411645823575 11.027709395352476
Li 6.102685479743504 11.130039737809891 3.8774019320803945
Li 10.295494974680812 8.545164671078412 3.660073932414602
Li 6.955095470705305 7.096608270089666 6.750453472814624
Li 6.462859124389594 4.889694173281956 11.893944832958514
Li 8.158963916567961 9.515303365330661 5.1075357760566815
Li 4.135972420165842 10.125199378950876 9.310224885640814
Li 7.0341127893472155 6.139636985067033 9.427481327624104
Li 9.19731402208141 11.699589831332588 3.7785429036047415
Li 9.058150917695148 6.436076070696472 5.073253486389527
Li 4.401126687454456 11.632191885740427 6.577026541669212
Li 9.94493387453197 6.0595541568972076 8.201085339749351
Li 11.192467087390021 4.703676713999592 5.877752931750384
Li 9.289325729642522 8.571735027159423 7.295997832107207
Li 11.760833379705407 7.554552551821237 6.274390649264461
Li 8.257450882697185 7.326102759896194 12.522859446839288
Li 6.763055196878631 9.520002465510286 8.443147130124787
Li 9.27007109789657 4.579599998173206 10.494137747751449
Li 10.746253572492948 10.593627125006169 6.200096732386844
Li 9.982535271962096 2.8841987979165618 8.016532694751806
Li 7.647207125478317 11.697323995061078 6.545950002965788
Li 7.275071468650494 10.144517827114305 11.2994888823766
Li 9.330995401425792 10.953943659121276 9.09159477806375
Li 6.357526388908711 12.244158329997717 9.215825949823634
Li 12.331837842441 5.210880473625975 8.779157366705629
Li 8.930317066794037 8.145930892590911 10.07080058335129
Li 11.617975466923868 8.728600421071414 9.048669698563897
Li 11.075664608039368 6.781617207400266 11.24680715215383
Li 10.30277860869149 9.714329402670351 11.939183108594985
