47
Energy = -73.04891339 eV
Li 11.473353892763825 8.091852990977241 6.239137657448214
Li 9.240775618784404 9.250101362874654 4.171569188367253
Li 9.030584550509566 10.153317547463214 7.256800727686691
Li 10.004285018832439 6.347589750243961 3.7409084390654215
Li 11.38599355490869 6.018682312932102 8.656876382542663
Li 9.511118505481907 8.0928062895241 9.274711236669868
Li 10.734863414140538 4.811896232818992 6.228699233000687
Li 6.762501642262472 9.16621539084045 5.733098930324259
Li 8.937501537630773 7.246372816665852 6.510887340049286
Li 6.431578720130052 9.659997219927181 2.721955588842531
Li 7.251763986505578 7.133016310082462 3.8732561414928686
Li 9.842735214761877 5.890504140961236 11.187884714798026
Li 7.925561757391834 4.798823314363671 5.388683107562887
Li 6.794375851262649 8.42134748114889 8.468876053605507
Li 8.38933067762914 5.104655724172354 8.617660200429587
Li 10.349621520799152 3.2336293769521847 9.384979385115292
Li 4.616321119366882 10.998776113577607 4.914168761471024
Li 7.5124894928539385 4.834017882971329 2.335287948544593
Li 6.9254544342234245 6.901295962608749 10.783719417221183
Li 8.467790798067023 7.705404318202152 1.40227194733647
Li 4.53764189412719 8.076235758799776 4.313559409387868
Li 9.068851036108425 2.3878155197870004 6.623435789133267
Li 6.073649852422335 11.192430097912153 7.788548741155463
Li 2.9466379198575723 11.392052892142042 7.5452771505213585
Li 5.271620382097274 6.89328070480207 1.7434795046708809
Li 6.899208116952532 2.4662028858880847 4.110137867429338
Li 7.595070082791899 10.092342890731393 10.486507945115402
Li 3.3525731232341807 9.501369328062065 2.261537411079261
Li 4.190803439335525 9.032687623219744 7.0829228716581625
Li 4.956032871780098 4.983967697736614 4.4903049108449675
Li 7.904057017906374 3.7627138701327296 11.283282715737837
Li 4.475868547897668 9.641229512408167 9.867993390369483
Li 2.0231322111853087 9.418584750862527 5.108584820290261
Li 6.702456760433331 0.43759285217112587 6.470699703939164
Li 5.926965148276685 6.33098580511461 6.806597607203607
Li 7.572297584814954 1.828993641715922 9.074054672447446
Li 6.255351309969397 3.1432918800268985 6.906116389080205
Li 4.3410856489295275 3.630759800170864 2.2842606370866525
Li 2.5459588569518092 6.588676637286782 2.9892120546131706
Li 2.7931855145745192 6.669179520745621 6.122914258293789
Li 1.7114904923263743 8.643991357149687 8.298347130155426
Li 4.088976931703377 6.784510477782082 9.020891821240909
Li 4.251744081145102 1.992117956992945 5.203107482069494
Li 5.70040872854927 4.3062576374300665 9.439103191670561
Li 2.2146077554174846 4.015775202999402 4.531695943300603
Li 3.617834061047478 4.165144094395233 7.255617524493077
Li 4.531478671806202 1.518759780524488 8.45125174510523
