41
Energy = -63.63043049 eV
Li 11.394650998109046 7.150173696692403 8.217223352461726
Li 9.893300898765528 5.110067444270508 10.177501812808124
Li 10.695132021974983 10.131744559853065 9.026414243686622
Li 11.189892897182139 7.817574513597842 11.401501463178993
Li 8.295868942459219 6.880677654476507 12.436178872863815
Li 10.754297712789072 4.023746789854837 6.994046139531806
Li 8.775624485471274 6.074411947358343 7.834668678417889
Li 6.937787479034502 5.81864443566219 10.038351755012242
Li 11.653524336850255 9.636118643929594 5.901617440792258
Li 10.534133332903291 3.89378781541269 3.769508024825592
Li 8.156459293395248 2.2118593194515785 5.192945006111452
Li 8.968087194055666 9.979382340493926 11.792927173175828
Li 4.983762768858495 5.941368836593814 12.110841191027655
Li 9.271935508095014 8.756579271519799 6.9811629577310645
Li 7.869637873930764 3.3920892726743705 8.131194707597938
Li 6.711627717330728 7.959530921321785 8.074919313280084
Li 8.950590687000508 7.999015503155893 9.902871636646275
Li 5.090033295572075 3.7398800045544753 9.632776253609833
Li 8.550015883626958 4.7714966190671975 5.460675272973987
Li 6.217735187764835 8.594684114265645 10.942684192620975
Li 4.302755844772525 6.938420649994273 9.282226957895885
Li 10.534188595874301 6.732318103806068 5.238517822281594
Li 7.38655556542718 7.216567602651679 5.432782998407922
Li 5.925702198811704 5.293128704200601 7.1318229433508
Li 5.195601052678573 2.8495197544569093 6.393890427256578
Li 7.602512608286253 10.506691847597015 8.886521647509328
Li 3.0841898819112012 4.903485248214998 7.7503938171264535
Li 6.123379094142229 4.904646180874654 4.135312269620795
Li 4.579969658717644 9.825275275954219 8.32533555844282
Li 8.572095401406596 6.32849471427606 2.917224615849889
Li 9.005214953459625 11.500572947969653 6.253571858690255
Li 4.558416322285529 7.647559518798182 6.162500866280131
Li 2.056410873730535 7.956117257857949 7.073919246131503
Li 8.884530935730927 9.252257281482484 4.085401864227011
Li 5.737592589380455 8.26333088277346 3.5062688494173226
Li 3.3838079259997333 5.485778087634643 4.982484830634084
Li 5.984293578836103 12.379628022329694 6.808674648014691
Li 3.9956621420547473 10.405301277849263 5.353563630192735
Li 6.645843983073948 9.875083186059307 6.020664772064387
Li 2.59295017403868 8.121914276265898 3.9537167491825556
Li 6.607722093933121 11.475465995043312 3.8487107454606693
