45
Energy = -67.95900666 eV
Li 8.459843158937398 3.454048010667444 4.084139507928429
Li 5.815529303558786 7.64750231408019 3.016907516542176
Li 0.8093525418445653 6.772675204195508 4.418920711882522
Li 8.216687631414846 11.46530018704505 5.907338291029218
Li 8.50766475557345 5.967809093950777 8.773209047423402
Li 3.4070887859519203 3.3265586514141052 4.20106330837722
Li 0.92962308748229 4.199207457046804 5.883130350656528
Li 3.362185527011589 11.34400643088697 6.010422853930458
Li 5.922609119657631 2.4898101742841217 2.769876309480562
Li 5.785088452257519 10.381227941937746 4.5161277916816704
Li 3.3519657652780275 8.68218437993329 7.34398243802164
Li 8.297482933670569 3.31694398479614 1.1220039984154624
Li 6.040132746714086 4.956540711760522 10.362715816867874
Li 5.873112849713167 7.830852388946621 5.878883923351497
Li 3.4798561224502684 3.3560908365030833 7.430691358091697
Li 3.301333148192855 5.81998653412984 2.7751402157506533
Li 0.8286910876218297 9.47106565445099 5.98305454873629
Li 5.944105050085932 7.6257241283741894 8.80262235663997
Li 10.967754605426085 4.440352662546601 5.669396329617016
Li 8.360917324469867 8.844671090088257 4.37152489982698
Li 10.946776412863382 6.98713158004701 7.157343255364388
Li 5.972550365031152 5.083876322269579 7.3692934830477785
Li 3.3383983310964256 5.989304644498006 5.808321873250123
Li 8.477079888623106 6.10818202996799 5.682084644916896
Li 5.845468539557974 10.364814488127926 7.3841259850841485
Li 5.9919729688833705 2.596041734161045 5.856751361878362
Li 3.2766757867165937 8.717641212968347 4.4781462313079246
Li 0.9011186148722787 6.7431556404041695 7.387223210326501
Li 8.551168851071447 3.4038233259866635 10.315740672895013
Li 8.41321445004561 8.806774659849241 7.2296563689185795
Li 5.892382435020184 5.043895885490285 4.246690176808645
Li 8.539179856715357 3.471193250372098 7.316052845343657
Li 10.837535085744326 9.720948348589545 5.767214219499396
Li 5.8391486085927395 5.0036217407948875 1.3614559174526593
Li 8.388798000300772 5.946942333076594 2.6572453420484266
Li 3.4537680980138927 5.84692406938121 8.897757181327156
Li 3.444665922693036 3.2068354435113373 1.2277821782736884
Li 0.8761330007631656 4.0924568272953135 2.8206321198715996
Li 10.885156196421958 4.337200507275932 2.6073381678567977
Li 10.90582895587352 7.019257918143726 4.199080432035766
Li 6.064614293514559 2.5483407989765756 8.951990864133796
Li 11.068132680047714 4.352612947407211 8.74242196036558
Li 0.9820528870646471 4.1014987591513545 8.964312457152294
Li 3.609288961483671 3.2765067456274126 10.426536098018538
Li 6.1405994798155525 2.4187879972852704 11.945045927620795
