41
Energy = -63.40584175 eV
Li 3.235550799041046 5.994535047882351 9.571348674647798
Li 2.1882435209705595 3.7207801462281522 7.475098850626865
Li 6.153031728380889 5.235521418041799 11.109770471990752
Li 5.160541340114243 3.793307940126114 8.49810489258948
Li 7.3070282488042 2.396622323921866 10.428743431055791
Li 1.319680708597701 6.741087056459171 7.034157288070925
Li 4.797081068550685 1.2278502390542565 7.337697386684337
Li 9.230904090630798 4.62170364292197 11.444108349088376
Li 5.938236982750977 6.645153774892111 8.651607522253766
Li 2.349076094889663 5.272762804239453 4.323623585549543
Li 4.261642928663968 3.382962830084032 5.447937451662175
Li 5.280997782744302 8.233060446092903 10.79798953192731
Li 3.850987467064433 5.891243918965 6.735951045265672
Li 7.674982349903185 2.2884975766130418 7.462474359994117
Li 8.300051228833357 7.455993205479058 10.173752439941412
Li 8.122625836211022 4.692853661747794 8.97561823117265
Li 10.193021899680746 2.885829180177597 9.120668408334415
Li 6.625640349870285 2.180546468591012 4.775989380594129
Li 6.767813172742483 4.869419626553627 6.297851221214259
Li 3.792931000526073 8.648582476676875 7.962425987224331
Li 5.295933233348923 5.88339568848501 4.0861503456064465
Li 5.889000232403458 7.884122375867715 6.090512176041856
Li 10.702419668692235 6.054688084745481 8.66256620223108
Li 4.870759503433278 3.8752993740803228 2.385885090272637
Li 9.556472243457039 4.489563064521975 6.227517936384418
Li 7.906209727092475 4.401883553858108 3.458587094894067
Li 8.491342015330883 7.090689303081121 7.263868623502388
Li 3.283841972808322 8.18309774938025 4.882372034597699
Li 6.8433149284952846 9.497293623122632 8.274393405331445
Li 10.035136952142706 9.163324115845763 8.076733738902297
Li 8.052407992449329 6.946697519547987 4.4183657578773
Li 3.8646970307774593 7.2242967009023475 1.960203873232139
Li 5.945461245909375 8.727515129692033 3.339622940889709
Li 10.645812832155334 7.468676497893984 5.45397697625075
Li 5.132552291610283 10.550361695619351 5.616120980393602
Li 6.787784683281065 6.504619552380999 1.5945200874265748
Li 8.210606737317116 9.627021927626071 5.43303660355539
Li 3.810381557103053 10.365492084760744 2.611467675248531
Li 8.74287672823216 8.854144498375078 2.4356549366177838
Li 5.951242901542881 9.39296011886563 0.6533666360920791
Li 6.772139982442955 11.24684262441454 2.974528756206325
