48
Energy = -71.63754009 eV
Li 13.226975848386303 5.292312799396678 9.71051383060065
Li 12.201789653163948 5.836023347396464 7.173578834901891
Li 11.465839977104753 7.531453162845778 9.611010920828102
Li 10.368744895023315 8.129342600188867 6.965039654956568
Li 10.990354156732554 3.609714162072084 9.17393475760875
Li 9.40684431616725 9.644493700034005 9.276898137710052
Li 8.26460032909354 10.0706463161793 6.5254385904312615
Li 11.11860496395677 6.220131256693783 4.524596219905671
Li 7.275062862260516 11.488119580607359 8.86330673005033
Li 9.296817613545633 5.798978607375915 8.533061234251885
Li 10.309741834480096 3.7857071536814964 6.298571657896053
Li 9.540259090745526 8.745941059184528 4.244459685018874
Li 9.030826544454905 7.139006016798124 11.054926865088364
Li 6.536386378798466 12.362156342845765 6.208284303349714
Li 8.457519114660888 6.429268578875275 2.8784494767456703
Li 7.161640246635978 7.932217339800896 8.12048925277957
Li 7.562715874716733 10.96763056530159 3.8293272259471647
Li 6.946649919077223 9.053173507517005 10.890108577634619
Li 8.364306238654025 2.6735224265680007 8.19513400579139
Li 9.697616904720503 3.896143473348804 3.4824685241552356
Li 8.501757775321208 6.171226669589426 5.797417615790804
Li 5.111659115585552 10.094445224410844 7.572108729999924
Li 4.852986433322222 10.979063517070442 10.378483733911308
Li 7.928909935281674 8.999690281281485 1.773651517307816
Li 4.519427591851719 10.79689655507966 4.815937391152452
Li 6.61789687175413 8.323159554112886 4.732896671938948
Li 8.63030838086146 4.107929718175787 10.862861514924465
Li 2.4268830594339423 10.088653059111463 9.177478873818782
Li 4.4631349877261535 8.098741556402375 9.811110901988755
Li 7.634146085243777 3.267290643062358 5.417800975024005
Li 5.780607687563082 5.63299832336962 4.9132989505382385
Li 5.551233275086778 6.722651376001149 2.2601341759909075
Li 6.455735382721334 6.134568025183153 10.380517672135367
Li 6.9009366942957895 3.917222302704268 2.509860064246789
Li 4.504057328737734 7.236926197916688 7.051958151626996
Li 6.47474229753131 4.998517711085386 7.631534492082056
Li 5.193925710842409 9.637982847521418 2.342390774646568
Li 3.692830708271052 7.971214290871046 4.179441538127854
Li 6.0071196845797346 3.2566894345405295 9.957102706066895
Li 2.4864587993477976 9.453328055219384 6.374496307965514
Li 5.708635685181711 2.026703479192256 7.1852354232473346
Li 1.8141393746476442 7.309535775522879 8.770736160100382
Li 3.0648713196181303 5.08822272973309 3.738259833440388
Li 4.887734157620073 2.9272994278144004 4.417810188269443
Li 3.6508024540097006 4.338946442798553 6.687654861287728
Li 3.737398555899812 5.256488977216148 9.468317920640123
Li 1.8571948967086527 6.604166234037197 5.975737833596577
Li 3.4589599139541063 2.415083675620786 8.917266517461327
