47
Energy = -73.27587066 eV
Li 4.91223956855671 12.634589886217665 5.921735098023452
Li 11.163413334837955 3.5255844384548167 6.973022971338074
Li 10.236064701371957 5.289081712861903 4.461908716459198
Li 8.605237877305976 4.644750087064792 6.663745754072939
Li 6.065902560819113 5.619096469387006 5.8756762429261356
Li 7.599958916955838 12.255646579956451 7.61297929530485
Li 6.589933079142275 4.411722876174635 8.860967945039878
Li 3.2600482786558707 8.459803315023244 2.6707989400309873
Li 2.289570547426379 5.919441438080199 9.892736666342872
Li 8.5941509371761 2.144301962014658 8.261075078026844
Li 8.174284811774825 9.931547903892017 3.24221808928968
Li 7.794837296526551 6.9136122010554875 8.358634144921474
Li 7.44010750516742 4.5091995115960275 3.8461043276961386
Li 9.626658679119284 4.819855906643004 9.431080403209492
Li 1.4988246188811372 5.393921585027844 6.933916565033099
Li 4.891659863903647 10.609494797215762 8.251853756938775
Li 9.714252690588491 11.40318683887421 5.435547895626001
Li 5.689352583584709 8.246447529385339 7.049424488495923
Li 7.646245771045246 3.0265213311400574 11.061425779439684
Li 4.815360635348186 4.348791656988134 10.861498168693297
Li 10.639008579756 8.45801703611821 4.5295318129373285
Li 10.58260885352579 6.696734557848719 7.145380554467849
Li 3.7882666880280143 9.890188016004831 5.439445648072689
Li 6.788767045258455 10.531635556133304 5.679860186501362
Li 5.776942534663966 2.0723977893170042 3.969613262228245
Li 5.721085266048685 1.5103890810234817 9.163229591299421
Li 6.106011373780603 2.8190295558465155 6.58808942465632
Li 4.94687982663326 5.641247569092269 2.8884261679884893
Li 4.182099436965782 5.7696489995844855 7.8884580862025
Li 7.503311913790689 6.30133794910735 11.094130406422236
Li 3.993851827324559 0.9535364294578971 6.350817162935221
Li 5.012954259590865 7.498921926420186 9.873483567839894
Li 8.317371336358855 6.946464988397306 2.5542924547997936
Li 3.7404374430018974 3.945820586540303 5.292893872766437
Li 7.330627397746975 9.455369772558617 9.635599675648386
Li 7.402003270916925 12.878748538469312 4.3004902093028425
Li 8.221946964714087 7.427705180048786 5.338197451957067
Li 5.995057970668874 8.50109137122029 1.2814813157846132
Li 9.01429462909777 9.345952034090306 7.28003406910714
Li 5.797164407329088 8.167234426906846 3.991029444769267
Li 5.282471030438852 10.961637648612903 3.095852109224079
Li 3.417566460243796 3.237943859419089 8.309724246573056
Li 3.48053354272856 6.92348527651415 5.268288755324162
Li 6.964587962161083 0.19127079912152922 6.437160961706955
Li 8.83013543607088 2.29290831147278 5.176688586164658
Li 9.998917978854731 7.934270771903268 9.919011389284876
Li 2.7522930163396935 8.28208247634014 7.900031621469076
