40
Energy = -61.34655945 eV
Li 10.499856932963421 11.511226066489122 8.637515108621805
Li 8.515373554017561 5.889053577175279 12.379684833029657
Li 8.989819818521026 9.147740749159949 8.990465433141466
Li 7.672788381187618 11.238399319798964 10.482202000068526
Li 9.917865714753091 8.781736373463369 11.48745577357546
Li 6.7099697440062815 8.46818573880956 11.746699693823624
Li 4.614368851434693 10.880520675523284 11.182430611797468
Li 7.754974859241863 11.233448584639348 7.379543000351914
Li 10.630845583149195 6.0679457118227305 10.058495751884466
Li 4.9140683004909125 11.741555235976366 8.21427687619517
Li 11.767597583788026 8.610158131941414 8.562383533282011
Li 9.920024293867955 9.580272047672574 6.2855427805897675
Li 7.91284499126307 6.822883367055977 9.867966681586566
Li 7.152827126019153 8.248404714621424 7.171713809738047
Li 5.546686076355886 5.347830209713618 11.178812558069176
Li 3.3390055079439267 8.840761880200306 8.041637113226894
Li 9.877775918625163 6.813334273144313 7.4041958386915825
Li 5.907535574410896 9.4281768885699 9.23392953866933
Li 3.7252963412610693 7.875785473923366 10.826415130541031
Li 9.90060623578635 12.196116243756343 5.321232125591562
Li 5.334325385150191 6.727722656890095 8.885205969122199
Li 9.677693132042364 9.252455788000237 3.2279384951207373
Li 12.457274254935019 5.761050006025407 7.398986961239312
Li 5.049458888932215 9.61961975999003 6.00345553780217
Li 5.2110810649982815 4.028746089904711 7.853977186828733
Li 10.088118550597144 3.9836743753916757 7.899981555362697
Li 7.828367879857803 3.9883369418476824 9.728062236434264
Li 2.646408045997427 7.862497001042182 5.104823431130885
Li 8.277046520153482 7.449560433969632 4.98769746061232
Li 11.237784952787074 7.2631694770106145 4.975653231523658
Li 7.486164150313167 10.369872268698412 4.67541731332276
Li 2.6975214084466828 5.94082128798725 8.227618822329246
Li 5.844594408540202 7.837832415640244 3.660965292568731
Li 9.553100855181558 4.7316426240988285 5.102952227598343
Li 4.902661802198505 6.671542467723292 6.206007570020377
Li 7.518287158551918 5.42674012808633 7.277029611026501
Li 8.603172875311017 6.10881640967033 2.592138309839699
Li 7.700059578836992 2.6779064018426926 6.369413214317814
Li 6.575574594776864 4.875720991150131 4.602908237880413
Li 8.293013589554166 2.928823814609548 3.1390742736875032
