41
Energy = -64.12078706 eV
Li 3.6212785669616503 6.8964608738027575 10.230735783987118
Li 1.7230682507539152 7.2329936694155474 7.366836356261278
Li 3.1869031145082554 9.616255878134156 5.259175960307874
Li 1.6941473845319506 4.49938219904003 9.170366621958848
Li 1.2616448331879635 7.254230454378112 4.094765472184439
Li 6.450359167107127 6.372287479501573 11.868745533802219
Li 4.173793466852686 8.157458427511457 2.6504017373192363
Li 6.177367991639395 9.037520649951034 10.088211292133233
Li 4.573433365698482 8.250345094561526 7.657106244588892
Li 3.8644193166376923 5.2847968831209835 7.8119628639254985
Li 1.7896652395803647 4.56841917709717 5.840545527958309
Li 5.877906910211051 8.696677030664775 4.984711336995772
Li 3.6295092559526427 6.734738405610143 5.237712983054461
Li 3.616580072051886 2.4416206223893284 7.619346824958097
Li 4.780419816876205 4.069440020416548 10.29074876935817
Li 3.3354697966236664 5.101087499749355 2.8261282734109088
Li 5.862208731109422 10.872883165302794 6.755281691034337
Li 6.280169764522594 6.322547972787788 9.198822948495797
Li 5.968185370705768 6.042896624920429 3.5974774728169043
Li 6.123025409909097 6.191038109337483 6.3712108836527435
Li 4.679608531183271 3.8685127721787733 5.237253117249785
Li 6.365718467621138 3.6543996975444544 7.71514180314517
Li 5.651247912786627 10.986233318569596 3.53035126937085
Li 8.451566873460433 9.986224533015529 4.979407488372738
Li 8.195222600237399 4.277147243358422 10.050900181802016
Li 8.359856060239991 7.075514875718453 4.974644752185466
Li 7.568941064528697 8.51011611893901 7.512400114228791
Li 7.700295629142623 4.154613846370746 5.0796911710098955
Li 5.860810037441663 5.964009722670479 0.9055178093339443
Li 8.610807322102511 5.630456492716512 7.522096899727841
Li 7.391529543112535 8.361536465519386 2.482586096257317
Li 8.97984858007703 7.249103854050414 9.898320016731352
Li 6.305840380097735 3.290871585236613 2.713188169326171
Li 6.624684777699093 1.5925272674082225 5.479706799101309
Li 9.256912259441112 2.8182621469387668 7.0607023386943535
Li 10.514851156460459 7.885871559803038 3.5699454141937093
Li 8.68311665322982 5.382274187582376 2.5943116157977464
Li 11.019752499431842 5.105379482668522 8.568993963455501
Li 10.445462649640941 7.80269422100626 6.854849078042353
Li 10.484280074682637 5.076995049882515 5.2474583097963405
Li 9.284141830528421 2.3493017191896124 3.7955955178702374
