40
Energy = -60.4207638 eV
Li 6.855364215092427 12.551175125033593 5.504190443799241
Li 3.90661678682515 11.423392036221665 5.6456824639133885
Li 5.537272043812849 11.824742630358905 8.29055419457475
Li 5.776564207290451 10.489327240238822 3.3169307609675314
Li 1.2747437339290666 9.664870458707318 5.973028629428655
Li 3.8051683925452315 8.575682353231034 4.86308889297611
Li 8.78001107418924 10.06837627737611 4.60075182790789
Li 3.6600104239302698 9.348590070518991 7.719306813819047
Li 8.625501571365282 10.862099941677416 7.693794385082288
Li 6.287743435340197 9.984042184153626 6.162256401829035
Li 6.3841863152996385 9.135089666450131 8.818388772558365
Li 2.4889547234038663 6.853552734601531 6.808309860789309
Li 6.604893293478454 7.951381703365509 4.284644637491795
Li 5.477111767532746 7.108411825228396 6.870489015804768
Li 7.161559300286187 6.324563165288869 9.117332496668997
Li 9.212977798348033 7.221947309766159 4.03081670222142
Li 8.921672107367055 8.646635023425976 9.612149607593091
Li 4.8749234992355985 6.004251798347801 3.4208609865306663
Li 4.531266179170228 7.614364275916946 10.198531273868737
Li 8.529621833919283 7.938242037921026 6.785209976590373
Li 7.323643961091539 5.3698485049631834 5.338831565816404
Li 7.83100993045758 5.669323900034398 2.232784561385655
Li 11.201104756883787 7.605933498133002 8.615270297942521
Li 7.348282981915131 7.982747616738035 11.778859052554674
Li 4.434564124015627 4.550861289990992 5.864218652061723
Li 11.127925635297556 6.392869176923473 2.20372327124966
Li 11.391315033196479 6.80029490098403 5.529943023985671
Li 10.665297419856085 8.729228978419583 11.770910349897214
Li 6.627614056059424 3.8848617954599165 7.702307063474729
Li 4.267204174447589 5.147092402601698 8.749362299236866
Li 6.618188869174681 3.2429969751138876 3.86021741131357
Li 9.462821623857552 5.328413043218497 7.4433667192751125
Li 9.834354513846463 4.489895973476922 4.139943195129445
Li 9.509828685043278 6.143453894283683 10.781997851716698
Li 6.2763806428521836 5.056279767869135 11.30850795774622
Li 5.318349672975399 1.810494335245872 6.494130610043829
Li 8.526383456913095 2.6700005792691544 6.164536594790906
Li 8.3952319785489 3.534607015459794 9.736652629623766
Li 5.222951594352335 2.5104780039277226 9.63292143930284
Li 7.471298408271912 0.9491743781205163 8.42740334966728
