40
Energy = -61.00369423 eV
Li 4.057242658534914 4.124676723329297 8.934838904375384
Li 5.969951530674892 6.5787777647056185 10.402413556597374
Li 7.157654582659522 3.912856904336552 9.651448152329806
Li 2.720820512265892 1.9652092021557253 7.0608845919263326
Li 3.9356874085301374 7.131480379568891 8.309279448923702
Li 8.695571287157472 5.943979986108016 11.47708971248741
Li 5.845184537437136 2.320080251880236 7.148681542669167
Li 4.367934578533103 1.4716612623797876 4.49638656293399
Li 1.8109371276931865 5.013491477468868 6.894112547845221
Li 5.964500735708954 5.281180730654265 7.252365636628993
Li 1.6403120349698894 2.8875694423877154 4.435779491957597
Li 6.514967196646886 9.17205626783097 8.767851066650717
Li 8.632482382440415 3.7713002322191786 6.959400260862245
Li 1.2337385775131267 8.038426239576042 6.826222892531216
Li 8.39028122412885 8.811666182708722 10.844073577183075
Li 10.254674102226055 4.667214561086582 9.308085859067416
Li 10.698341747235542 7.822838049083342 9.275448833708968
Li 3.974554084944616 4.000694718051738 5.593284382477323
Li 8.230094024501122 6.539208448210753 8.621607673074381
Li 6.895142484095333 3.4479230490455923 4.489348652767125
Li 3.627366441349246 7.214614572546423 5.61150677229153
Li 8.32591017622417 6.044982183823645 5.404204832914244
Li 3.896021067392778 9.822993019494236 6.945243379150104
Li 2.020851981185441 5.896899146813053 3.935989308500142
Li 4.384901315690709 4.11593128390318 2.733082960312858
Li 10.83100701598948 6.071220376521797 6.727482412081168
Li 2.195724035278944 9.054869108275977 4.130133843106937
Li 6.325907548437159 7.950295420644206 6.434268418257744
Li 9.612083236243597 10.617252992869892 8.341245163902629
Li 10.023562002826793 4.276833048983979 4.1818118598016945
Li 9.162873308999423 8.517615627083797 6.689053707755918
Li 7.121883934901648 10.724581342444628 6.265743144854921
Li 11.88317891557033 9.134059022118885 6.720610877059722
Li 4.528572952534381 7.322402711632267 2.475594109087229
Li 5.101404433656834 9.524787871500857 4.3630528547188945
Li 7.685560022302983 5.682525476130935 2.452615324780516
Li 5.701574339067533 6.00152153196279 4.418675812328328
Li 10.50481462113514 7.485616883724549 4.101497458296325
Li 9.874611353479379 10.52550598657663 4.971993846388907
Li 7.687250188705907 8.446637887824645 3.8551758294612024
