44
Energy = -68.39135785 eV
Li 8.660310067340683 2.9454717825969223 5.569527112827627
Li 7.855613221847063 3.3568730622609584 8.579111027669361
Li 11.309615896969776 4.718029243660724 4.978940281196773
Li 10.887399057400486 3.3371953489036743 7.742727658036942
Li 6.395314511172705 1.2261560697139129 6.750192949669319
Li 3.6405029755602856 2.276697211590666 5.610434112991948
Li 8.742483421406483 5.092102564512194 3.242376007831102
Li 4.806450445485166 2.6814704010514645 9.019026257033321
Li 11.745856365853944 6.553926795117341 7.46536602725437
Li 7.104229470802178 6.217599001167681 8.246786614793912
Li 6.142021237051177 3.1237488131691693 3.9899712163444616
Li 9.220780786003 5.2990229357543015 6.6595322859443025
Li 2.6921561856964873 4.668295254028025 7.262316817819568
Li 5.762539093000567 3.9643632544749408 6.778080002599615
Li 9.835744456670767 7.4954821664305715 4.927971351457407
Li 9.727008981196773 5.7027556274212445 9.573938833285023
Li 3.392634513176497 3.2253042532235185 2.478621790790944
Li 5.685643896707143 5.686360554022737 2.228271117335336
Li 1.2848326616500494 4.154510989634356 4.42909691020569
Li 7.505864186988179 8.111973635466297 2.9998630264952206
Li 6.900667443921055 5.15607070749108 10.919080113629727
Li 3.9283385883139497 4.965202696471981 4.563873725303838
Li 4.866012055534553 8.652712220364052 1.3843849813556381
Li 2.687727619325522 6.3054180236115025 2.406801705947788
Li 11.41488411926707 9.54647358425383 6.9083715964447245
Li 6.9111785864386714 5.862993680563593 5.063984898253737
Li 4.61123362846917 5.634232485904594 9.321910487394549
Li 9.265759889985919 8.026044381057748 7.711463339170427
Li 4.660165762190427 6.752122527504284 6.683884742520317
Li 8.855055282545583 10.409811941567051 5.294427179798459
Li 11.03348501869323 8.663896597485799 9.836865903762678
Li 5.9290563240080285 10.439179954352971 3.983536739037594
Li 2.0612828285235185 7.081832602420679 5.44252604380161
Li 8.00226916078979 8.066008404135333 10.420762740291652
Li 4.77747226097054 7.7551995535479925 4.000301075488941
Li 5.825436974802727 8.769757943933588 8.602561383010864
Li 2.774939971537537 7.797082958329205 8.528140610858532
Li 6.99846551030731 8.532731775877233 6.004426607063358
Li 8.879084822211587 10.504550869292112 8.52836741887176
Li 4.877126288642309 8.051316144915015 11.07474735449564
Li 3.9655588205542753 9.490059910619735 6.255718973838993
Li 6.589206202296747 10.764451487112579 10.522946695056934
Li 3.8453785617623923 10.581425377008523 9.24633858170723
Li 6.293310890983904 11.186774365468393 7.174484180985582
