42
Energy = -65.17655215 eV
Li 3.030980956433322 1.8426430652383519 6.367702546702404
Li 3.9374206248856516 2.8700303922985593 9.283594862714114
Li 5.70718539766177 0.8971141292816617 7.547722906074263
Li 5.507240362706163 4.717814911940785 11.53257730838767
Li 2.705372049512138 5.539664428542243 10.465109596864101
Li 5.638744443003512 1.733560165268924 4.469519312309486
Li 2.648788187540453 4.964424347498647 7.135482394975435
Li 7.06196545382042 3.364989669752188 9.129606249073598
Li 5.210699478001097 3.48730247172803 6.760187418565509
Li 3.7554605403167916 4.182819920756351 4.307197719532039
Li 7.684062111226624 6.301837810034838 9.879627066042726
Li 5.062985553316425 7.7776271316445325 10.656390090933677
Li 4.991013039992275 5.5250511574830075 8.904502021571483
Li 8.049898417601089 2.6802812240085787 6.280975822527889
Li 3.0680718331157126 7.687237599263761 8.346750899582727
Li 7.304389705659112 5.446466421010224 7.049843049062326
Li 8.363129533640539 2.6749717493886758 3.0902562098362227
Li 4.8792212947329 6.415732178215661 5.920221358145635
Li 5.668216770306689 3.8269710829575563 1.8481530005655804
Li 8.753596336472881 7.938744320971855 7.565087973994746
Li 5.333083451363743 6.76022425813102 3.111868258865462
Li 2.5509374802375495 7.030261679378687 4.323537004086647
Li 5.990416059748336 8.126678086753946 7.865286003542213
Li 6.691758465064115 4.45255072771817 4.3566717016284615
Li 3.5299087407233563 9.18051824933512 5.9919214478677
Li 9.831462335498628 4.927417580080349 8.106094651650066
Li 8.155042590774196 5.627900080626607 2.2537225175570605
Li 4.738489111170563 10.345644321880005 8.661438812484791
Li 6.181426889446103 9.139312769295111 5.124167688586838
Li 7.599048508839126 8.70835365854925 2.5286327106721505
Li 9.704022214145544 4.8698990469386265 4.992412718815859
Li 4.377294083590779 9.778480736956267 3.095948878308259
Li 7.786366732246028 9.359472487047862 9.856287168837214
Li 8.025795919457298 7.086497692116965 4.845548894175761
Li 10.562378368435562 7.507872337360947 9.680774681335041
Li 4.80829466178504 11.696178014194446 5.7227971334545265
Li 10.413716427771385 7.387787844955482 3.352862695183201
Li 7.113932484746126 11.412484669193 3.8919064447272835
Li 7.425602189154061 10.744142543579235 7.096256353068764
Li 11.151414057453607 7.308322396627468 6.4546481629371835
Li 10.442779941730011 10.091510501264422 8.001487531372213
Li 9.337810520370322 9.59985320953645 5.125265604651889
