49
Energy = -76.32017326 eV
Li 7.649259776571809 3.9389312989383654 11.212823621411129
Li 7.494509317796759 8.467786617262902 8.692221213453875
Li 10.540078899607892 8.199930481956342 8.182579842323834
Li 8.764222295085306 5.649085843243196 8.958600152807628
Li 6.004875910961042 5.8870580797034275 9.421322269943744
Li 9.618721235807078 2.6619102736001996 9.006209291437179
Li 7.079081472139443 1.0143560160822356 10.415022805263643
Li 10.616024709196607 5.33149083847713 6.8602325123310735
Li 6.36956706982929 11.423230576798778 8.140666259456124
Li 4.578369989462049 8.970513314576854 8.700281497157093
Li 4.591054293228979 3.336218114522106 10.287610588201197
Li 8.922241471837092 10.390549699551515 6.669170098282076
Li 10.778000692365485 8.299674728793885 5.126571604765279
Li 7.016538567428065 3.033140073622224 8.618382578905171
Li 5.4884109630903755 6.799735146098569 6.719439880471948
Li 8.54998885363846 7.502006474482061 6.28297821929899
Li 7.617256304640902 4.8308185099552965 6.4401475037965925
Li 7.770418076084213 0.47964141633701524 7.477484808530231
Li 3.1549566145718697 6.160145652667574 8.80131019951702
Li 3.952862160597865 11.200411863712942 6.2576864504939005
Li 6.660503019681021 12.184233631517282 5.160885769789067
Li 4.670988511831496 1.1708825056492707 8.131504739998764
Li 6.075411341331592 9.500732269408545 6.083757078941573
Li 2.8868355663461287 8.342711549501457 6.4414746064014
Li 7.958852178254128 9.615249761027776 3.970073556816997
Li 9.642708869002046 5.445857188577072 4.075191999613574
Li 7.129021661395009 6.7861392161101906 3.816139226295242
Li 5.021703018785008 10.233469159838391 3.3846682006812023
Li 9.185239934714561 2.607914851573319 5.9266056763104755
Li 6.1708999896613115 2.237301190699672 5.778037390563992
Li 2.221340450281727 9.889772678048393 3.974415279720473
Li 4.211881345711883 7.5697967434698255 4.03593899201878
Li 0.4954042665925098 6.517541947086082 7.2407375648398515
Li 5.117112292700554 4.728711806314984 4.626219674533509
Li 9.369134253930195 7.776764429800004 2.250411830197294
Li 2.0335158016201453 3.4384361645591603 8.086916960593527
Li 7.501965153029683 3.58282441589563 3.5467141219113887
Li 2.7275346713578825 5.483248936380372 5.989243872161807
Li 1.2255283650544457 7.050102446394427 4.175724394565481
Li 7.574553975142667 0.5863715522296302 4.078443732870659
Li 4.705458175995321 4.042699635125485 7.4841221693019495
Li 6.342127471997544 8.250781736239427 1.4997514253922688
Li 5.122781474638696 5.51975791143493 1.843584895101946
Li 3.1419100675167737 8.12096202247702 1.6047093832292216
Li 8.01317772097152 5.340493956101723 1.2626727433301526
Li 0.47404273466155317 4.071907352956127 5.325770842468713
Li 5.041890214578549 2.4199867525754306 2.7739158000290787
Li 2.662064383674613 4.640075104113617 3.161029553811215
Li 3.238699478126084 2.512215288937062 5.408276829026992
