47
Energy = -73.039262 eV
Li 11.074219883716292 7.190080635064778 6.918003896597968
Li 8.856967939252803 8.7418304421653 5.5482091979252255
Li 12.399349747055336 4.574184647149527 5.790326924031951
Li 10.277499997163769 6.221511394202873 4.0778060766094475
Li 7.744835905524642 7.438447051336906 2.931408534184871
Li 9.027782096069284 9.756100558082299 8.392865573975076
Li 8.60726130693999 6.904461190832103 8.176049405685578
Li 5.07544526026705 8.291837368752034 1.6667416253950416
Li 10.65654220902353 4.5446164215650535 8.617799329992712
Li 6.9709872570709015 11.229241611963749 6.1013060258678795
Li 6.30766718643908 5.191892941647212 1.2234990578297114
Li 10.345518826632775 3.0689873717270797 3.7437343316995837
Li 5.759893783828467 8.730521804593554 4.759388229274987
Li 7.393521907687807 6.349040856010486 5.748684060426762
Li 6.964683666711523 8.213898941704308 10.404586142141792
Li 9.670085742630238 4.542155493850133 6.121809186611503
Li 10.859491655588766 2.07563985112518 6.679009194728733
Li 8.19455940466449 5.228693719727187 10.50574923835735
Li 6.451654238259685 8.85023814137367 7.4974726419946895
Li 7.658940367502042 4.50970971095419 3.7975655351344604
Li 6.161489806391215 11.06884324062493 9.18828093919436
Li 5.133075651259638 6.221946999483715 3.5898138530088484
Li 3.1087465986189864 5.693149047276363 1.7365011774786028
Li 7.416204492508414 2.0863370380064823 2.5427710161944583
Li 5.496663187385518 3.881983987464601 5.704365764626748
Li 4.099595938676258 8.660221144901662 9.016017183066404
Li 8.071244249029307 2.1482106177882554 5.623135831374637
Li 4.230481701624209 10.806423122217936 3.890154795434179
Li 8.65552485099836 2.118748241733032 8.931455875348185
Li 7.4267056114170495 4.178172347619269 7.806052738259785
Li 5.8803927354332926 6.157063152733627 8.906900991942429
Li 3.0749737526443677 8.660516237893113 6.110984999621384
Li 4.7791272872172605 6.52349686921016 6.517731876727718
Li 2.7385449112806652 8.213851653599944 3.4729987964704017
Li 4.634243182937467 3.437876659263873 3.0945617305540933
Li 4.064073547902214 11.01950606134788 6.962801521901914
Li 5.501560869809277 1.0880169949462142 4.70828135645617
Li 2.7177075618607907 5.4865504626431045 4.954573175462431
Li 5.886725709237913 3.454930159208806 10.26283654641612
Li 3.0018813892310243 2.5722283989531824 5.756174070137788
Li 5.691660101106263 1.7289905952051345 7.699887244769636
Li 4.043944918724322 6.041691063159773 10.847124235526628
Li 1.4428288265693774 10.62308364079955 5.087606393890408
Li 3.907215821567585 4.175376227773425 8.185578535246258
Li 0.5106694303718886 7.715704283846087 5.588845366859541
Li 2.2278978102396834 6.61755918422441 8.007320205775686
Li 1.3473582705426355 9.671808109398677 8.04983397740732
