49
Energy = -76.4987346 eV
Li 8.053744767531555 11.651741420218098 7.846465925540989
Li 8.9069574601239 10.546310497064605 4.8325522832802985
Li 11.070833506237927 10.888414254921827 7.281931427771677
Li 9.766339022598466 9.669105322010381 9.908636697142432
Li 4.529550170170302 11.278493230103665 7.8656748771006395
Li 6.443245508149415 9.702403519322553 6.340372441618602
Li 3.6192115809980177 9.577699260804312 5.181246932189412
Li 6.366188513232412 9.474018832453478 3.417167840214749
Li 6.693986278028589 9.4520609948573 9.310469472369345
Li 10.464675234167187 6.637078737034627 10.653056325705537
Li 10.997985707473292 8.440209127686384 5.150561512954626
Li 9.037350532073852 8.018691248227604 2.340102670332358
Li 9.079736388931652 8.98155655731043 7.332276630642366
Li 1.6132590104662379 9.22198787560511 7.4501980977079745
Li 11.838355225287634 8.06291368435756 8.202327429042047
Li 5.346169309425606 7.121015193900219 4.7820980783843865
Li 4.405050253608931 8.385906719725925 7.864413737114595
Li 8.173796336807124 7.653138336479421 4.840534188772021
Li 8.147273780747948 6.952661582267468 9.439289807041057
Li 3.1955359459505774 7.292613103360589 3.0941796216247703
Li 5.905186477186248 7.120225291337104 1.7705104038568014
Li 0.7099809972810233 8.250982343855807 4.57678842681201
Li 7.8288563822305655 8.141708986684437 11.943770631445856
Li 6.868990596743534 6.888001215929869 7.121318514809995
Li 9.977741105036605 6.204090997391256 7.137279295509478
Li 0.05167183259837107 6.374248589590866 6.882810692917613
Li 7.61832312930324 5.045512052910128 11.471829545310326
Li 2.5929324442864474 6.925851012182229 6.07071901504145
Li 2.2822916469029555 6.56556272029563 9.138324069102236
Li 7.637440096101066 4.459849729633738 5.980832524851992
Li 12.583864282938055 5.96310245092808 5.820051481566571
Li 5.3649229165123735 6.769821442982578 10.282407488903798
Li 12.248071233424747 5.02418102448714 8.651606628713363
Li 10.04739009963638 5.63658327906227 4.192638559299432
Li 1.4625784865752685 5.052828743529073 4.300173480899824
Li 4.364446740220416 4.601120686413301 5.164919538691379
Li 7.170197414293061 5.220797771861347 3.337219400870246
Li 9.444647440604331 4.123961112205881 9.056611937575354
Li 4.191387368773813 4.419829357188907 2.47942807044674
Li 4.508454169413611 5.54697458259488 7.771237255294216
Li 10.68343200091335 3.5363602105071568 6.346911660632731
Li 2.1298137143267866 4.0674381347210975 7.197679224279372
Li 8.979328709318903 2.780042591818228 3.9523317606960395
Li 4.000671790425178 3.979439743982719 10.020156795691475
Li 2.8881539653423514 2.292933041467572 4.635932180310972
Li 6.708043043512224 4.27698013701249 8.77418191794556
Li 6.016758784454218 2.4156201839124805 4.351492479863786
Li 8.010654473203685 1.9352611604447827 6.931993937593927
Li 4.88098945910412 2.5995269775271437 7.164120785438987
