45
Energy = -70.17823757 eV
Li 7.715624330001023 7.658913118644752 1.9369465542048039
Li 8.593440182641466 10.606825736175264 2.2723960244538755
Li 5.333479011980227 9.86265727873342 2.4516260141177706
Li 8.09485048611994 5.996726210501703 4.460067794856486
Li 10.009442648091742 8.11515390010564 3.692956350610656
Li 5.5142608585997115 7.050490743117926 3.914245497119839
Li 6.615171401536766 4.759709264249493 2.2693779799792564
Li 8.374214164727297 2.9908551054622388 4.301208085608987
Li 9.7888995816825 5.260638220420535 2.4237855136393955
Li 3.348488753218237 5.014019985479475 3.4485619403937804
Li 10.398555798320995 4.867663800791207 5.78763496676742
Li 7.19413608254092 9.37485730688007 4.350423132368471
Li 9.646136343978903 10.678691960884134 5.375767784699038
Li 6.983937289019288 12.05514099647718 4.338825314785023
Li 4.407128884891257 10.591555002431594 5.424195224635891
Li 8.056796957150057 3.8369626560087715 7.043212959543132
Li 2.893385025629651 8.032990368862446 4.384951943229855
Li 8.59674263886852 8.135364843854322 6.280766997446999
Li 5.780662930952122 4.140088871937111 5.021974240363819
Li 6.675468184396467 6.116312404355011 6.876075518985313
Li 9.550161784927877 1.630593620954113 6.840692471221458
Li 9.978775844127917 3.720123024325588 9.123065534433776
Li 11.382058293809667 7.986271759441849 6.398259032305064
Li 3.8102689764789535 5.831502829660236 6.100769917982419
Li 5.356144691684236 8.347974630121758 6.480039047758678
Li 7.054039723172578 10.625379014617113 7.269785085855222
Li 9.482540402899083 6.394568985070831 8.164291302096263
Li 7.20025264824761 8.175553810368976 8.914407670511059
Li 2.4714820376169726 7.944394180069061 7.454014958379467
Li 7.047438915427773 2.2129981922944295 9.315052037343879
Li 6.197038533887409 1.5526983553337683 6.4852433771254265
Li 1.1561232114312017 5.6116330948571695 5.643114098539096
Li 9.69186925154742 9.563264442742076 8.557196146142243
Li 5.1930253284884875 3.8455085989102007 7.920211084757934
Li 7.294289969017639 5.256377791684687 9.656518296108581
Li 4.69807792150779 6.576866023523108 8.815851247764476
Li 4.6288418147821275 9.526787645824891 9.086701712558087
Li 7.354644532880264 10.291861033326198 10.609709848175227
Li 3.156558155461831 2.9753220544433963 6.063867189992886
Li 2.7128511393899974 7.122706102502262 10.588185528328259
Li 3.927582004063228 1.6603497289283013 8.929633919845923
Li 9.012468127806716 7.502600554428135 10.94399652167917
Li 2.4354359239752377 4.700393756054327 8.494799030675983
Li 4.581120784820242 4.290217969489505 10.710115612646351
Li 5.798465501789225 7.500607517279659 11.303554118442959
