40
Energy = -59.81431018 eV
Li 9.610142448658058 11.664965155083818 5.5939657957181215
Li 6.892528587011942 12.426876165570851 5.958368184018609
Li 7.520752157792428 10.991092556433442 3.375258366642853
Li 9.690907303213015 9.279399911667745 7.25142090614931
Li 9.272566464537448 8.877161428957825 4.299307718993012
Li 4.643194832558171 11.417301116556851 4.501806414724427
Li 7.983844846736369 11.348229020496994 8.518589402275131
Li 6.951641579819783 9.473997160901337 6.1867206645473125
Li 8.0017642973674 7.731944641795257 1.8693443585108247
Li 4.887071540258965 11.201552939046449 7.809598702791104
Li 11.343387995519858 7.1519126682066085 8.647864431152888
Li 10.32968300410761 6.178300502566996 3.2811277599194564
Li 9.888699968882838 6.5712895912318166 6.099487405048168
Li 5.7224704831078474 8.690163739643172 3.518936106191685
Li 9.440693189774112 9.05113017185813 10.10825970686283
Li 4.045491175936555 9.021432055175755 5.996526750929827
Li 6.314000071284611 8.995737308862273 9.239818584115707
Li 8.087523772912428 4.500655963259581 2.3040772378329875
Li 7.496953352176519 6.4175736705675455 4.442455633400631
Li 8.27969589371049 7.008087906423737 8.37403064147706
Li 5.0845405632887335 6.871870139556017 7.629387656661273
Li 7.349031094079749 7.948541977230607 11.802497472585202
Li 5.47368079136615 5.878711372895447 2.2244906091127543
Li 4.398391277506042 7.795341166051991 11.179030987580115
Li 3.166136444402204 8.74994033430864 8.718786669186152
Li 9.079132226583493 3.8795664616129173 5.099227590441974
Li 4.590768072122759 6.320003326718362 4.913794946879832
Li 9.894413585948966 4.440424833455426 8.066708901540135
Li 9.43025354734025 5.9822972359690825 10.720702565917374
Li 2.1510759114840026 6.7940738344058795 6.626352191428607
Li 6.919080739671804 4.582351328498479 7.13924616865945
Li 6.2637203075993995 5.8152571956286385 10.10694962502749
Li 3.2052710511670486 5.6520707185311725 9.30129672489551
Li 6.0894404666134525 3.6662986800829565 4.486206273229311
Li 3.82579662206999 4.199435797163075 6.664370066240764
Li 8.15450761341193 1.9646786998170536 7.3174140826294085
Li 7.941421260642166 3.30549782414706 9.972065712988522
Li 5.121155303291071 3.1818771644071253 9.098332575442965
Li 5.384864763795888 1.5841082817565384 6.680871211468573
Li 6.521070747115621 0.6277246564883534 9.394413310480246
