40
Energy = -61.75016415 eV
Li 10.443071500630108 6.9822004502096995 3.6419511485032325
Li 8.29298803870688 5.906343161594677 1.6573482741343248
Li 8.941865498113636 9.000132587768269 1.7849939686188987
Li 8.23975111613538 4.772123272171282 4.627606266583227
Li 11.03399393036901 4.766737522344355 5.6684642342207905
Li 9.559935119453314 9.608784328734401 4.877954371240982
Li 5.702713104505879 3.5634635696313888 5.895074498239191
Li 5.954369370137828 8.085101760568318 1.5696276784981913
Li 6.000596094503711 2.725405291051072 8.748356083248005
Li 9.100513008001645 6.932225747228968 6.181493638877236
Li 7.579722495699098 7.559232308300345 3.7045836237746133
Li 11.411277493508582 7.7175561882199775 7.558780097202849
Li 5.528472711561518 5.517795479596595 3.316780499250409
Li 10.375326402548714 5.065773502239042 8.441909619319786
Li 6.762728980922229 10.384622926998052 3.7697580357747476
Li 8.853594278001438 2.6786001387023157 6.914142449316405
Li 7.610352266027238 4.936838034080226 7.854670748516006
Li 3.26206287437348 5.549305759718194 5.6476131118917445
Li 2.9820947786160064 3.0049663791694265 7.579263766458431
Li 8.66637407541151 7.598759478904009 8.798119899990835
Li 6.067399329517324 6.4014076093853145 6.010506113766864
Li 4.638046378435485 8.25415212520867 4.450374710580479
Li 7.156293272013233 8.999531803670129 6.206376610200744
Li 9.531367831821784 10.14149531561021 7.851964969111235
Li 1.8753577762601616 5.705806659493527 8.627205771835413
Li 8.7447661355416 3.2284495238954456 10.006373530184602
Li 4.5346942624553925 5.164566676936684 8.202193225717783
Li 6.88615061242389 10.166498230818341 8.61785793552434
Li 3.6854287694340235 3.948204836833225 10.520696993790695
Li 9.51373584447269 6.248159999773808 10.983304219927296
Li 7.607509751037377 11.995317968055877 6.565336405223329
Li 10.165617315371561 9.241724754610447 10.519437418514709
Li 3.538246380932397 8.027900227095996 7.398872991685677
Li 4.843657736161138 10.619168689903093 6.548717089058871
Li 8.156971836110408 11.877802921421337 10.188037006734035
Li 3.9905434641469877 7.059022248039847 10.465253272846434
Li 6.604092461791993 5.467381113633443 10.426626339671497
Li 5.942417635467409 7.622765339956059 8.557369599405297
Li 7.104270405903544 8.708032700215107 11.0462342761394
Li 4.380696759788017 10.08228937800134 9.723850923839032
