44
Energy = -67.99924942 eV
Li 12.493335078601843 5.44555203275263 8.859402566484482
Li 12.778761694975774 8.493943540609145 8.412552217375726
Li 12.668563819668716 6.496553014924376 6.068806876338916
Li 10.620833512418997 7.156939497998803 10.41414666369134
Li 10.375975319921585 4.374868151002113 6.914745418229054
Li 11.10627637110498 9.245473047689766 5.8610372708108
Li 10.238700922060822 3.8620581739855933 10.158041193408813
Li 9.955028205481625 9.917121215406219 8.726752642895024
Li 10.45263390356527 7.1460100871151395 7.639345971732059
Li 9.948667899282103 6.581324629409714 4.662484784683987
Li 8.387437494607427 5.818912360236174 11.905601635429425
Li 7.881998314865082 2.792691590695496 7.647675924248613
Li 8.067974207533641 3.7919397203098906 4.665084585178343
Li 9.027389174560128 11.527459507421543 6.138665474288042
Li 7.707942957594813 8.055689241438499 9.491990347547958
Li 7.190859859703251 3.3178995878524407 10.48410053527607
Li 8.68956653173092 9.241533718714294 3.8473394681067563
Li 7.873951690442396 6.053160455963718 6.367773268655557
Li 8.435614718715252 5.458818773707504 9.05272353933411
Li 5.754878374348451 5.888167779462744 10.3526873692709
Li 8.234180312447485 8.868304568301019 6.609828568113664
Li 7.431801838695593 6.363794703902768 3.0090301471946317
Li 5.56723180844619 7.429548215921672 7.618499636899555
Li 6.0187081611302204 8.087474408813376 4.799752487926311
Li 4.494757259362663 2.7191175516302666 9.11169619527191
Li 6.726183064458604 10.643032860890385 8.121832054618249
Li 6.326835673974867 10.859139468787538 4.931299732086825
Li 6.16315202794962 9.178224133383942 2.164006037639658
Li 5.838540684629706 4.595585412464426 7.812325475256538
Li 5.42889655272502 5.208455919584084 5.010968103839521
Li 5.625024276833153 3.682550499535795 2.6837558593710193
Li 4.717731861823565 8.854404304822973 9.880697561166752
Li 5.4026331165377615 2.453743427677331 5.6911067264176625
Li 4.1653753397754905 9.814479471551207 6.7988532261576236
Li 3.6075815362201715 9.35090496591974 3.8356066535130138
Li 4.37210643798165 6.684072271927347 2.6900800063090062
Li 3.210364927652621 7.050340258204401 5.723648495165069
Li 3.134314698782817 4.121655384773957 6.756470417055642
Li 3.2816958537910508 5.843848942666853 8.888020814694329
Li 2.8261198735050534 4.458185553867796 3.949574673618841
Li 2.0971459203866907 8.322308050506301 8.282335528355267
Li 1.2021209822638916 9.201677958251095 5.6530321311500575
Li 1.4196327436399425 7.165029449430483 3.5027140166604536
Li 0.7618993365620895 6.097839601990877 6.475484039456221
