49
Energy = -76.30332185 eV
Li 9.766939944560468 2.215881118318578 4.792697121876672
Li 7.098401000660438 3.8168639194376226 4.804634504776017
Li 7.948084529041677 2.280918869657582 7.3951589120136525
Li 11.339728601973869 2.621917303404414 7.361800940319646
Li 5.028888726897327 3.2259405150289964 6.801330961260485
Li 4.592593802261785 6.243288774019751 5.6767343908504015
Li 9.541691873101133 4.944381361006031 3.676376549743581
Li 11.983751788133032 5.265413105146441 5.402448838040209
Li 2.270999271371683 4.2275147313355825 6.631019596259526
Li 4.285393896680612 4.16704688752613 3.8102476015588116
Li 9.371212697208923 4.0265314321093095 9.61898063199283
Li 3.3965485603690455 2.9951279709532717 9.399134360150951
Li 9.482234069756146 4.426441778472032 6.562753223123674
Li 6.310615073688059 3.972904031281293 9.59590567906278
Li 7.49038507715886 6.782722853197815 4.667565728170505
Li 11.63638696905979 5.447714534190686 8.40037853301259
Li 6.945625179129785 5.3868619329614855 7.3271914789848696
Li 2.0756448598585657 6.18905633341715 4.309471481539547
Li 4.012843525095822 5.579396360358314 8.450368079204265
Li 6.934833561168099 5.428859206294316 2.246661938958134
Li 10.568378684415176 6.6989334784631245 11.160881993976357
Li 10.348127493215738 7.679028662691141 3.353187997711368
Li 1.512141465113039 5.3304194092354455 9.648434708417321
Li 4.292199139458729 5.497168195985138 11.317223877137708
Li 1.7357317777408374 7.219310817222932 7.2219743967256775
Li 4.689512113426573 7.2705380653713165 3.064959831103681
Li 4.2556208025902675 8.59537081189452 7.3360706483072295
Li 9.905563502090278 7.167256811536152 6.288647664009743
Li 7.562664102965775 5.982615227455075 11.520275682281435
Li 7.648483057017209 8.699982637787855 2.4689266668190935
Li 5.983843032343269 7.255093301684264 9.598910992481775
Li 11.636739156125556 9.360826942594437 5.585425793958248
Li 9.002198162028268 6.709773630840295 8.924463274210323
Li 7.098242793872042 8.236899243007672 7.211632446901686
Li 8.787867021379517 9.579855039905553 4.996672115544458
Li 5.567928584993395 8.395043350038247 12.070842457443948
Li 3.1366569794000245 8.0330123237354 9.99984804239199
Li 2.726238134772916 9.093342782320615 5.00609194654427
Li 2.038585637875733 10.188700424823654 8.035309401396328
Li 10.22151612755616 10.747895038805925 2.9812130378775445
Li 5.789906888568972 9.260838042610985 4.8718649647468615
Li 11.614596432496493 8.311312885180133 8.679627138120507
Li 8.201512801397081 8.952556577858086 10.482906742465756
Li 4.2570046427198776 11.330867920562879 6.387444174873177
Li 9.388175312691063 9.74142700219908 7.845174126952221
Li 5.4153890178572945 10.175841692617801 9.357957419951983
Li 7.301054075744928 11.651105386550212 3.9330061256977764
Li 7.0814160888100215 11.122699959887967 6.953175892025437
Li 9.900634762204254 11.962086155459177 5.81461387942058
