43
Energy = -66.57932569 eV
Li 4.854246046872957 3.4303185534950473 10.678325419500453
Li 2.7922911329342837 5.802952278440046 8.77365517022703
Li 5.422122751533635 6.800001604226735 9.836952008019555
Li 2.7355809011999135 2.908481088757512 8.1075077192515
Li 3.322002294698274 8.767971129522314 8.431162671344225
Li 0.34751081056518435 7.627479754344286 7.9088014845611925
Li 7.415791306198608 2.369974866971622 8.81988765633798
Li 5.380621492582211 4.198812370838718 8.231962249912206
Li 7.70924121264516 4.992377915659227 10.054032516525114
Li 1.4430190818439272 9.974339522362117 6.134514321207061
Li 6.374653907524496 9.561706323338544 8.196823606096077
Li 5.30353571596473 6.91516832408757 7.079086803463484
Li 7.686969421777814 4.954054439194197 6.9945372789905145
Li 5.114312389462782 1.5486998414838167 6.959589380667635
Li 3.6038589956909863 4.870352335535087 6.157249795184911
Li 12.424623206573818 7.480700744265981 4.826431836023532
Li 4.53031912960811 9.434015044296824 5.720794520595098
Li 0.8120842864179288 4.861136595977829 6.401422116460434
Li 8.326369804586147 7.390349118630552 8.28646286115584
Li 7.832524848804477 2.048425880013629 5.854196542806731
Li 2.420641278558337 7.377669803466572 6.116193217838989
Li 9.433725117638495 9.72517316381721 6.539247568865372
Li 7.218395496015383 8.262045802874301 5.6629650488199665
Li 11.468316802213808 7.78427037321323 7.942713724867826
Li 10.26169915502926 4.875037712204189 8.105525148721433
Li 5.833423736862511 3.6998610306754696 5.136892719041199
Li 3.022936417269594 2.5781701826845844 4.829521421478923
Li 4.867842551785618 6.630035023634403 4.162024290601829
Li 9.923959216496042 6.886558530539208 5.885843574921676
Li 2.242065748244104 5.514542875935716 3.6540350058808944
Li 7.691435069267383 5.845034834090486 4.370157777155961
Li 2.6925867280453053 8.574216658049924 3.5345785633719213
Li 5.678043564495059 1.2304146650770846 3.7815480111141913
Li 11.850257144907657 8.48368946608983 4.854285396151775
Li 5.889189540444235 8.944090180122297 2.9890238010038606
Li 8.961936817567464 8.47496266567991 3.493238799163692
Li 4.884053371391589 4.113141861585279 2.551141039831013
Li 12.424623206573818 5.654999921131931 5.790591483300274
Li 7.9037641904330975 3.441053564469036 2.9247707997633645
Li 9.893178192582782 4.041387920477803 5.26054347780829
Li 4.059231324782832 6.862729512078315 1.3973049002431435
Li 7.159749365682746 6.324709492213614 1.7700984645325362
Li 10.38443141995185 5.917467544657046 3.112227169193021
