45
Energy = -69.96053173 eV
Li 3.885046234411268 2.145603638101206 7.285830526190926
Li 5.714064584978365 1.908563648490424 4.8059851718132425
Li 5.439348020156272 4.105110560878941 9.636163095940212
Li 7.062929622174077 1.951904872814787 7.874201375527611
Li 3.4196737501265067 4.304055687417869 4.7863825838569625
Li 6.27735413364715 4.818373564277442 3.6718374580920567
Li 7.402368896557284 6.248223125751245 5.821469002943865
Li 5.757964383209143 9.321372694673215 1.3335362766289687
Li 3.1631894107518157 5.093351794208251 7.703442365707366
Li 4.182047408243186 6.595196865526394 2.5077928787309776
Li 4.548098235795932 6.9382697080291225 5.583244118171967
Li 1.8834009018466242 7.259088018128565 5.336155390722426
Li 8.355620521485896 3.6440571414327714 10.795906588978443
Li 7.215477856632054 6.7115415583389995 1.2360415645192602
Li 9.33185234291996 8.327969200931976 5.347561889799425
Li 8.413992594835259 3.4457888290549046 5.456515802285849
Li 8.058505263527994 4.6193519875291225 8.125973342913445
Li 3.1609873052265263 7.928769380146806 8.24034848397682
Li 5.65668259945361 4.058343186606658 6.505288764923056
Li 3.7945553028890244 9.154555151666862 3.74566454916051
Li 6.5584100347241465 7.911453535862987 3.6115245792806845
Li 5.986334624067958 11.607030451860863 7.554024493813105
Li 10.17073391935282 2.835521315674251 8.127146047782677
Li 11.316553737806522 10.33280577927624 4.800650333308457
Li 8.505329940617806 7.587634358518868 8.1255469068559
Li 5.750570036396982 6.443888484393965 8.106309039063389
Li 9.117262239468154 6.029065457718002 3.5517294505525108
Li 6.241677064135354 10.778101627119035 4.180209521304317
Li 6.897809406725789 8.643929543763079 11.863018530222233
Li 8.651237719323252 10.949475710051082 5.921152245991231
Li 3.7884193007615314 10.406629864888396 9.954834894571162
Li 4.473109436312481 7.055153161022366 10.712912125537681
Li 10.375527694619448 5.703078783823507 9.564510113853274
Li 11.77600200675836 7.401247982841891 4.382500494644067
Li 3.9177226157348266 9.884678371428535 6.542911393087253
Li 8.8694182392254 9.2655140459123 2.7492020170786198
Li 6.297858605005492 5.404824544922158 12.654738518463734
Li 5.943966920701696 8.992831767608287 9.0593643697428
Li 6.6192210833655 9.000704719129144 6.321610585125943
Li 11.093335495394472 8.678791508783299 7.543014907048517
Li 8.511471683560199 10.268026776629364 8.758403110118726
Li 10.279771584816881 5.7032579742001515 6.512020851590091
Li 9.772310187149552 8.385781593778061 10.627937054207955
Li 9.17263404561476 6.159174918489612 12.639457973229785
Li 7.489039896547097 6.388604788855204 10.432726809967715
