46
Energy = -70.81777049 eV
Li 10.710174423564386 3.3021251613320093 5.6745924935580465
Li 8.99301871558949 3.1947132987428257 8.352898881255513
Li 8.540286261713256 2.6825927294950147 3.302395006998624
Li 7.803064028073162 1.5378916467694521 6.135749935806836
Li 12.377057660501178 6.251335415157289 5.238895373373106
Li 10.942854663086043 5.472267190540441 7.865472691509096
Li 6.645310883800165 1.436476047883193 9.214873740559236
Li 9.331895887757645 5.095202288537648 10.66496570554503
Li 11.37222039401125 8.62881403851354 6.949238958270455
Li 8.207295321829479 4.308295079072565 5.484728693518309
Li 10.325605133735923 5.174865707723814 3.357887374357975
Li 6.638223935128276 4.340723359276626 10.31470242687086
Li 5.662671961527869 3.39333786427745 4.526012605234982
Li 4.6754904834294395 1.280859010926445 6.786146481266071
Li 10.295411403648597 7.598562639378596 9.756949692525458
Li 7.51142815039964 6.0774105962303215 3.2799603508340023
Li 7.949669395963611 5.823638374420587 7.849807783064468
Li 9.640380068991764 6.718086561275339 5.695921362251889
Li 3.982918324199746 3.1978973247632148 9.406440624084448
Li 8.66719344469573 8.629032693359386 7.718290000668648
Li 7.2853525942629735 7.3429912458661875 9.955398168659496
Li 6.103346727057057 3.5051255765604212 7.479987286469603
Li 10.232574230533226 8.318089379650225 3.666564656573337
Li 7.333563624693703 8.442272839177921 5.193344458433758
Li 5.767582555699577 6.099444853198265 5.778221667792947
Li 8.708953779640451 9.981118781160143 10.33200915560342
Li 3.450234228827806 4.065376346155011 6.50135909531824
Li 5.750422912225821 8.517703137665244 7.7095283924470435
Li 4.9036752206620395 5.918408226640574 8.5937030561955
Li 7.945352939875822 7.654156744130858 12.46800084340719
Li 9.21325604814979 10.522362236806162 5.525981270215151
Li 5.104164899687335 7.859640482602114 3.3596195772127806
Li 3.4896280992904707 5.533195349608847 3.807894235307129
Li 7.552288028094711 9.70214221509357 2.760178475717374
Li 4.954792885140556 6.639379565384347 11.427970757089271
Li 7.1220849907331365 11.00136651957573 7.888724850053943
Li 4.235636666405886 9.39556744960615 5.507577097650141
Li 3.0569999527850102 7.017151516031588 6.297758572221828
Li 5.7162057302164415 9.565978559684526 10.522832034862741
Li 3.27023860170428 8.292250317908316 9.111998437340525
Li 6.202661764519075 11.291708642622039 5.0758933904250485
Li 2.140016411094273 8.710130537430443 3.8191716349478604
Li 4.491359778566148 10.616333003773784 2.7336169826814944
Li 4.1066526420793075 11.047830730241442 7.889845186255987
Li 1.6426133249979025 9.642676399758859 6.7819829559992035
Li 2.9107602784048896 11.755925669377921 5.035189443468947
