43
Energy = -63.85988776 eV
Li 10.40132895308626 7.784869922782905 5.381560247196976
Li 10.174013838462798 10.125362874094833 7.806921542419123
Li 10.754880484272014 5.539463620197616 3.74200480188206
Li 11.569196368941077 5.032785287035829 6.362405165201393
Li 8.56644677224979 9.917916636880825 5.118923420645813
Li 11.700673297216435 7.534301608280412 7.685686005503264
Li 8.502193152763747 7.2864605294989815 3.3347769930539446
Li 10.62417890885997 8.106001920063946 9.860084860929394
Li 7.019403233834652 10.630788596937752 7.593543304041536
Li 8.557403659789708 8.252720996923342 7.706400382936814
Li 8.57717426026434 4.385021691515564 2.7258475292110207
Li 9.915253377217656 3.023714489362121 4.918848675586554
Li 8.404983838375461 5.22996560759711 5.358492430338493
Li 8.327448281624445 9.598398197928942 10.129321820267597
Li 5.835542264867261 10.519856780271597 4.974911588195175
Li 10.238915988690957 3.086424682144961 7.771857226785345
Li 6.827655274961917 7.7369132409138555 5.606974421996773
Li 11.094159157051333 5.209544334231548 9.5553853550718
Li 9.32333759781733 5.7346648913918745 7.988454552930801
Li 5.5092015120017965 8.415274571656367 3.2350396449366134
Li 6.019935485675064 5.570745154220614 3.5322544812672274
Li 8.551848674824761 6.570942818943478 10.687800884524506
Li 4.309172712226112 11.487135360399275 6.844297001506379
Li 6.6274487481474145 5.612761792743306 7.728290282494544
Li 7.0775255643765895 2.8704786526635244 4.350940424687947
Li 3.4094131245909374 6.937854964202654 2.7872661418361435
Li 4.6990443538687785 8.760061970008614 7.372455013279503
Li 6.18777804883012 8.021475844027497 9.565123585984589
Li 8.261293317403187 3.7129593473732716 9.776887900784565
Li 4.159365964725192 6.499724861216885 5.487643497806163
Li 3.166952424180908 9.180367306134976 4.983356861262611
Li 4.680762751523496 10.586068379481992 9.449874644590448
Li 7.674971587867097 2.651531845978904 7.1066805650989515
Li 5.139919818751933 3.8703499666832384 6.0642996635367155
Li 1.5017256808096047 6.5744011171736645 4.643556319686657
Li 6.031753960774396 5.360064327028439 10.5158724819668
Li 4.055507287739286 5.80572277995981 8.494512752804914
Li 2.3073193852542966 10.111017791962619 7.884280539008925
Li 3.2469067993671494 4.434857149321213 3.90371913481374
Li 5.4951661771918925 3.2898578720012974 8.827951345397638
Li 3.2486534800214883 8.262853675191266 9.773057291754704
Li 1.9559221244899416 7.444344721005324 7.273380588156568
Li 2.3108821394518975 4.612714290914876 6.501757309215108
