46
Energy = -67.74230738 eV
Li 6.5878357252321 9.752288668866687 1.4447497643202196
Li 6.633554545510349 11.275947908770577 3.93859723808784
Li 8.979098729481613 9.691144810437459 2.861575323744311
Li 4.286042714128096 9.641239377288366 3.223028450472069
Li 6.5690100948005865 11.917239834794637 6.81520536308979
Li 8.960447469235245 10.233759201541302 5.715178796436816
Li 8.146475551908411 7.354708921227141 1.5639523018686181
Li 5.26050248816653 7.362099058030786 1.5006007649486706
Li 4.311747382084529 11.165167730240537 5.701390290903409
Li 6.691223868446348 8.225007950355346 3.7404080719574226
Li 9.270654682342755 7.173458956934038 4.365906275919022
Li 11.284795193262509 8.26155080141911 6.145120754263286
Li 10.504917338785148 9.766777340579726 8.234266251051855
Li 7.887464426643122 10.384006306588367 8.635286219297297
Li 4.21509266387838 6.703423194161635 4.1643919647963035
Li 4.855263546137045 9.692183818993556 8.427768859123509
Li 6.324804309759256 9.211112801653252 6.187136402391136
Li 6.505368726597361 5.273700817090619 3.0215359376472355
Li 3.397981792562259 8.581326282593425 5.948782832793226
Li 8.76304954271362 7.80253414841135 7.133094359214748
Li 9.033824925139763 4.368321565345153 4.291251146019421
Li 6.7386023718488275 5.824265274674541 5.617236322297939
Li 6.487288909695506 9.635448932985314 10.893907871360407
Li 10.755331633711483 5.372168618119764 6.269462973831434
Li 2.5041197322888125 7.717909175168972 8.567210188061367
Li 4.908869134826423 6.815679055536889 7.667185389980663
Li 10.898178101933533 6.880195964027093 8.794583659100041
Li 4.2507487559781545 3.9315621979478346 4.993473769279318
Li 8.22312666361772 4.9513929225660815 7.759996347280722
Li 9.203410955531236 8.57488634854034 10.58481086510659
Li 2.559783532649301 5.6835800889931205 6.588287860057748
Li 7.051663716488547 7.157032642697665 11.992248370588447
Li 5.583079836958483 3.9311260469514226 7.695174982141224
Li 7.042454508085871 7.375134128092405 9.254799455351721
Li 6.840391050543674 2.825079714345877 5.074212994307381
Li 2.834669037162378 3.0847172947342787 7.467979245236469
Li 4.486793721824572 7.53657924666123 10.697252706410627
Li 9.306696807379296 2.6895551915927096 6.619347842859961
Li 8.962453322757693 5.557711042760059 10.5430436634541
Li 10.605359940602613 3.9453868005487354 8.75351187126132
Li 3.321170471228281 5.0346570740689165 9.429973097664485
Li 4.675994224524256 1.4825318463598902 6.54067478340154
Li 7.982263231350314 2.8697744484321133 9.66559456452344
Li 6.034745716531543 4.906850895722697 10.520589852753758
Li 4.83431364005715 2.137756885238087 9.420314859232043
Li 7.039543651660851 1.345147802380193 7.620300949441329
