47
Energy = -73.24559624 eV
Li 11.398797827648488 5.20629594286314 5.414965171174606
Li 11.401367511269957 7.741667328792756 4.033615360937701
Li 5.798048206392769 9.808126065578485 4.584796763415357
Li 9.155520300930194 7.400588630597179 1.6805455362223345
Li 7.298882597723798 10.228500780396287 1.9368567853551069
Li 10.854932156233115 4.87758259389775 2.4813774227118914
Li 9.12054358925146 3.154355522689559 5.11281966852421
Li 7.6372635389180985 4.503254830536903 2.1769514291725374
Li 9.792353665955899 7.57609336715121 6.509589499308693
Li 6.422401162365337 7.2748915707728115 2.908397947898661
Li 7.175602188232413 7.3553031434878156 5.7826624531408335
Li 8.662396061935953 9.064838854647894 4.112948789230925
Li 8.045554052478455 11.847196481500541 4.878835210388319
Li 8.66484223854033 5.002958322645719 7.195796802129347
Li 6.4320559165500715 4.708853475854488 4.904706446919312
Li 9.968544886445894 9.316957300772762 9.154015984262507
Li 6.460556285826832 3.0733749528800884 7.65859368829053
Li 10.72550834257273 10.231928972637753 6.218303172170291
Li 4.428457844995342 7.056959751953229 5.178465537960112
Li 5.621816867665059 11.632118733998553 7.1516619024002495
Li 5.3998436570227515 8.798370201304133 7.357778791124364
Li 7.980349842324768 9.93693437124941 6.930073001654028
Li 9.008911738417655 5.985111246924713 4.1388276318016155
Li 2.9652164064713427 9.509468162513041 6.062888386801907
Li 8.787540603774746 12.261269034439719 8.057609637342006
Li 1.6068224263882862 6.545373716895942 5.465005357605436
Li 11.274016728128341 3.9046369124399933 7.911078469273142
Li 12.214081919022714 7.193691555907108 7.515661763976987
Li 4.046426350687847 5.10415572527482 3.1651686432099146
Li 7.7957701725684485 7.563273684252425 8.652802566752012
Li 8.058468819801833 7.5304053066108345 11.488431681599298
Li 3.1881320106020636 7.034580981243615 7.874264449700309
Li 0.784098707032329 8.20660061306537 8.165330699887976
Li 3.4032509523164354 9.746694152431084 9.097907864368294
Li 6.898032953657061 10.183691458936643 9.63333463717923
Li 3.6802182783095017 4.424941046154955 6.3147767587682875
Li 7.1842323684947615 5.0802662688078986 10.006489971111163
Li 10.046237968051617 6.028067471437921 9.569368995237163
Li 5.812241133236904 5.810934288397072 7.615846099034811
Li 8.91522614844541 2.960121682916653 9.440243412773025
Li 1.2664798590163544 5.1588306821576335 8.299406147696883
Li 5.271896729268223 7.478774228289793 10.036321805066128
Li 2.3541399607881326 6.97941729316314 10.597278051147764
Li 4.163765954055014 4.609769205890431 9.568052935430071
Li 5.587010003267222 5.460047388637514 12.268967342135243
Li 6.285762971402425 2.713381718617133 11.050652173406766
Li 8.609192325004297 4.398197598919439 12.215473324330773
