42
Energy = -64.60526996 eV
Li 10.736461176821637 3.358784396651136 4.51360206614316
Li 11.969389773122396 4.521024007698487 7.422138474760409
Li 12.06716659585379 6.22184038866984 4.910340358636213
Li 9.334504107638391 2.689999904869617 7.1370578585853455
Li 8.483746697360113 1.0892011282938527 4.512747697947401
Li 7.156081743579174 4.529509892184186 7.361996188973004
Li 8.422055580216382 3.001881080043417 2.05148060189045
Li 9.324282699499767 5.789916077395552 3.218037178587168
Li 10.809051705212736 7.596650095272347 7.788890939269987
Li 9.442659836137162 5.274352885307774 9.125679963454235
Li 7.8158969238929314 3.684939186952321 4.683973510128648
Li 4.244270287909984 3.732758658614571 8.236286173967747
Li 6.122070063945273 1.9249786927952366 6.517423880329238
Li 9.721477114220466 5.478637896198958 6.199776463404296
Li 8.616381440477499 8.115693638626027 10.295985743716791
Li 9.700295336057323 8.168239723408844 4.997569705905298
Li 6.485131775759596 5.5294385516791325 9.969542037062396
Li 5.498332740400276 2.2760892128145866 3.4884855204900282
Li 5.033594833834488 6.388840557127961 7.5577333039380505
Li 6.216324112083606 5.1368819416044635 2.716304987840165
Li 7.159849853891803 8.054845951107493 2.7204243669119186
Li 2.8167359143020265 2.6997402956629424 5.733226866094116
Li 7.8258515829307065 7.503721721237701 7.712974909658904
Li 3.342108066078501 6.034366198423268 9.85711766334276
Li 7.210991407712475 6.580095493303478 5.171516535807314
Li 5.042214299802518 4.363934499008314 5.38904652190755
Li 5.558926854081954 8.306577358911985 9.544535177468779
Li 2.597176453024212 5.691922090261664 6.262232767089128
Li 3.112479202971183 4.7604147543330155 3.3656738371400388
Li 1.1089622550715559 4.521057570759193 8.114933026285101
Li 0.418521211618481 4.73952923181796 4.9761055275965225
Li 7.399791965686663 10.319849412910875 8.13577902498238
Li 4.604076292957843 7.104762196874266 4.560233134348495
Li 7.193602141175889 9.59419954058062 5.221197742228681
Li 4.99999717751948 9.041824692095082 6.649717547799247
Li 2.5947298785636024 8.024358077496665 7.951818568917177
Li 4.012692780653475 10.73862816457688 8.587700691490333
Li 1.8019744569368692 7.583425153288544 4.342755892238367
Li 0.05161858218060448 7.190733068206554 6.755451068028256
Li 5.254408483238823 11.771475851631758 6.012811213297879
Li 4.525984639472395 9.811335544030696 3.726123137115588
Li 2.4283268323241867 10.097711459524533 5.948040634544259
