53
Energy = -83.58077258 eV
Li 10.491599939182233 1.714715933229315 7.344976081346347
Li 8.452864397922312 2.509707681366339 9.85865841820466
Li 7.748505283384102 0.2938785200169463 7.525720125308597
Li 10.145175660064208 4.669330726057226 8.410968484501089
Li 8.839009611092784 5.6865496103290845 11.104247232539537
Li 11.290946811449132 7.319315563932785 9.625599094327413
Li 8.794714459289741 1.5444415799938764 4.630307325349256
Li 10.280627110087144 4.24674711148675 5.163458319060661
Li 10.79884061588084 7.214695346811101 6.3747829850607145
Li 8.11243689684718 2.9156041843209137 7.011433754106027
Li 10.28060867726194 9.852953849702883 8.014554817126928
Li 5.556122137583487 2.4543103250001046 8.669122329710865
Li 5.589945292542702 4.513551478610719 11.223858330383399
Li 8.240934850164164 5.804887356794392 6.507347318728398
Li 6.133984930274982 7.527094907377818 10.235258251159992
Li 7.930251743340833 11.599268806022822 6.07940409697287
Li 9.08670556842794 8.885382868619336 11.095320160671658
Li 5.821816740654965 1.7609982500838932 5.465688024139827
Li 7.178161399362409 4.95633488401243 8.970014089573398
Li 7.389935304988002 4.168340837453959 4.320071843547707
Li 8.809425356289637 6.88257815446773 4.050988012232187
Li 8.739836838678213 7.493113554591888 8.790879669057915
Li 10.110886543236449 9.509957436416272 4.302443808882276
Li 2.7524562978096316 3.6271668196875155 10.101696356013997
Li 3.0863359281373843 6.744231959870821 10.699885152281444
Li 11.271627505245714 6.89509523241178 3.057102451986488
Li 4.281231572140077 5.340611982245819 8.752249077466061
Li 6.7205793938031695 2.5637121577550666 2.3187005061402464
Li 7.384329354416753 10.250267257217052 8.879660545403043
Li 5.678630632080923 4.448831111627497 6.500321989409759
Li 5.580602613929909 10.077956783130455 6.7733408193783164
Li 1.4880773801389016 5.595372761416272 7.998625165955411
Li 8.2197016697103 8.75232565479087 6.333509978554608
Li 8.61276561349326 8.028980885430526 1.6598216955494787
Li 4.442237014963229 10.13295529828573 9.494884099388525
Li 5.980373368596926 6.888148156398516 4.537797407892096
Li 5.941376478200021 7.333243521857182 7.36380275551899
Li 3.4371667371424572 6.029102179094984 5.888456715052733
Li 3.273893458105455 8.073668701567634 7.885723459028424
Li 9.181124509738519 4.736529103960347 2.1716642248404825
Li 1.2637365216401375 4.786381118322471 4.774842743765426
Li 5.329259731869238 12.58747997037936 7.6544815953670104
Li 6.332070944935209 5.853869736120704 2.016286180760814
Li 3.1060920515361268 3.241231564984837 6.837851244294323
Li 4.959054147097295 11.6236895821635 4.453078158210729
Li 7.067959343548169 9.528142151450096 3.9856218798799654
Li 5.045365105317119 8.86985213511107 2.1432000316459914
Li 2.78474046760263 10.848238376839685 6.530862228903783
Li 1.3545685082242795 7.960465873574691 5.458905385565749
Li 3.0055061259644837 6.8398683820688095 3.0686063939003447
Li 4.325211212325871 4.0951566131232955 3.873850265211942
Li 4.067399420425453 8.84312488810434 4.894927850750072
Li 2.347454389670064 10.112206652563467 3.3390403181993538
