55
Energy = -87.71621954 eV
Li 5.351143620370026 5.350078192944293 5.351722217337775
Li 5.3581504466880405 5.376939115116299 8.366345396426778
Li 5.345571667492642 5.388006119080899 11.285648534436916
Li 7.501551696837409 3.8201752339343247 9.643291438391012
Li 7.527617859127073 3.7771272170307486 6.719746940990312
Li 7.519148940883807 6.9476622078763 6.717543573990381
Li 4.510587353682316 7.918562840177232 6.698644851294709
Li 2.6655091492756187 5.367764053315352 6.719760148304518
Li 4.494790998942803 2.7854426926776665 6.6815774693733525
Li 6.187433431962939 2.7817554625702265 4.00545197415619
Li 8.038709273356703 5.336037762913878 3.9832162898151906
Li 6.208414709559211 7.919640496795626 4.021108540667443
Li 3.174824319783769 6.923421217215141 3.980517022528411
Li 3.1886043876542485 3.7506965116561686 3.9835834165128174
Li 5.343516197685607 5.327939785593649 2.335564552840723
Li 9.620723445088366 2.2482665730946887 8.012826106179455
Li 9.620690369812104 8.48421629523013 8.022426484107678
Li 3.7160161645162897 10.402154581752745 8.00565206946849
Li 0.05792331038557597 5.370044422899573 7.996216045018968
Li 3.6966831543045293 0.3255161502275734 7.997604040178164
Li 6.983910959876627 0.299241202380762 2.697276280906979
Li 10.641885600685177 5.334940935969478 2.6996802612904984
Li 6.999265383053958 10.384481830116862 2.718235666215715
Li 1.0825115705721744 8.447071488658175 2.6799268801969243
Li 1.0782502066650637 2.2189790997156775 2.682414685699953
Li 5.364251515950494 5.3106297054730405 11.285648534436916
Li 7.474875131392261 6.935039335160125 9.638542763605873
Li 4.542228969260543 7.873218134632194 9.610769792840058
Li 2.6920115684763437 5.391589756451192 9.624161876018636
Li 4.526767627445302 2.8735304133044983 9.608497876551793
Li 9.613599147957373 5.355618754911957 8.020361184654009
Li 6.659515444934593 1.3080457133607233 7.985770183911973
Li 8.297508582187994 1.283371991052627 5.361081111493484
Li 10.103255163855955 3.7967930856003123 5.360244833663358
Li 6.666367539697236 9.4031668968631 8.003989491939743
Li 10.098878759776788 6.900291545184331 5.354209502189752
Li 8.300307260153748 9.444686759410144 5.362989083618304
Li 1.8844212466037544 7.874274562698812 8.006620569504356
Li 5.375665077573218 10.379952618358343 5.357873171395192
Li 2.3996410576338016 9.418742801633087 5.33814072618411
Li 1.886451982038023 2.8514614426040836 7.996764566833782
Li 0.5996097581921275 6.9052807022883 5.334896997694653
Li 0.6076685127107215 3.8063151911810134 5.346405219086853
Li 2.3988393971170088 1.2598854530288042 5.348495019832758
Li 5.31957390277396 0.32064483433003654 5.349747231185147
Li 8.816840213779802 2.8302455545195353 2.693870423357194
Li 4.032799162802271 1.2913105933887483 2.7015489798265695
Li 6.161074380682986 2.828935829080052 1.096192302873311
Li 8.815151969157885 7.8601066884995054 2.7099564125461715
Li 8.008838073653251 5.316846334933573 1.082109278435917
Li 4.041666498297289 9.390654561524938 2.7163272350120233
Li 6.179092114697927 7.837772782755928 1.0958434624221156
Li 1.097139120591623 5.344069164906741 2.6749263420406804
Li 3.2058699362746546 6.878165410687092 1.0507927272585385
Li 3.232830167194971 3.759365394359421 1.0619094052509002
