53
Energy = -83.25014477 eV
Li 1.8011221075611947 8.894232240773189 9.00416839248807
Li 0.26235045829960457 6.248155979617551 9.054688552982936
Li 2.3288622102467786 10.626326899462793 6.448574113025065
Li 0.3181878281108553 7.897388889735967 6.38781202978705
Li 4.099320890530137 11.05763379796433 8.989160895645371
Li 3.163147709399722 6.312148604583368 10.002217718740665
Li 4.816792706237074 8.612173734918448 10.859701247567738
Li 0.025829239063892347 4.626747384196407 6.533279725358809
Li 1.365848084408352 6.02170823138409 4.178927662759769
Li 2.331337854166153 6.1179353580084435 7.107943816925234
Li 5.868656390288471 5.341561457966768 11.10339808722825
Li 3.1449778756281837 8.250478621349156 5.262677674842701
Li 4.225112910539034 8.311988153970155 8.088685575473656
Li 5.217067527664172 10.175529001201099 6.344323738106155
Li 2.057146457313928 3.6743659294494155 8.79062399254831
Li 4.235989140697429 10.819110027270753 3.7356250675851523
Li 7.037601528097785 9.80114285295685 8.733772788946606
Li 6.53402654429334 6.929276432740899 9.07209049136809
Li 4.73845017112618 4.7067724871523975 8.223308159432978
Li 7.897220804038733 7.945992747607701 11.284892675902967
Li 4.130770355833903 5.667487504107504 4.184591267457648
Li 3.2710980721572054 8.186002991991614 2.409283128375946
Li 3.0106222348176472 3.485440737933439 5.8091323867889075
Li 4.540422387197398 1.8622076102382816 7.9002272475340565
Li 7.469125070195882 10.680733157180608 4.615847048396617
Li 5.7483157380490715 8.298931375310824 3.97665667839012
Li 5.366618824834394 6.511644554629563 6.3170615781483
Li 7.441299765655323 8.194870742258393 6.307916234709354
Li 9.252338712842779 7.653495994571566 8.507578194005367
Li 6.330474674649731 9.399417329188617 1.6463747981848635
Li 7.758256735194373 5.123736442944855 7.163835737531998
Li 5.967693231655165 3.4484537809257723 5.684020591724146
Li 7.007603999414982 3.234219384204804 9.094594134202078
Li 8.967759572678792 5.2812749097672125 9.960611384744833
Li 9.804472845138333 6.318621431572951 5.7631506838841595
Li 8.889557328923129 8.216806908380518 3.669053504400871
Li 7.2574068808921774 5.709211857356494 4.0512413191757135
Li 5.5017876917896436 6.232728440258124 1.7668536212562969
Li 4.907612124612234 0.9001547105301307 5.040798716828407
Li 10.206836812587317 9.230223036997817 6.252581355389113
Li 5.196889215510213 3.2141207909246208 3.0205072303569707
Li 7.653389353563173 1.5148528574520204 6.7460459479136015
Li 8.251099731019826 6.815658339970068 1.2143717601785176
Li 9.01605977370034 3.4848583459342812 4.8489052359302
Li 11.75128591647799 6.314986596341348 7.618080306107284
Li 10.024406716243588 3.5193904437153694 7.5957785581277335
Li 7.710777512201348 1.3432413720853416 3.6986795213968255
Li 12.0488267468415 7.362972914740694 4.605619499355934
Li 7.919396395621736 3.885938156695429 1.9533270071844306
Li 10.232161382680491 5.4839668672488555 2.986716655742155
Li 10.476495819538822 1.2009425423327893 5.498175034174124
Li 11.806804257081453 4.16756713897933 5.201890253028242
Li 10.54763267628701 2.4533692472528035 2.7109566342608766
