54
Energy = -84.69027561 eV
Li 2.1537418312259233 8.82816081057661 7.557493092005204
Li 2.0092781555244987 6.790633715760862 10.122566414462153
Li 0.6284820255241332 7.911181809556258 4.624423877841533
Li 4.989619946114665 8.641305060560075 6.681685629834254
Li 4.0920161742917935 4.264147318875182 5.301301694674068
Li 2.3852258845096928 9.930222278362967 10.608068911959949
Li 0.9059209493820105 6.174177191574678 7.299425476516758
Li 5.063641697347173 8.231663116891928 3.467423522473898
Li 5.926420466314348 2.350611229958837 3.160985217625688
Li 3.8238288525293975 1.6718229690357667 6.0797539638373275
Li 6.744366281223863 1.619932466144902 5.985267450811135
Li 7.003603773772593 9.517754558543258 8.504587696280142
Li 8.09191363769907 7.793347887737574 6.140990593127921
Li 5.22995797528431 5.1735358335744195 2.9160314780278656
Li 4.719497280666261 5.220881232383811 10.299460724961365
Li 5.693731645745349 1.758149725505307 8.955943357502605
Li 3.954858370563941 7.856599093180644 12.296357616206288
Li 6.3423631275019146 6.846927967931734 0.8401899126830203
Li 5.863700353423698 6.299207805892991 5.566412667764799
Li 7.274197040143062 4.152526888915878 4.866839750380817
Li 5.545937432999625 10.293908655082681 11.097961072374934
Li 8.894062934631844 2.619467019160468 7.643107422885502
Li 2.7793423913740645 3.685367923784514 8.160824652784079
Li 11.287476935501102 4.074010712499251 6.126726720865916
Li 9.097191825472908 9.84519663764929 10.529730144775801
Li 6.865697660940076 7.532294269286503 10.99974697717386
Li 7.772765320904605 4.516589979365583 9.756246141601835
Li 4.3332569694418 8.324709986889621 9.59441645892126
Li 5.7970616373786665 3.934194613218897 7.492328280386139
Li 13.406987875486982 5.970415599590448 7.240470924900196
Li 7.537603750414353 6.964871834093003 3.418912158140817
Li 11.858400736070712 8.18683986570761 9.18316449697563
Li 9.259218058806832 2.4313936041478903 4.144780938501586
Li 10.880939196383856 5.111613108642352 8.928218323251244
Li 9.09108536636743 7.440520763360872 8.95785189945788
Li 3.705655591116677 6.1811023811599375 7.715415344584315
Li 9.684220576185815 5.53101856625532 4.263125790800525
Li 3.051850899494322 3.1776036917495523 2.745426666986404
Li 1.3680806254904123 4.70746588714647 4.799744603047026
Li 8.559060293129022 5.227894016168995 7.036897435077391
Li 9.770600644645981 9.8051637268884 7.329882671044378
Li 5.0144662017853925 3.871293474503049 0.45477987561340477
Li 6.3914491079566345 6.6247237710134 8.32064802361691
Li 12.420937140710924 6.247656371469684 4.10521113431411
Li 4.311064743176483 10.967189159050164 8.153260110425277
Li 10.939237761966782 7.003274306477215 6.600028804413688
Li 3.0683572234447527 7.003431063768402 5.147434731257608
Li 2.7440851377168562 6.291630093606114 2.3681934125735884
Li 7.8905108440165135 4.348631160036003 1.9462383592079873
Li 10.006645272299076 8.558654656064313 4.204914956387377
Li 9.705108036063589 6.882442817116365 1.5797200462646213
Li 3.2154971092572078 10.05396613322536 4.970345711077648
Li 7.669140882388809 9.378248727565175 2.195242165428424
Li 6.925456097128581 10.094490069073744 5.247627415300712
