52
Energy = -81.65415346 eV
Li 8.613704740583772 7.232683815711526 12.518441517338932
Li 8.28121707465017 8.420734537083831 2.6899918058060757
Li 3.350342627394404 5.585413550633955 10.706808651727671
Li 2.413798829641606 9.96732771233513 7.300820138531508
Li 11.80254180361557 7.438411600549054 8.578054056647034
Li 4.539056681590992 5.494706573453825 8.281923767574867
Li 6.948159416429075 5.871637094448814 1.855087213668821
Li 1.552818534804447 4.178109312899341 4.0498953441378
Li 1.3925458942772824 7.138038142420623 5.341359111002799
Li 8.290571190145865 2.0909237770784994 9.070492698127989
Li 6.622260911879826 6.9169877365257735 7.06891256804567
Li 9.7762093042739 9.313339634395312 7.515681918934925
Li 8.486427463407416 11.490925051068936 9.604999217228073
Li 4.645572906329496 4.414535464410006 2.933452707401694
Li 12.30874992166085 9.15333072050942 6.207433765577289
Li 6.447505846836964 10.570401800371558 3.801301306162044
Li 10.346455502201186 7.6953186828202105 4.610946366751117
Li 6.9537986195139485 9.488524859914275 11.32784127818733
Li 5.210886292577582 8.47283559771483 1.603456286462024
Li 5.934337936924922 3.74942997710953 10.596300618754423
Li 10.630648288646684 4.532161065829849 8.801398900567854
Li 7.861756928574262 11.575538784772268 6.763815059031783
Li 7.216515729623145 9.131904141620113 8.645495141644506
Li 7.771569215134951 8.839405472266337 5.491684228004703
Li 9.85413047669242 10.676777086193729 4.776622703561234
Li 3.447019681297118 9.400244209065756 4.196255563090106
Li 6.33106357463866 6.6035724195502015 10.385867373310951
Li 2.9700385601490518 6.737347338702831 2.780384253489286
Li 11.1342305298607 11.53184938910684 7.921207606743111
Li 11.269484175051891 6.346603906900309 11.374732030305243
Li 5.538634245307134 7.3504133565740375 4.086973417524993
Li 5.370193822240451 11.337487759829202 9.187044034300328
Li 5.368980554790994 10.053635514009054 6.5679637323130775
Li 4.966328005239135 2.714179943251783 8.015483980427694
Li 7.975893058812243 5.962189986207356 4.5299965490142755
Li 2.1053554030680206 4.007283692377549 7.3038467583386355
Li 6.105015830392561 4.347675746429011 5.78949715354974
Li 8.809883313890062 4.479059664694465 11.163973182892375
Li 9.297085226690417 3.8045046151282342 5.989057034473493
Li 7.559310513851578 4.544286373297965 8.334763460811452
Li 3.5571778309367494 5.329810423657772 5.3977534991635086
Li 9.42864131281747 6.524763996303853 6.978575560668379
Li 3.9436949272170416 7.7868851407593835 6.510744399236676
Li 11.891772978811739 5.650210600053384 5.9923982496497326
Li 7.032859324526114 1.7531928630649898 6.191120959009977
Li 10.051247716357176 5.100211544398263 3.0783816813121043
Li 4.061028469966903 2.4047668274130953 5.092919510108961
Li 4.367157992170469 8.484260359095243 9.282615831547046
Li 1.9370039860030352 6.885261034624746 8.255279994687637
Li 10.248078612684726 9.315848743450797 10.596831790900206
Li 9.04172177062464 6.97934611616509 9.76044702436878
Li 7.359148677322799 3.215294689640945 3.502919090550503
