52
Energy = -81.16585885 eV
Li 10.928991227486256 2.1539724747827105 7.541314908812203
Li 9.072627033863018 2.605721642539024 4.987274969366902
Li 12.046684970225138 4.173351154122918 5.359820994854703
Li 9.57308428985084 5.3528703086160245 4.425996800711778
Li 12.456016082664844 4.590624089841432 8.567286054665946
Li 7.956677173986549 2.3948550726284608 7.954331695663769
Li 7.279860027074678 4.459446788404052 6.201195682026336
Li 7.191971190294404 2.616575672292551 10.820627955191835
Li 9.829723100444767 3.704809274632619 9.981692430807819
Li 9.852038501321701 4.637775842694954 7.238358703429709
Li 5.138541917925955 4.4649046297411354 11.645836890761236
Li 11.787849500834193 6.961903516982541 3.4330865630270337
Li 11.491980422732576 6.867471635998058 6.5622485550824745
Li 6.868093429002739 4.295170289829404 3.062783989203921
Li 5.0667748021676084 3.319487579256175 8.545057363018476
Li 6.999794869584359 6.563509558777868 4.485448738179129
Li 8.827851024287877 6.891615411886771 2.070585234348679
Li 2.573941051111921 6.11727415518105 12.13478369544666
Li 10.133688173420218 6.580637894325155 9.357714862908498
Li 7.112690686259175 5.287997227446703 9.300073550080153
Li 5.133725475885099 5.973200582044302 6.99568615907439
Li 8.173806136074331 5.608730533923256 11.824539083980675
Li 4.5867633885281816 3.902401496593059 5.140648238069647
Li 2.4633578814704067 3.455322180770034 10.394530954223098
Li 8.12104037896471 7.280444559817198 7.20453481763192
Li 9.570339764126455 8.111316720137394 4.907324145708102
Li 3.759512974470493 5.775896114499849 9.625575933668676
Li 7.98498629540649 8.441292369971473 10.113635225399083
Li 9.952090749410688 9.809533616653892 2.571898098599021
Li 4.264090915656452 6.7260878781995395 4.248703639458338
Li 9.991975273409869 9.400690404360839 7.727270576167691
Li 5.69764946858029 6.931002584925133 1.786677067405611
Li 5.509456431278792 8.065785543506887 8.791072738643846
Li 5.478099656234672 7.34618292734614 11.544594011068492
Li 3.5680683873357917 4.68718551658925 2.438056659342215
Li 1.0035604089391337 6.076848760530462 9.427573633793187
Li 2.5116516934007076 4.4164292058735395 7.339213229729347
Li 7.334543513711791 9.060393767017887 3.325888841464774
Li 5.770431504038415 8.73732119534565 5.822329289622731
Li 8.475736580017326 10.74434512246983 5.282464613158062
Li 7.341671124916225 9.324798348361021 0.5848286009557769
Li 2.9722333402386143 8.471608945845137 10.142798608334262
Li 1.7515112772192882 5.904529624336709 4.766725523431559
Li 7.0691320806906175 10.38381388885278 7.8670723045736315
Li 5.520349774932906 10.34692496071647 10.525442863935579
Li 2.819073697001748 7.446140483971169 7.207663008752576
Li 2.516167204988456 7.597617302906614 2.2278070318235077
Li 2.9627852560080283 9.223603596896824 4.858523422548658
Li 7.376402123128291 11.695116792913662 2.5546893810680866
Li 4.02798912293187 10.287725974329872 7.6831266502259385
Li 5.4878898382219985 11.406777867312966 5.126044740497396
Li 4.816997794603883 9.662381686851736 2.5894411402040496
