52
Energy = -81.8257229 eV
Li 6.610214413733562 8.936039945545735 8.972786568186208
Li 9.483234091708018 9.940392380532229 8.414085134330888
Li 7.236429618839235 11.909342919328488 9.331656081864933
Li 8.241959538686306 9.48184693492466 11.170080046628687
Li 7.749496105824766 11.957209999748413 4.027071534479909
Li 6.287153255076534 13.486358371400652 6.64450182785653
Li 11.106671460311134 7.400321526825321 7.47118106796546
Li 9.88831635252342 10.016916173489633 5.289313882906467
Li 7.234790987349918 10.873118261074627 6.651265840766877
Li 8.339211490089117 8.1497872810617 6.500425828694706
Li 8.615379272694966 6.893833915035062 9.239638928243028
Li 7.9562687523339495 6.462273510856777 4.1493823578514775
Li 10.6263537566052 7.0352947854459185 4.448664215232566
Li 5.253489895729524 8.557716073462052 6.458940585469804
Li 11.884726641518865 4.594531375066386 6.099711177958971
Li 6.6023107590554755 6.064305457340711 6.8229626501067795
Li 8.898408776546338 9.083025597959622 2.5255164468504905
Li 6.021223467374362 10.5412108981485 1.91865183779144
Li 5.216292523824378 10.293634885884494 10.963177887546403
Li 6.134352909977285 7.383117741220092 11.564611525823706
Li 4.62065718601172 11.07646247056976 7.934448398170439
Li 4.849944988210186 11.313025150386135 4.907512541587005
Li 10.591612526059137 4.394110853028814 9.008573062459341
Li 7.549943464219305 1.3762165603458196 4.343428749015838
Li 6.813125982535478 9.229176858695562 4.232577333927109
Li 9.346801058493849 5.357497088191288 6.6033060233056995
Li 2.597806792924329 8.980033028589943 6.3948329746516634
Li 8.862733101788796 1.8068780515098946 10.021209874347498
Li 7.809662710200822 3.8682177264259545 8.555056571470562
Li 3.951173713496945 8.737753188464914 3.5065742768356274
Li 8.076631225766823 4.702737443161685 11.246588855765678
Li 9.521685948984853 3.9320728300112338 4.055517840716404
Li 9.200278984454675 5.954786077792451 1.7352863988586364
Li 5.179763248330256 6.447785328551762 4.430401917398974
Li 5.832940310344164 5.759175157517734 9.348811932577929
Li 4.953490006991601 3.4543462914284193 7.578410954909671
Li 3.8095893433037764 8.056345303955187 9.147190713063994
Li 3.7763165594647887 6.018368709115866 7.0805161885746095
Li 6.353815130383972 7.4074335023019255 1.890429992572259
Li 9.543091935828977 2.373082050551503 6.7947959981322485
Li 6.838918163374224 1.2009812425026671 7.716535478420586
Li 2.195453545603076 6.272911881971307 4.849857087076564
Li 7.0108433387951825 3.658240073692397 5.645530482648235
Li 3.168691553188273 4.495627435799874 9.603105506894375
Li 1.2646109579006153 6.475194687137781 7.88528901629738
Li 5.870441141809056 2.7372908953253483 10.298653553740296
Li 3.725306060728562 5.684938362693669 2.144287321699905
Li 4.669308911403566 1.2765323730119014 5.686210163861296
Li 6.654969671545025 4.223232247812989 2.7444170077902124
Li 4.220549953690045 3.9397562108389654 4.627900375824333
Li 2.1682900554048743 3.5541783075736384 6.821566150815721
Li 3.675563585284725 1.2855910360131975 8.659177621495035
