53
Energy = -83.08793806 eV
Li 11.531369210232928 9.876541703544357 7.863526347602645
Li 12.898142250117662 9.093795273095763 5.066525498942922
Li 13.02971899022462 6.993587147483928 7.818790939684018
Li 10.728898243840836 7.2745656338419336 9.520952718418377
Li 10.151933387310894 10.130309870460177 5.150249492303451
Li 12.831141530560878 5.862845042755435 4.988334174217871
Li 11.911022453809405 4.488653043030944 9.91055038623064
Li 10.840091799657996 7.467202132212423 6.089263169295002
Li 9.085247248033621 8.717972609602143 7.708859466445876
Li 10.807252185033791 7.793126124426999 3.2584960218652483
Li 8.833622859609338 4.864155217577737 9.94675670766408
Li 10.58488340847451 5.069386275856733 7.480042546128852
Li 9.014139804698763 10.292669451107605 10.21863466521022
Li 8.591542313402458 11.642559275652431 7.404069597479679
Li 10.012656191536077 4.955990887300019 4.384230848192296
Li 8.45058563132274 6.288013864939368 1.8887010391442995
Li 7.822699101649155 6.3276298126464186 7.420060308359124
Li 10.827151840268249 10.809370911928603 2.5664856508239398
Li 6.596096431024603 2.309335031538233 10.81469859754559
Li 7.975198247182615 7.583557098846625 10.218059464526577
Li 8.221731009142381 6.9410315782396745 4.733913425146561
Li 7.500979209073773 9.564776361820234 5.573076081992171
Li 9.422532626976162 2.45745550559786 8.820432321970824
Li 6.195299994871939 11.970469013582075 9.739126305501093
Li 6.72533825564029 9.6402923682908 8.549585667851705
Li 8.221534430169342 9.268997377352802 2.7793460563023897
Li 8.04969552056942 11.994981788044083 4.158728376794018
Li 8.063968756540655 3.664565475585615 6.346152440516002
Li 6.826944806726954 1.1651481314647962 7.858842485760828
Li 5.551748997571993 7.054277786742441 8.801049225777383
Li 6.449584937673209 3.815416943656029 8.60435925734166
Li 6.0073689159954595 5.527485536187116 11.11407613365088
Li 5.254635736671568 8.353722876487831 6.260439851746202
Li 3.5981901827995033 3.922970855607721 10.904377349987564
Li 3.9076813481280075 9.71370808164641 8.781598100456623
Li 3.920591197949032 2.009827685104546 8.598198697131162
Li 5.875089966805791 7.122008407393231 3.252974646474849
Li 5.339697044470389 5.550454682075214 5.858175066006562
Li 5.549460237382783 11.43770106021494 6.627391129920997
Li 5.691842915072839 9.044699554665288 11.200159942286664
Li 7.003153091806006 4.357595890646483 3.759907604198363
Li 5.094612535573781 2.8147112716276332 5.916984089710011
Li 2.8503405560882062 7.198737855260563 7.407539690563042
Li 5.152572904477732 9.963155965225479 3.8704660037370964
Li 3.2250028955139927 7.040366459980236 10.403445124167241
Li 3.9666473859580496 4.815585483221896 8.360554998438877
Li 2.539816337709765 9.712457196700107 6.078799640096538
Li 3.133766166119262 7.2022406874539415 4.474693479019041
Li 0.9665657397600103 8.623901339643263 8.741814561980226
Li 4.089548746870723 4.576421993398152 3.33012359985607
Li 2.4551047677829825 4.520034895046731 6.00519861529225
Li 1.2065814539100368 5.270138272234984 8.782660460995034
Li 0.4909146965747114 7.109601156548079 6.068823984140217
