55
Energy = -87.15979968 eV
Li 4.164397372260061 3.7674908914405227 8.03741872163641
Li 9.40688883875326 2.029925072700179 8.414266125091082
Li 8.530560706900967 7.698759515126542 6.501618844062386
Li 7.838998284341516 13.306048257002288 10.728668113410507
Li 9.331453189868501 8.49613722099858 10.83216068077244
Li 8.353968679630954 10.48433403022122 12.751847529801722
Li 11.34610212848388 9.702535764334629 12.512286559528453
Li 10.552890115671886 12.916623202202311 12.5785599023466
Li 9.00246609319688 4.627912751269302 7.423356563813839
Li 6.887693218632205 10.446260669319138 10.036064522065102
Li 13.30968853346385 6.989308214801035 7.9051419152520594
Li 7.431834545277994 9.57139253275607 4.138301713984378
Li 6.995615433392797 4.672355644513439 12.119222623154199
Li 11.39073450982216 11.49312719078569 7.905657778948322
Li 3.6028906688275018 6.7790229257047585 7.727480141166904
Li 8.532678241899823 12.30173598378423 8.134890777779153
Li 12.165915915230233 10.97042397788815 4.886183523481763
Li 6.283809132840615 8.049388124471266 8.71545267379392
Li 12.79871195694411 11.913790039537798 10.51343788205224
Li 10.450509935228316 6.83663831392086 8.561929131148299
Li 9.747804595975271 4.227803403975652 10.604221128878875
Li 6.734787484385566 10.246604625230246 6.900755549449763
Li 13.4855577000236 8.082916564540472 4.893044065988019
Li 7.960424765729745 6.241946116711403 9.879156093810627
Li 4.112402026588904 9.877299943506776 7.898235223118261
Li 9.9713836627975 11.325212385832574 10.511926585436028
Li 5.088337814894179 5.638021886959936 10.069494981390802
Li 6.301272151894806 5.586497850922871 7.275899561730814
Li 9.29253249485699 6.674535105244686 12.840170410581196
Li 6.947657495921496 3.4531605212628347 9.32627441551577
Li 4.1795464315537 5.8963926659023205 12.632550361720071
Li 10.543059450921689 13.979987058547717 9.435230055741297
Li 10.360103304815514 8.552109507455176 4.02428383029068
Li 13.953337804519364 10.076936046940093 7.442954709724747
Li 11.800967067517124 4.259726507317965 8.416416863790825
Li 11.092046410773762 6.060097799463082 5.736506689983047
Li 5.438993532421542 7.97408612023256 5.676627255271324
Li 9.127375352527674 9.530681831582761 8.379608145270733
Li 9.552316752945876 11.78801186074588 3.296213611780502
Li 4.738391385301903 11.050567244417033 5.123958033962602
Li 6.565746181624706 7.830339180806384 11.88130506452028
Li 6.789314748179905 2.946766385743248 6.320853707027916
Li 7.709422880855104 5.779984351941557 4.681406969803754
Li 9.456137388077336 10.681819036563015 5.802485592501899
Li 7.902147207888002 14.910027049878257 7.798512974253273
Li 11.782464354953493 6.579406250397132 10.969541484714687
Li 11.961907845235949 9.211106258434413 9.566097904847714
Li 5.668284514260695 12.645875818374778 8.072469701964621
Li 4.553222528404747 5.006846127196279 5.195839257365644
Li 7.364866057164784 12.702528080886507 5.413184161387032
Li 10.215121434988983 13.484544713445219 6.026173093084812
Li 11.518568052661768 8.80782630292495 6.661965734046937
Li 2.359770388437139 5.389775504527122 10.174133967856683
Li 3.9010381905707066 8.223839011236315 10.477995066353516
Li 4.3924408362055 3.170068354616487 11.117119820087908
