5
Energy = -5.0490444 eV
Li 6.241642076679092 7.79329523956268 5.913124862273215
Li 8.515309795528575 6.625404643001681 6.871796421266158
Li 5.687551469458426 8.262892832814915 8.711742757736378
Li 7.366396267145645 4.919039451689769 4.716484951299278
Li 5.452166305902439 5.662433747645013 7.049916922139148
