50
Energy = -78.50741876 eV
Li 4.916441493285485 1.4405718808551844 4.129177369330079
Li 2.0674635802028134 2.3804282687752405 2.8760334611035328
Li 6.954023467476169 3.5621815942972073 3.3836926071525593
Li 7.267085670225413 4.823806813583924 0.4789378413322208
Li 2.5788247050671957 5.4054108350914465 1.9939066951545843
Li 5.248874565544065 0.6498695677598165 7.322464313303447
Li 2.610765983757619 2.1809532903096853 6.068826475857797
Li 3.8631859708393073 8.29230163490798 2.167368648808376
Li 6.289171280397622 5.511305886992665 5.191546279141374
Li 4.5311444435544 6.106074743443176 12.437318693010718
Li 6.168335163833679 8.209805809238468 3.9502519249867682
Li 12.688678195323401 8.410594798105933 7.414534933730517
Li 7.819250738500795 2.1021111468154516 6.003916594014169
Li 3.8457024415395975 4.02707487216858 4.156726624686469
Li 10.270521060815895 3.0868613075969127 7.810544804337392
Li 9.533883707346696 4.569307211387116 5.125211632347293
Li 7.232034513766035 2.6255448215619275 8.945326051335659
Li 5.356345514926691 3.23526943081868 6.520898650360977
Li 2.8740428125225064 4.9828748527177025 7.025592200992393
Li 8.037090675501526 4.72917776535444 7.421105997084551
Li 4.653931014102797 3.2655768911709986 1.3242755887279405
Li 9.340181809401678 5.133939913054848 10.094328154418868
Li 6.291545025457832 5.223584038097752 10.500233412819377
Li 8.354218733523828 6.324086781871432 2.9757266998532623
Li 3.2950731054283677 6.025630567123176 10.04356424575824
Li 4.157095883395921 3.1145955507892205 9.070632487142344
Li 4.827261144165209 7.313362170625164 12.437318693010718
Li 8.365554809971298 7.279886573049322 5.720115682633702
Li 7.975684433936903 7.183197826473432 8.702122985812649
Li 7.827341484607226 7.757205905214867 11.450097990537914
Li 1.1526686030855793 4.782558824685095 4.6377276718310965
Li 5.368802919561613 5.717634757897879 7.959218031886612
Li 10.470491452164127 8.229690962378694 9.782810549828625
Li 5.355726662278451 8.048193565864903 9.82752162591193
Li 10.62561617708124 6.287200153347063 7.530842735658467
Li 5.441039629348418 5.832662612016572 2.3279598781738327
Li 5.965926391356318 8.23748838780011 6.92542042861281
Li 3.181906298984469 7.9867883754378335 7.639074352985427
Li 2.97722187567436 9.158349916930742 10.634393740303924
Li 11.102022897638768 7.4145425471943645 4.810277807427668
Li 3.7350219572661754 6.799610238101338 4.843606835913392
Li 9.886590049127054 9.196282239085065 6.930837310990139
Li 5.790552794631925 10.14279747439576 11.501971426525966
Li 7.698803080224499 9.885449175317467 9.019708526238345
Li 5.970939339277617 10.64059384287773 2.8026601539354123
Li 4.11858932441014 9.823980483348835 5.185754084618926
Li 4.805618552482784 10.511312857114712 8.316013340798907
Li 6.776882589897782 8.04290775240366 1.054039593465926
Li 7.111492000316853 10.467017055793015 5.868744908382193
Li 8.814915309672928 9.277722947681239 3.5805766979917646
