52
Energy = -81.13766916 eV
Li 13.340728779664994 4.894718221949867 11.825591728843166
Li 12.143837603570132 6.22531830299946 9.487753852712459
Li 13.249411709501084 3.61321703393526 9.014020383182821
Li 10.75062170913904 6.62177617708269 12.167063263284401
Li 12.007913176955617 8.945022519752827 7.36459223003477
Li 12.659502396137848 5.865451652641393 6.576400846970143
Li 10.671735029581711 4.0876909313534044 10.804192167884903
Li 10.61375782126237 7.85378138063796 4.8067547228311645
Li 10.594379180558917 4.044773179696118 7.946415594772292
Li 10.511613524093882 8.72665864589535 9.964187211084878
Li 10.400097433637782 10.884093584539865 5.210265953282757
Li 9.699607013705476 9.574048991894694 2.347879530437538
Li 7.861706803990559 4.773690918408029 7.3923352131540705
Li 10.116005429419003 6.804411856378713 7.4807241019356905
Li 9.265632879870857 11.137229375624557 11.470874340507311
Li 7.987551451435197 3.184716897093372 9.618785570448205
Li 9.914018603636789 4.836237475635898 5.11116274209953
Li 7.770239230878328 6.906810242775209 5.5214845912723645
Li 8.917582183115607 9.283632693401632 7.147145906228054
Li 8.332269293202252 8.301412327520767 12.240390379536342
Li 8.329928130943955 6.814947599372058 2.9009390829739727
Li 8.054154427423722 11.977089793349542 3.161314331149696
Li 8.713879766192672 6.339669260576568 9.89062416310143
Li 7.938481199858293 9.587772913480517 4.495873326762167
Li 9.980795341868205 11.423871666094534 8.44465304947207
Li 8.60727880379963 2.173731035425857 6.672651340506212
Li 6.050925379183301 9.975794042199611 6.990806703015946
Li 6.386866485487316 9.250450762373042 2.249849499527659
Li 7.756636580266207 9.558667295211587 9.762861196883572
Li 6.199507750396666 10.597929255004559 11.965560762122943
Li 6.6929917261446725 7.456904645610647 8.045065193227222
Li 7.6523428118352035 5.180495946370123 12.087838162587786
Li 6.924315746941981 12.09063697619073 9.291166206104759
Li 5.298304086691094 8.319489561323163 4.943377662425779
Li 7.049500650424337 4.029058865856086 4.652867452395195
Li 7.711361270300501 12.078804682825032 6.289420373706042
Li 5.198355657867527 5.633302958282697 6.239977176857821
Li 3.812399793179839 7.799607910504787 7.648786526649817
Li 5.857157346250397 7.54739130530321 10.93509898627264
Li 5.61305704176015 2.947738910277466 7.241321733828897
Li 4.296210578310371 12.026521423311952 7.460155545442698
Li 5.344609711041335 6.091934106790249 3.244635145593281
Li 5.304088325911172 11.289014482004301 4.46447985484823
Li 4.810097671669215 9.809010905865033 9.497431968386605
Li 5.485330767947152 5.143894337702651 9.372725490893925
Li 2.03496158689555 9.975473655139746 8.798125426373593
Li 3.844210414164401 3.748461761356951 4.78553155965843
Li 2.8949525652348824 9.762415130479882 5.902173636393064
Li 2.8719018632544073 4.947522390476552 7.617314014082929
Li 2.877017855861725 7.206469980889873 10.119555394570336
Li 2.76523404218002 6.690835235115536 4.971630898199234
Li 1.0630843680678164 7.516794787329671 7.4258577674086315
