54
Energy = -85.34818538 eV
Li 11.719744238822225 8.278139387146735 4.554368865010568
Li 11.26409024808346 10.481988136351683 6.719847072799955
Li 10.3465474883283 8.809506401604269 1.61382809529539
Li 11.656237620403704 7.3366956301211745 7.606801022120092
Li 11.405779321617102 5.113625791639349 5.312210448080124
Li 9.356383676364809 8.577929476721152 6.574351811055302
Li 10.534036983894781 4.421812760882483 8.375712862955503
Li 11.071115369815052 6.608545074093196 10.63345759927384
Li 10.001613732146176 9.350383742611223 9.36189427793138
Li 9.315099684886288 10.41234122194997 4.172438757682678
Li 8.894075899302013 5.793985128698262 6.0463472302524925
Li 11.202508192915516 5.9759316380569425 2.340068839881989
Li 9.302559645898487 7.38490785507164 3.7036595022165435
Li 9.117942768984696 2.762536109310607 6.226311012219594
Li 8.178762224191598 6.270634607987939 1.2788644477310327
Li 7.052238566468106 8.963515418243217 5.159288466243943
Li 8.907971852953143 4.186401683889953 3.537006385417849
Li 7.996220462587917 11.065525845119833 7.005780289629606
Li 8.566263768408934 1.930249667645434 9.211364065808004
Li 8.961204962385592 6.75384167538274 8.858034199374586
Li 8.18016304767952 7.566683205453196 11.515784407009512
Li 6.367888932308611 6.818459423256245 6.86144715882478
Li 8.584735540319056 4.549132534120352 10.887701794291742
Li 7.537758968851182 4.254174360893397 8.136529039779075
Li 7.262968066748601 9.091137105263916 2.2150581885022067
Li 6.958874477237578 8.873836901931181 8.882291650402586
Li 6.706871163673665 6.461287483567301 3.7378744329447664
Li 4.637629023394013 8.67796982714443 3.7126105753848786
Li 6.2655035492756515 6.061912715558276 9.923328862045567
Li 4.4594894111299475 10.440331095048533 9.801596997039299
Li 5.1330008591768745 8.037445531797598 11.612235173116293
Li 6.088157992944205 5.280672212835777 12.603395536137723
Li 6.043272086323539 3.8995169869105015 2.5007492109059863
Li 6.024144635228706 11.350881004965379 4.274447956477599
Li 6.97692522637436 1.5376582236480767 4.368054863051184
Li 6.572120455065786 4.059376862183289 5.370108281205658
Li 5.73948882569576 3.220927914054433 10.199116747565148
Li 4.1782043077813285 7.80389343184399 8.889593464846504
Li 4.947841079398099 9.957701817919194 6.792815918086702
Li 4.947669700253342 6.704963187337528 1.5644374582577012
Li 4.193646319777287 5.522484381920087 4.284474185621825
Li 5.982728004537421 1.9915860619809798 7.4084003605424975
Li 4.4800537784583145 4.843341213683852 7.529745743665285
Li 3.336326639750463 7.549027417806704 6.08628894043251
Li 3.5991407424793005 5.344632198653555 10.692537999368216
Li 4.025636290878972 2.719430055042584 5.2851839657702
Li 2.2278061905020428 8.266857506398502 10.818468636679206
Li 2.4863536765627514 10.115311843691059 4.993450514904555
Li 2.088939283358625 9.488283504335365 8.055623807561318
Li 2.7632596956802393 3.016065339027561 8.464095023265553
Li 2.0267967768069104 7.256568710306716 3.445659688136104
Li 1.764722723474998 6.215976692678942 8.503794882720456
Li 1.8220745990889775 4.852657286461456 5.930749109553352
Li 0.61467071955698 7.766018594965126 6.098176952590303
