50
Energy = -78.15853312 eV
Li 11.999046059181673 3.329355508807223 4.4778500690364975
Li 10.754191690917974 6.171153265362531 3.0831028593061833
Li 9.146487482952658 3.248363102386444 3.094728556474251
Li 12.235978951224986 6.400319081980384 5.684830922458131
Li 9.58383272617275 1.8860080953118639 6.036876362072391
Li 8.515573465999521 8.549493457352312 2.6728357443078714
Li 5.4252886331927135 4.07293955911832 2.8605762005707733
Li 7.75144775414822 5.793760948358604 3.6177744739580575
Li 11.41038261035653 9.17120599803149 4.325055757113245
Li 9.855841505407708 4.685260192818243 5.4036265043744445
Li 11.392514336463133 3.56521375660808 7.640259331438265
Li 7.058838855081548 3.4125056144331345 5.3371222753038134
Li 5.872445285759696 10.491424713125731 3.270710991667697
Li 5.334321323133181 7.223011131246257 2.53964031904852
Li 8.3990245504624 10.436308541708408 5.1192530642041545
Li 9.027735836137426 1.7237391769150299 9.25056482627917
Li 2.7730087540178507 5.576146025559571 4.039402427490281
Li 6.554543999756838 8.197927299101043 4.805612565827247
Li 10.284279866740354 6.482471350200201 7.857996272638722
Li 9.490936342956005 7.596538077695208 5.274738762195445
Li 3.8379078231187904 2.9609641229149957 5.415585369010471
Li 3.4578418875709898 11.98936107375907 4.916394839366339
Li 6.372359099294456 12.961891857535525 5.266930084877909
Li 7.564492080149629 6.073069040291001 6.567518757561247
Li 10.174093386946788 9.406923044842905 7.452976317918334
Li 10.068645918169409 4.542900294900095 10.326488327833875
Li 3.5238667803588237 8.787326051014444 4.500537491354132
Li 5.421209894462698 10.550918057144921 6.170183065657238
Li 8.120903164425803 6.652844141960953 9.505127340917165
Li 4.550510938654305 7.808315036446137 6.914112922793554
Li 7.541489287500119 11.520236989027744 7.908394189376438
Li 8.545532445187517 4.043053275533979 7.99927762697208
Li 4.5285088132663365 12.596284667304506 7.771621363553925
Li 5.716265791669555 3.12849957741489 8.014378283159608
Li 5.1275809536946095 5.59313209622144 5.266822911683549
Li 2.4863524625412223 2.4586067273464844 8.320771427139169
Li 7.419992631543904 8.634891641593258 7.52915681267991
Li 7.0483288057573255 4.266478972438235 10.61933527480939
Li 2.739483622018651 10.060608611349549 7.282243041262761
Li 5.648542215250303 5.884220846919073 8.481123524079727
Li 8.251471299208392 9.32541589122026 10.253622706428333
Li 5.2986239910375454 9.671099594092324 9.089415410905987
Li 8.523647143816268 6.658492729833552 12.24742782357041
Li 1.6505101021556474 7.100645003835618 6.53929768009637
Li 5.783048125618928 7.160479919646896 10.986147157678701
Li 3.81413672759558 4.562809006617148 10.245584881483408
Li 0.931976250339132 3.994857388275727 6.097703688668271
Li 0.8765478338596999 5.041714976683134 8.96419026364844
Li 3.012604079486832 7.3443353258323505 9.258483854844068
Li 3.1894617468360815 4.936367922157594 7.363035357319952
