50
Energy = -74.25632399 eV
Li 11.870056809960756 7.420052477424859 9.611326922031214
Li 11.717402382425869 5.942440610812422 7.258320555534283
Li 10.600898836153752 4.073481670958916 5.3941783806746155
Li 10.437855231337435 6.880058870276688 4.846259232207654
Li 10.354876214140775 3.745748089395389 8.467057734410757
Li 9.868438507018668 8.192287900495305 7.607010664638351
Li 9.230861869134403 2.243429889307006 3.642485088053101
Li 10.204313736225638 8.49302069726494 11.6361986516068
Li 10.121403570821982 9.656794608974554 4.767940700710531
Li 11.005955911332217 10.294388343250981 9.332512035958995
Li 8.700971989110025 5.049304613843181 3.245088434021472
Li 8.837798032344985 2.1082433940964074 6.719332897793257
Li 9.177061938764918 6.030665635081134 9.828166688101064
Li 8.46959459654013 5.5722797776980855 6.798201846049625
Li 9.558908983918137 12.524090188366616 4.575320345355433
Li 9.116628254531012 11.041627254000346 7.223097402857828
Li 8.157501833069192 7.8641140057660595 3.254556621156036
Li 8.24299677883644 9.98821517250295 9.97244360045102
Li 6.948978408534796 3.5828580303389725 4.942817408921079
Li 7.265201113292576 0.5199584105082357 4.887983754022305
Li 7.59162276817086 3.6151279130362894 8.945726807118415
Li 7.584936346898206 8.766599648467551 5.91894089894771
Li 7.496384412222956 7.672744525127951 11.68209694204731
Li 7.833926800223937 10.672667090394997 3.0080369041477133
Li 7.047495575824528 7.626188824110318 8.594327532205225
Li 6.8402658774740095 11.756654991637317 5.52314909074439
Li 6.313888188641633 6.047277932770501 1.8097449281957165
Li 6.145321488528586 5.487960782525239 10.476191182304644
Li 6.049921293475401 8.900555370542735 1.4853445767557998
Li 5.9775544778535465 1.9778799262849005 7.223193728029919
Li 6.260338023508324 6.407099777462569 4.846831628238423
Li 4.692316314437126 1.7865108431242263 4.544707582955445
Li 4.69071501598013 7.422966339021744 12.386937062255274
Li 5.380296929815991 9.579706012042463 4.139566245921126
Li 6.2416257227577105 10.579670546710778 8.04042144180714
Li 4.62942010640811 3.230678667627971 9.396774068328442
Li 5.469391792459156 9.73065780852473 10.726043441514436
Li 4.845300502784348 8.280549877877428 6.747496913205817
Li 5.569303449337847 5.215368024284594 7.410969676385197
Li 3.9118659919019425 7.34326495565413 2.955813866916048
Li 3.2629030927992946 5.145397512812204 11.162371232157449
Li 4.491167155291597 4.464672946722448 3.556692153744644
Li 4.182305128973885 7.385960292089827 9.450133906045005
Li 2.511182563785644 5.217988239757274 8.403701431423288
Li 3.322184182844827 6.04654705501004 5.63140774525329
Li 3.405238001580543 3.2697577453927917 6.594402319540806
Li 4.023476454204388 11.277127086149237 6.150428273169691
Li 3.395683707303059 10.203020333096978 8.7093034272477
Li 2.5410594364135393 9.00192373710025 4.8926575804209556
Li 1.9338583524377286 7.935219470857787 7.535875923657993
