54
Energy = -84.77024711 eV
Li 12.141453515805209 6.153691885810009 8.665164203002266
Li 11.175201440981409 9.332002527445319 8.658550353227726
Li 9.01776488018649 12.100342137701942 7.866411872030079
Li 12.699896600302928 7.891355564238176 6.1248652987819465
Li 9.511742242917418 7.106427501006038 9.858011811252009
Li 8.81768026793654 8.171939930440834 12.601334443604115
Li 8.478309368893779 10.17341897872467 10.348773395514419
Li 11.355577021370468 4.867184508613871 5.786180161491008
Li 9.43637296094702 4.623325857241557 8.220639687080386
Li 10.179877069379243 9.879098948239259 5.718807731908245
Li 10.195686954827032 7.165830536185422 6.924550493113738
Li 8.354209652973156 5.170073172418109 11.935217836513038
Li 8.38502483472588 9.141823166609315 7.911569942448684
Li 6.733167268812161 10.944448767286266 6.894102165367724
Li 5.984288985223506 9.812751265520353 12.025017892465653
Li 9.724909538871673 4.226365832607999 3.314295542430191
Li 8.131842175880285 11.868927421088761 4.768980068897741
Li 10.411893830620466 7.405881351364192 3.9540787785793423
Li 6.826631229435814 7.196386609028813 10.716647561513948
Li 8.67373954911764 3.193264409101597 5.797174260716649
Li 5.639283463176571 9.284219344080615 9.191686639384546
Li 6.078371388135286 6.97156141780115 13.333044767607145
Li 8.265623835301996 5.913893260031582 5.217586766019344
Li 7.2822795814888215 6.717792740328672 7.744881725787824
Li 8.227478480616867 9.496623716967033 2.659904501669847
Li 9.753252722467282 1.251843406098114 4.101822165325192
Li 6.1031296871485745 13.531256827308551 6.527430764562593
Li 7.717629868646743 2.6491688911336784 1.8836832675171442
Li 6.200069950056805 12.110550831042179 9.38129286853543
Li 7.64508542976577 8.641440612413223 5.138075145018606
Li 3.9592989990464966 11.123300304881525 7.155604902297483
Li 3.5023719302892244 10.72542762786208 10.235783053495906
Li 3.8658382145714736 7.777805097252458 11.118034002049864
Li 6.251204181397453 4.113449406857575 6.73737812948387
Li 5.2232032637680135 8.533320025843802 6.595464931677224
Li 6.710455273550494 1.5542686998814697 4.538343315326444
Li 8.02350116214363 6.390196460225272 2.3149649904547815
Li 4.70537627351152 6.1871169008384985 8.688048022128157
Li 5.406527587134151 10.55335661914685 4.363633780891687
Li 6.921650307313728 4.230386170118578 9.454803114353215
Li 5.253352043879415 6.193520779246179 5.367584253809849
Li 2.157431572524651 5.5091420880924895 9.672113253694176
Li 4.822960184973572 4.936567203513276 11.32076108683242
Li 2.7960073994451364 8.33479602438929 8.199624214903066
Li 6.906726044130049 1.5930855771559764 7.668552968458077
Li 6.356082298662581 4.28625011996133 3.6211829097728496
Li 3.07320945372228 8.259191705320049 4.874515950910337
Li 5.547274737556472 7.707027082909258 3.015194239518152
Li 2.857036285524095 5.564777333085301 6.590989984992097
Li 5.661112966680253 5.0746253808279995 1.053363314212274
Li 4.180841424502587 2.9457397833483547 5.383660649581666
Li 4.131018535206251 3.3246364049953674 8.536676289569478
Li 3.5554234111828578 5.254132388883575 3.3412581123001948
Li 4.671843821974635 2.4169616531666946 2.342869681244189
