51
Energy = -80.01792873 eV
Li 9.143777523257654 2.016095945952286 4.915174473009259
Li 10.130447801427986 5.271842109176193 3.9989720879134345
Li 9.51436698035029 1.8892334156446517 8.401802029688314
Li 9.353057697108518 4.369629783248473 6.688741071343355
Li 7.335673552484978 4.190103756211663 4.432500597519192
Li 5.659184715937947 1.6158621362202699 4.276478843090368
Li 6.9414814634022735 2.313682807599937 6.896245880836999
Li 7.459618221366472 6.821410584701143 2.801579204724426
Li 10.889948004454006 7.061998809122534 6.734775393528729
Li 6.667006145137129 1.2826312571589242 9.754794335034699
Li 10.623768432914938 4.73625990935731 9.463106263270989
Li 6.645393607424333 5.177080197168893 7.089009657002851
Li 8.99648589267765 2.7076850441693883 11.447997142515826
Li 8.36618015249593 7.084009832180679 5.444311354507948
Li 4.757092686749946 4.361373317292338 2.9076505950340246
Li 7.786462402824511 3.871270755303522 9.38073394533194
Li 8.61489162746356 6.5600197386446535 8.56422010504467
Li 4.522815052106372 3.6981777912490306 5.7604219894697435
Li 4.024808584817615 1.2368836188472447 6.984091393837483
Li 2.531255922913777 2.4582254997140836 4.444784558362303
Li 4.38155446405016 7.548412202270905 2.6210753809462726
Li 10.424832031942186 8.434628854912638 3.956020847320829
Li 8.01434954503955 9.841895095905397 2.3639716021023065
Li 5.457321479287807 6.34908779623493 4.904195944901073
Li 5.963924737506125 3.886517547994942 11.557172459167996
Li 4.82854299508076 3.5077087331239762 8.798703415309914
Li 2.609066269669381 5.875167861795123 4.815211783445541
Li 8.490004328433837 5.942726262802878 11.374094765036547
Li 10.641876035273205 8.198355920813109 9.736658118024456
Li 10.224514437004228 11.682425228480112 3.910936140599231
Li 8.493281535870429 10.00938290433129 5.211471443747411
Li 4.855546153295687 10.614121568613562 2.2934492386549756
Li 6.0207067196781425 9.176632248412805 4.382058970015283
Li 2.368040475713266 9.339310890079592 4.12553434130961
Li 7.3708366157726415 8.881451441494146 10.060518664651786
Li 2.085589210003359 3.8504810388144133 7.319896995068352
Li 8.912194679535844 9.240218391782276 7.727713260430351
Li 11.206886915301908 10.278376309693279 6.7342049496211
Li 5.9203269381400965 6.239602635406427 9.761213678840617
Li 7.1012563113998475 12.141339993593006 4.071098125335576
Li 3.9934403630235664 6.020982369105902 7.51389022927546
Li 2.996841936431032 5.533808049854711 10.096625885356806
Li 3.8825235475222715 8.457663030653732 6.120015809641881
Li 9.596762827408126 11.16544064350087 9.446091796626243
Li 6.262164158618183 10.754775686362832 7.456585335827646
Li 4.362465496114582 11.343868420068253 5.163266173950294
Li 8.908824406891508 12.28430709501501 6.698228722706238
Li 6.407064154164315 8.005687745073391 7.235432035226388
Li 1.559175886794309 7.326606356825622 7.516859571797615
Li 4.147244436872015 8.575459274158337 9.045151740292285
Li 2.4322316758629223 10.42494640948309 7.251138771162893
