53
Energy = -83.03101718 eV
Li 3.307913410931509 12.13090566288875 5.038787890679073
Li 4.0178653238005735 9.297861433493756 3.3731188708129243
Li 1.840065499755449 9.302986231371499 5.528830041454212
Li 6.52350711294457 11.182785211395688 4.670887038423132
Li 2.6521290050146074 10.775155802363642 7.920746666014652
Li 5.434194915708842 12.146498573741775 7.60485367385277
Li 2.3009375414554634 6.431479204183989 5.178077435394015
Li 4.462767024202396 6.201888076746652 2.6628265242561877
Li 0.978559084107099 7.487813038139484 8.063590040380566
Li 6.908030044616274 8.25391033669166 3.6731140392949717
Li 4.504089178497648 9.923183389121151 6.032522310376806
Li 4.8923935007921004 7.221075352789112 5.224293179637181
Li 7.455372899134198 6.239708584342912 1.5781597392668705
Li 4.042359951419645 3.919265425437288 4.732166350563016
Li 2.647651969591291 9.01393678077293 10.224687645905957
Li 3.6319218266706543 7.668682748081739 7.704212356137665
Li 6.976911749749913 8.761941006649874 6.556305376525354
Li 9.253185552089997 9.702381975497184 4.805334222247337
Li 4.291155258399649 11.577548070573144 10.565743247796835
Li 5.276903379253253 5.087699282009947 6.998733639935754
Li 5.389172963455248 9.618893708629521 8.868556850277779
Li 2.6281644322218796 4.653610092340167 7.606876361500712
Li 5.903673574956329 3.4175550490381164 2.117466421048609
Li 6.706430660986443 5.1958363143674084 4.241634511898169
Li 3.288956828146171 6.231565411299376 10.12744507374701
Li 9.515072197253836 8.631721929021705 2.0951840579937366
Li 5.355458664036659 8.679798595756488 11.48161269777395
Li 8.296323626507528 11.050410062042003 7.42077929813287
Li 7.251645851818582 10.947780554503675 10.48903956300996
Li 10.669154199017518 5.960286595299919 1.5472116805403813
Li 7.97549519172481 6.212813944153768 6.65800439745046
Li 6.235029549886352 6.568652165749493 9.433524602054085
Li 8.781187210007035 3.9218209340111936 2.6993293036550985
Li 9.393530167095323 6.571558759127464 4.115089030165565
Li 5.025775207721415 3.812942104892741 9.72204455420687
Li 8.274492684871257 8.626545555731495 9.080834666020815
Li 7.42336053247299 3.6475913594569676 7.959986211119821
Li 10.172108923112317 8.195352351953836 6.902649604243234
Li 5.428993495328674 5.716366841621774 12.221542125853215
Li 6.796076218987796 2.489358681731348 4.863293029903264
Li 5.1109411270913725 2.079020455184405 7.245454096695657
Li 8.05431598910722 7.378030553288108 11.678993467020714
Li 11.877178878055965 7.626562221237257 4.128685392063118
Li 9.239857784628041 3.718451007636823 5.6893397297546215
Li 9.375085466914166 5.956840668278663 9.03612315203131
Li 11.51930853051003 4.30154149828231 3.920698508738644
Li 7.777933140471549 4.369817742784454 10.821393339104532
Li 9.586842661129683 1.4678951952644395 4.0223705681598645
Li 11.222093742846097 5.418968684833224 6.654738161721683
Li 7.289176578674662 1.5356349570594 9.73700259476508
Li 8.496471407355058 1.1041834139079267 6.933727350620687
Li 10.004487205088271 3.0486990036470893 8.813436007234461
Li 11.535894089453077 2.2659564346465797 6.262495610275113
