55
Energy = -86.49402462 eV
Li 11.588045521470791 2.475061290803098 4.062490043521855
Li 11.985686788510339 5.257425437491399 2.745049697622129
Li 11.139494221770823 7.8057475818653055 4.318053388791763
Li 0.6476773805277232 1.665632552674667 4.559280117909014
Li 1.6461299330030477 4.553670409368537 3.1483100458958035
Li 0.1337033515058989 7.479952415087677 4.540669205534643
Li 3.297322090574863 1.7008240922091218 2.7687585630977645
Li 4.452393353060176 4.440398552891555 1.7432323007965602
Li 3.0033711381594017 7.249236406255938 2.667888736093806
Li 2.303024790039251 9.67141081419386 4.053423628943131
Li 6.406953311062077 1.9880153281312116 1.5846417260341112
Li 5.735450696431256 11.745492179766046 3.6748901644801633
Li 5.924541574228005 7.307430603094473 2.4354833993293132
Li 5.157362017923814 10.434458775585249 3.0277543591466456
Li 8.359737388540287 1.8032441710366518 3.9940714679329945
Li 9.556329022713214 3.4982868034000396 1.7478530127172007
Li 9.052505587875038 6.590038920794384 2.565959654133514
Li 7.976477595398614 8.981823177480477 4.118817396024729
Li 9.893308672234882 2.2198957309525085 6.637543954583816
Li 12.116927685694302 5.1032411324551825 5.90914244637686
Li 9.449272846979566 6.878048830486988 6.200047513012031
Li 0.2097318097574763 4.593050882066174 5.807570331465798
Li 0.5204122174231148 6.761719988062086 7.927776207276618
Li 2.252999126159417 8.864785370764688 6.808970656180869
Li 2.7635450838626383 3.274355623987973 5.353714739243698
Li 4.544565971134696 5.277131424934106 4.340831623805566
Li 2.4338615439280913 6.525506704787005 5.394575774549423
Li 3.5904135191491067 11.440048666844401 6.05443126270457
Li 5.473077277279955 2.494807159113215 4.210472617003278
Li 3.5333313708764633 0.6971343671424226 5.792697444310597
Li 4.86239960185027 8.628801063272475 5.009953768916507
Li 6.631494657568449 11.071237795938856 5.814039824176682
Li 6.567636011994814 1.1672393494951234 6.494413687946892
Li 9.907742752847552 4.6040044251587116 4.419701445591595
Li 6.997726155296069 6.461019157812082 5.030947974595152
Li 9.608562138365462 9.994186237328211 6.5079597171434
Li 9.90803494293236 4.827824005172812 8.072061011312732
Li 9.291170042931151 8.001006653996411 8.966557148133107
Li 1.15540479227023 2.4129604760851384 7.588659067352238
Li 1.723896956144237 4.486168211004127 10.099113371902654
Li 2.234128037707107 10.66179263349407 9.042886663116159
Li 3.9919814129142233 2.306863610850984 8.543216673449583
Li 2.7005975936044644 4.9530540038946125 7.674252005875783
Li 3.075772675473726 7.523492675929697 9.386825634037866
Li 4.760569949363653 9.69936914350914 7.9683943864431335
Li 5.2309844637821925 3.9098611597896546 6.738456894102199
Li 6.230607345105825 8.012885895054316 9.83640970391037
Li 7.573273116246619 10.792666783896063 8.807450688427004
Li 7.305821841558836 3.027974484615822 8.769359490351507
Li 7.814848019017268 3.9282438197531535 6.0615445647235395
Li 7.288006259237225 5.910584033652709 8.11007325697978
Li 7.234861243199938 8.623737897856664 7.099216397847394
Li 4.874505965720997 5.039563791765316 9.633278060270516
Li 4.843794244538052 6.801388240788576 7.15860104225574
Li 7.1340027028736825 4.454899200166265 3.0677018524391313
