54
Energy = -84.91724659 eV
Li 3.34453118470942 5.349066412677957 9.485728653042703
Li 3.903529517474393 3.0520126367202716 4.4053943752991245
Li 3.527714422441218 5.19606183483944 12.553816511133517
Li 4.350146705767161 2.7080700462822223 7.646536855692169
Li 5.392224194453916 3.1530108045209695 10.63566024271549
Li 6.018662914322768 0.9295027791212771 5.581675415779921
Li 4.838617207940255 7.638089728060258 8.45860117263653
Li 5.773183704934423 5.9677836607477 11.05050008306678
Li 4.127186944715534 5.632682798546095 6.285724442120168
Li 5.783416897228885 7.521939988993086 13.468027145623106
Li 1.999757105889874 8.154230950812208 9.014928511540825
Li 4.123399340809715 4.15376227741836 1.4250504945789206
Li 7.483254667580051 2.254474575830997 8.072012943450453
Li 8.33618778977911 4.285936876180887 10.108232863475811
Li 6.099246493737049 4.812748892897793 8.37132043010378
Li 4.832095565309631 7.800208967097136 4.253493928419852
Li 2.668784218738438 6.064876233514708 3.535239032653497
Li 8.414626829495141 7.081507502049639 11.855174192123332
Li 5.436370536258246 5.271836747541315 3.472450382072877
Li 2.846365053049415 9.333305563489251 3.322985033222015
Li 3.724306054679348 7.972972480158923 11.297765249632304
Li 7.830025257963011 10.025552380489437 12.809617455249661
Li 4.673614015592944 7.369061054412063 1.4625392528152972
Li 6.357814292225253 3.6785063115918892 5.748852870881005
Li 2.7767926853320386 8.324532766365422 6.19151325579984
Li 6.609255670224865 2.5778159847838884 2.9570993942883304
Li 6.901935365885089 6.864968500169552 6.026486342233597
Li 8.838511385058245 2.2791532757712702 5.366334072183631
Li 5.3624944000268995 9.49682305509299 6.204046302405686
Li 8.930364676881567 5.031908420740246 6.911534713777211
Li 7.422905168111145 7.665613259634401 2.989664535040595
Li 4.286550500531004 10.408179689943042 8.870703017322962
Li 7.682805528409596 6.964976780325079 9.059384684827082
Li 8.208190983204597 4.91078762786011 3.945214601035924
Li 3.4497765465566976 11.290585757308843 5.774057263914618
Li 10.711969282794536 3.3009431226859243 7.811741304595772
Li 6.383314624339908 8.907701895393549 10.788679629532293
Li 7.064843334348999 5.253221156247437 1.166611913589369
Li 10.44258143498918 6.287222798696026 9.425586210531733
Li 9.517792836961581 8.132087062320622 7.337528328142873
Li 9.870503374195767 7.099740448794005 4.6524543061960015
Li 9.326448378679874 9.411973340975901 10.12226810480642
Li 5.708356205005217 10.446648356677157 3.553176295352003
Li 7.191969360216666 9.652782424315227 8.14079361971628
Li 8.205855436211591 9.621978984146585 5.209006456403968
Li 11.012114468854426 4.311176159694288 4.586594467127895
Li 6.390055985388776 12.059927675955619 6.7805510729231875
Li 11.748446289283038 6.195718348649303 6.642633410445538
Li 9.388735704057405 11.252683166499825 7.536735602101735
Li 10.064256566319028 6.021980983956264 2.0175122987478074
Li 10.151028836653554 9.082664866176037 2.692595866186646
Li 11.381092469191444 9.366494701579354 5.5340894510537275
Li 7.206441847694648 11.727250845459755 9.943466345181672
Li 12.435476813251906 7.032802409417318 3.6642330711898854
