51
Energy = -79.4483531 eV
Li 9.765421261549198 10.217761884599634 2.7824305945409913
Li 8.45920121440475 8.11895728611882 0.9680730215859789
Li 6.573216336730794 9.931441922620083 2.8591726316012642
Li 5.039113753523339 11.553368032414674 5.100538713173326
Li 10.925445731344471 7.375053501860525 2.633385339504904
Li 8.31098758715499 10.607094336128492 5.376554868591539
Li 10.671825979127979 8.460901274819964 5.311789059411954
Li 8.279225200332151 7.9985988195506845 3.759241617389253
Li 10.065193848529647 9.621189435582329 8.075980883738666
Li 8.913696456886436 5.287788333204169 2.473474737369111
Li 4.097292559319917 8.413382730499636 3.8735986717484656
Li 6.11907246134194 6.725123348151303 2.2549804863717653
Li 5.857005044453847 9.146245407085946 5.865553923112734
Li 7.189360759493608 10.728563577844515 8.083427494667346
Li 8.166047285269348 7.883333823304386 6.877782262163726
Li 11.600932867746245 4.963049779025553 4.530552928702007
Li 11.324849526542643 6.5336090572838526 7.527462818736915
Li 10.216971927404073 7.623634135380431 10.358222540271878
Li 8.789887067412995 10.630012548942933 10.693467473530099
Li 6.468048068683549 3.866628049935831 3.455190467029292
Li 4.332571187198233 11.094946029888678 8.082063360656392
Li 3.7010954974095984 5.4150034862511855 3.4746867519011957
Li 9.249236868820189 2.800738748742313 4.296633758479527
Li 7.61230461085459 8.276424190994703 9.665182773713001
Li 9.196931523697247 5.650154853835807 5.315002001633909
Li 2.738985674344947 9.172861247354366 6.503240973349629
Li 6.22832440202953 6.302268169601792 5.218185205052332
Li 8.88770622528456 5.679085580485886 8.41985963713422
Li 10.410004198328512 3.5840730250861874 7.1088698069208975
Li 10.80952751075123 4.5745576646740815 10.07180316896247
Li 7.885574933055878 8.35332928479236 12.429501619891198
Li 1.373456785434649 7.1212522722956 4.527271112298237
Li 5.624901686182306 10.077566767651442 10.740485238213049
Li 4.991356985258805 8.317971879179836 8.374997754398272
Li 3.5449763971549366 6.414318245617133 6.32982722116599
Li 7.478035590043084 3.6883591043901913 6.404478476617258
Li 4.611773013718331 3.661289049727818 5.671458334111286
Li 3.71386400156133 2.421834109426568 3.3064095996572287
Li 7.929539171817205 5.567002324336636 11.057419325513386
Li 2.6470576857803274 9.094474239462379 9.655610149700891
Li 5.975857487462806 5.47462844148787 8.21614485521928
Li 6.206550414985153 1.343825495133893 5.07327860881112
Li 8.110843280774379 3.0938787375932977 9.284175904795099
Li 1.7532451464466297 4.142141461973907 5.401828386456873
Li 5.358122986392916 7.1019251787651925 11.178821798205677
Li 1.0769295717665408 6.655887920180738 7.5477072415421755
Li 3.1988795812390594 6.225561269614672 9.496694426079907
Li 5.490573853200962 2.1863250671723975 8.01068331408561
Li 3.169872343204185 1.3884249772716675 6.129475848035699
Li 3.0079526461911517 3.7957001327972217 8.093106518298343
Li 5.237873288899928 4.004955846100451 10.517964851859873
