54
Energy = -85.04786524 eV
Li 11.501495657430446 6.839130358178776 10.326462538515734
Li 13.004391090105376 7.467492634865145 7.629651857329922
Li 11.647643450044045 4.43925317207455 8.026597140067693
Li 10.575236735105108 9.434336328028191 8.618712923750746
Li 9.264318473280252 4.647672513675486 9.856111917928969
Li 8.534566053074439 7.718694815009119 10.287736347184326
Li 11.045677815288283 2.6576616313056 5.441516133511432
Li 9.137407288433371 2.3984028672777815 7.945904096869877
Li 11.420477587424607 5.8630052896013725 5.307132881816632
Li 10.358013637843467 6.894563727795109 7.821621063523098
Li 11.130863546003592 8.962158223252674 5.528986183716122
Li 8.135257577672814 10.860417937904579 9.865020366687258
Li 7.201388804519373 2.190199011439201 10.574390916114877
Li 9.162324664322998 4.517880552676664 6.1917188143399144
Li 7.793602511314788 6.091746439980553 7.89881609156559
Li 6.7704861263437905 5.327370801588954 11.282906082447322
Li 8.629430616557643 10.7622681235523 6.532209567495663
Li 9.553065534190534 4.2464253274604955 3.0700998500924497
Li 7.28903277535256 8.927096097761698 8.089896426078548
Li 9.962351607236524 7.235359116468298 3.1226758415045786
Li 6.394027044816566 1.3249325367243336 7.286842922560311
Li 5.5295478626500945 9.042839292534627 10.501283692820866
Li 8.607941468434511 7.84413513846969 5.731376794353689
Li 7.878448358723931 2.3581978812017135 4.787295651540291
Li 5.532245250902232 11.293423425837318 8.035662045850621
Li 5.794197995181913 6.866326692139468 6.220511530257959
Li 6.503411348802911 3.82822531749802 8.627093995482797
Li 6.042990047672462 4.068350684557334 5.998130546445937
Li 5.917476884519107 9.666703887797999 5.437698363558845
Li 7.562556185555831 5.794027792280876 4.181477023934737
Li 4.324814513307927 8.767496150265186 7.80491289673404
Li 3.761311372711154 2.6997414093835777 7.528897201224411
Li 5.464361371727886 6.559624913099598 9.139124378421364
Li 3.536877201235802 5.468371494291279 7.323389645884372
Li 7.37582290764191 6.675894637101306 1.4932347966404522
Li 4.0772222572026715 4.160757457844847 10.117952827579122
Li 8.050598411136825 9.389320061766837 3.4365878661231712
Li 5.993044324711834 4.0712982718841415 2.59949456770876
Li 5.572987190016886 7.66785923636293 3.496752701072119
Li 4.047063621562351 5.316248467539417 4.253465111998758
Li 4.46384291917367 2.2438859538518696 4.579953951665058
Li 3.0770934561570207 7.936225268530696 5.489982804170584
Li 3.2604449106197366 10.810063503084832 5.623282752173009
Li 4.0989113758502205 6.478975964213364 1.4906591489520609
Li 1.665875279674643 9.56669820895074 7.797720836597158
Li 1.295920378957219 4.240294622875296 8.555436637904526
Li 1.8188960281042308 3.968103316464137 5.4001338319002015
Li 2.5688266056740288 7.028472082199794 9.48291105452734
Li 5.679235264745854 9.324036552613329 1.2877763253359638
Li 3.1825079110854135 9.139692278980055 2.976379670142795
Li 0.9140456938911907 6.699625274892335 6.725248349863373
Li 2.747592672203502 3.695034710272202 2.371481458118159
Li 0.6825459141920054 9.249178852245581 4.848533935164384
Li 1.5553248634019377 6.476854271589374 3.470905698295146
