51
Energy = -80.13772665 eV
Li 3.956937728146418 5.540513094082128 11.550064774936823
Li 3.3588448556951143 8.352171164592203 10.05127675082941
Li 7.090907166742826 5.049893552648301 11.081689393448535
Li 1.7207173477464703 9.669324490338223 7.536241973159312
Li 2.451873162191108 5.252413729095535 8.688140308237466
Li 6.2394590433376065 8.035768451301536 11.350040699450368
Li 1.8922881465530117 9.55106404692488 4.458808471291121
Li 9.794193215823643 5.006017885416169 9.471818920245436
Li 3.5999603531046493 7.550719484769697 7.4181874273673385
Li 5.936525495528648 9.108413658609045 8.336446995314114
Li 4.139705740770504 9.959822459733305 6.279678312049489
Li 4.766584620177614 3.379744838075008 9.171655539335081
Li 7.990186726991495 2.335193972088082 9.336613292741223
Li 5.175712398439098 6.252245917460218 9.266120752785865
Li 9.3016267398976 7.466183334548745 11.5702542818305
Li 4.20689461532255 11.339118921876365 8.731303622053415
Li 3.81721148320656 7.6503276269093385 4.785894732804026
Li 11.099734710571525 2.305760863991076 8.572029468493337
Li 1.4874410206593551 6.474378280699331 5.950787523911959
Li 7.106523684481591 4.705591420098129 8.096996460245428
Li 3.235452150439544 12.353024608302551 5.842986271317256
Li 6.422813018494286 11.49066863992965 6.291533753975389
Li 7.98434024165173 7.2954467393452544 9.211611467466668
Li 4.652019167796435 10.614624118482125 3.457051420060628
Li 2.6726373609202874 2.9258485400747016 6.228244739623699
Li 8.326977037898935 10.016167067760925 9.846438769141075
Li 4.394371452304505 4.93775709500477 6.319787528718773
Li 6.325312317043907 6.972015688925057 6.551522470226502
Li 6.344923714505339 8.929399509058266 4.766670409958459
Li 11.70370989386571 5.101343757995145 7.038472742903029
Li 10.7160243853325 7.936079819123897 8.667143783993652
Li 3.5587816469196576 7.781469562788382 2.0781852169701494
Li 7.339179435394903 4.677799539455773 5.162744280101078
Li 8.389825019360988 7.194323593595892 4.172115342968711
Li 9.297919654214601 3.375208739733351 6.830064587939274
Li 2.8612023524153485 5.04372659196272 3.657306605356773
Li 6.21525447047809 2.3436483273104796 6.600510885036421
Li 8.541802519389408 9.158872430512323 6.75250625586414
Li 5.581013362609347 6.087951400898496 3.5840820973988343
Li 6.783523426791526 7.992825226051213 1.8428340649345418
Li 10.248514222727287 4.95419930299145 4.287378476964832
Li 9.209157086259417 6.332841603666584 6.78822893005644
Li 5.200380359130263 3.1844177784984122 3.789733216317842
Li 10.966277590270904 7.9199600196940985 5.177849008894981
Li 11.365149633791981 2.2522402281918628 5.4787155774332215
Li 4.8440949233563675 5.086445752069486 1.1640519900716055
Li 8.698237487855351 9.985314575311476 3.585091159152562
Li 7.852338611547843 4.9677226568976565 2.2218109841370235
Li 8.995283681829594 0.6802906882738181 6.853116556250455
Li 9.980866008310398 7.450805044926064 2.0462103838300414
Li 8.42807245741367 2.2693698465954824 4.210125074186169
