51
Energy = -80.01424692 eV
Li 11.9288678397549 6.34313124315419 5.151724635590292
Li 9.338362122532414 7.659588805756778 4.156473551986024
Li 8.175754767011904 7.921867116497638 1.3743781610799555
Li 11.790513713971798 3.4369586350795998 3.995309316232905
Li 10.478444650114223 5.63920406009069 2.2369136125002593
Li 11.510969470703746 3.7375628228115585 7.005346313843835
Li 5.491215917507791 9.519433007816218 1.6259593614405718
Li 10.090627359725001 6.366283573343004 7.584523603899519
Li 9.757625590932157 9.24008618341061 6.385344086510841
Li 7.870163338867725 10.324284476613496 3.646185248428464
Li 8.080501684232601 4.859829989097089 0.2971412189957357
Li 7.750071977055282 5.535490371200949 2.9859349462527485
Li 9.69346083451786 4.7428824021227 5.093946745296624
Li 8.391145346492829 8.418455739764257 8.885635869080604
Li 8.937141961335403 2.9049505602623364 2.663544632426208
Li 5.469222403044474 6.325049627830348 1.3556146431142257
Li 9.371354540349653 1.7730697478089816 5.522834773550877
Li 8.420227738030212 3.724191607873603 7.644364095890654
Li 6.4023109023788045 8.034493680583065 3.7839728151086414
Li 7.471379522468062 5.679357805579298 9.585461110977814
Li 7.11018298778089 3.4436262090592313 4.966602299803162
Li 6.792083294136312 9.436207147447323 6.476508152847357
Li 6.708863124491452 8.077303217132073 11.426818141174545
Li 4.563268008435483 10.124053401953244 4.5596199629240255
Li 6.162313728407935 10.349226364267714 9.401813693553583
Li 5.649801614593232 7.6272873851041965 8.778632128640265
Li 3.7743596624437616 9.86754734034492 7.610703061453231
Li 6.714223382062271 0.9175010065895083 3.9526700558832055
Li 7.558699463007403 6.626654604719095 6.247271438093202
Li 1.7848891218249059 8.570494615920833 5.391540090529247
Li 6.265362100026481 1.6586746983733678 6.940163759465971
Li 5.915052059989301 3.3978987192608723 2.1692945786146054
Li 3.7318699666318778 8.503099867127887 10.531313185937798
Li 5.711773475506324 3.262335617963903 9.539828616980456
Li 5.584197734938863 4.772587943340141 7.128278668126738
Li 3.5188306513293717 7.563502329200537 3.2339921327034475
Li 5.1621473381585785 5.471205600390643 4.283282831319181
Li 4.8073189825377325 5.696238484451775 11.348302316593779
Li 4.489446315909646 7.566598562470727 6.1952818071325675
Li 1.886883919015614 7.573945642681435 8.195699014654119
Li 3.037273815662223 4.556207994805039 2.688074700314731
Li 4.228694084979484 2.7864949679097157 4.777183223272716
Li 3.578376385339723 5.529245943914603 8.93944546602707
Li 2.837753047437275 3.3669260551512292 10.560086364453964
Li 3.3444069612674783 2.9240873805995555 7.49433262575095
Li 0.9178319007001421 3.4635349644110756 5.2117752529818615
Li 0.7497812611315662 6.247218621118519 3.638728426215633
Li 2.5246151579134124 5.523756373781293 5.823146089936347
Li 1.6621289929060312 6.156785044240895 10.93238837551093
Li 11.9288678397549 6.3093181805320615 6.357030136082624
Li 0.9774251411970922 4.495202644674222 8.312065562117589
