50
Energy = -77.86789675 eV
Li 11.684426986492383 5.072087419363627 3.7161093933968052
Li 9.06811252667256 3.8075261701803194 2.3294873881897757
Li 9.790609177961604 3.249848148205352 5.190140185325904
Li 9.864010704567434 6.891046838975161 2.02470833983649
Li 10.615708096397157 5.531036594911725 6.8135834514565055
Li 11.569721093867441 7.935109886244914 4.878419377342525
Li 9.272346678614984 2.1240769849644594 8.06398383331279
Li 10.90859840274673 8.254438320784912 8.119263377559454
Li 10.815676207650485 10.838214771384372 6.056811284709459
Li 9.248223065228641 6.265708182156129 4.5331259900491565
Li 9.591399806085498 9.644824061340508 3.3715701284467476
Li 9.684032179608023 5.299468916249864 9.66582152460785
Li 7.844209084859569 4.251682788168984 7.165955098902447
Li 6.9528153538015545 5.8889030784398075 1.6627373972948523
Li 7.254302229024152 4.564226157462058 4.2466185138957195
Li 5.850344760933912 2.0656559294336887 7.932394638185167
Li 7.289908943993856 1.7608307668715142 5.285163881483197
Li 7.300087557036703 3.5016914507280066 9.971793231908894
Li 7.023804112728893 8.097547585727195 3.681209160640208
Li 9.002313818875287 8.700808557305914 5.936715823158451
Li 8.21701767861963 7.067693755435564 8.116857088739028
Li 9.120600030894023 8.346063907321694 10.702072134580401
Li 7.71961594601091 11.25950494835463 5.349997830525238
Li 5.250098471901018 5.233555152795572 8.309219576386443
Li 8.82353253820665 10.38766274282519 8.293238197930183
Li 4.195890871439432 1.126769888020408 5.248870103472463
Li 5.140488793391339 3.6790884409521376 5.665352928454101
Li 5.52523693293492 2.879334793088322 2.8270810526807706
Li 6.602615367861922 9.019366162246522 9.536527180787028
Li 4.558388056999168 8.108991674781096 1.789550567215945
Li 7.572973347880605 11.24280623677127 10.995991205078067
Li 6.806847076955248 6.282080191888886 10.55455677186799
Li 6.280710908388009 9.312718899903572 6.7189928225461575
Li 6.365500050965705 6.576496022003774 6.052236793562917
Li 4.756509536876184 5.852318638960085 3.5209410390003337
Li 6.262582905741155 11.769730115308814 8.25580334588351
Li 6.344888457234683 8.771211107162225 12.328386278647088
Li 4.242825313120315 4.014754808015547 10.492070502450336
Li 3.0461687608358377 3.200146694326089 7.4767746936253126
Li 2.7380155841944904 3.7045219696264 4.273135584807138
Li 4.1714856104805955 8.052230930230511 8.086751200725645
Li 4.477616766606688 10.427161488043303 10.367221603245282
Li 3.429261608554089 5.979808262668825 6.049371944741954
Li 4.193502056267164 8.582516420912771 4.812905670881224
Li 4.086669882422753 7.284631359720491 10.802256527312155
Li 2.0453003673636663 6.859885588067124 3.566402074085708
Li 3.5796418718822824 10.611839497837417 7.272022183112714
Li 2.2494484411231723 5.960443784110831 8.78815427546182
Li 1.6709648297829802 8.209602593772976 6.538354791467445
Li 1.8737834188241187 9.016818241527401 9.483593093864155
