55
Energy = -87.2411043 eV
Li 8.639600070308854 2.3062549853116923 2.2662754475567954
Li 10.116024818334308 7.350687411066091 8.092727687092626
Li 4.633830632865394 5.004684625411892 8.416597963731055
Li 0.02369334285250478 5.449410763735838 5.892806299304485
Li 3.624981261669795 3.8562264335325196 10.855542829493979
Li 8.186267648524868 5.379550961079959 1.5021724510825192
Li 10.398799992718837 4.47019657230352 6.983411584939747
Li 6.058742629620194 5.850791719126758 10.799157644424186
Li 5.714555141626065 8.906313637387015 10.16354612050875
Li 3.75438270050295 2.8929199507402217 3.558226846032546
Li 7.731379109115692 9.907582153487432 3.378773076287189
Li 5.3379159168373445 10.689382854615031 7.62819390939194
Li 4.639584850097923 8.765594376900287 2.2115665602245858
Li 3.6831105263163777 0.5650444048006519 5.246056101806364
Li 1.4784984412580464 4.69139507786529 3.386173769846639
Li 8.806179456829442 4.921302831042534 9.622462956313473
Li 1.8452139096226443 7.644328358619441 4.036868245718368
Li 4.948410872695675 3.247634822907537 6.020557911162755
Li 6.85884484691056 7.201323291696224 3.263946196408141
Li 4.160258577900738 0.7766657723786862 1.8937977733528206
Li 9.73122076536733 7.6260679898215615 3.031051197118154
Li 1.805280324052336 2.906242952462822 5.859268253749573
Li 8.565886140489892 7.772060497185429 10.831632479093498
Li 8.210475041480466 9.79063171072152 8.474034591379022
Li 2.730697360743574 9.986446214274094 6.130534458012019
Li 1.7811824911859253 4.623833681714267 8.446918433764708
Li 7.155467772071221 4.190391676402176 4.0339947144597526
Li 6.317992292357978 1.3790227543082114 4.003915419182935
Li 4.4312446473777465 8.137744251103852 4.929156505892264
Li 4.332024338614133 5.651339027700956 3.2417119123964695
Li 2.9864418558757535 3.714776230794888 0.9789675279934004
Li 7.56887123815474 4.029247323826656 7.196033007920828
Li 3.2083310350808776 6.876792696174653 10.133508806056096
Li 1.3963075824337345 1.6278504290757951 3.0413387555971516
Li 1.6535794404405257 7.528796185451218 7.405228085268328
Li 3.670026269574543 2.0767456234700195 8.2179107201147
Li 7.200672632479125 6.986299322509787 8.381899575337995
Li 8.87065520404822 2.2318681348379052 5.423679529712388
Li 11.67550634530613 6.852556710169293 5.4305953355712235
Li 6.321509754611332 2.979454117575467 9.536241680772427
Li 8.789709539322097 6.524931480551023 5.626624722478281
Li 9.130566528991205 2.0335989103536654 8.491711608833326
Li 6.948852537410984 8.950214101574536 5.9832381891773
Li 5.179605766723532 10.84313660510388 4.556104917506167
Li 7.821181355767166 11.67856577064068 6.006412693183127
Li 2.864654338363543 9.848532020377277 9.275409851755073
Li 4.416014902570008 8.003655272840186 7.759607380419958
Li 6.43120161205035 1.1450173207120167 7.074598812815198
Li 10.01908542544242 4.624165505416517 3.8758469404509808
Li 5.264606796604056 6.149493518991343 0.7066828296659735
Li 2.925973507728944 5.563599831875091 5.8626407411725
Li 7.551331358716784 8.32132789439966 0.7781460221144284
Li 5.880231279341573 3.3330806776607407 1.6002219246861922
Li 5.905658572033177 6.025523880821358 5.921934778341951
Li 9.807346633106564 9.299366107616793 5.7240036558526155
