52
Energy = -81.43385534 eV
Li 11.011862172528348 5.646984903567059 4.177060277771847
Li 9.352311869472715 4.458628448546163 1.7404078534757592
Li 9.63283287961635 3.240857582252155 4.778389608462373
Li 9.744898129610903 7.86342523061468 2.8339821321316694
Li 7.3301737914768 6.886850809259421 1.0436779494449804
Li 11.519921297977291 8.180381826856385 5.996568693173189
Li 10.55091777017082 5.391913479647872 7.207005564318429
Li 7.331671499802242 2.42752560317944 3.3107975461976875
Li 9.96301248450699 2.330853634919176 7.54690065284419
Li 8.98202024466338 7.248281733817235 5.6617412212076195
Li 10.354121120229708 7.332327392253316 9.721923592014837
Li 7.861343383549005 5.41049045111264 3.7360655906439453
Li 6.040037688014636 4.164330152701227 1.4913359906141694
Li 7.29867473749655 1.3984109945760872 6.0532549294969735
Li 7.620282719116806 9.322633574768899 9.94719789085974
Li 4.302479798258311 6.309770377470403 0.25577605393185976
Li 7.0669889021325965 8.384472146601096 3.7600956937250736
Li 5.135455134154044 9.121446051766014 1.6116108519501733
Li 9.352610021704978 9.324836084496722 7.737567631295174
Li 5.138799756330045 6.462017518101295 2.857962288993896
Li 8.098466941104626 6.734122941622441 8.34097981015191
Li 7.775045676317507 4.120945439352258 6.831869098282973
Li 9.206764647703944 4.354610912049378 9.758158440130593
Li 9.05915101514028 10.153906420879698 5.02648394407816
Li 5.368770061618231 4.028289449032405 4.773391917322079
Li 7.418581468741176 1.876193065035104 9.10296961064261
Li 7.088053926143855 3.426772836190844 11.89222207773808
Li 4.427913906470613 1.536985689368716 4.230569685828038
Li 4.859484740324173 2.51830812930837 7.32441478346005
Li 6.249873790630758 11.101795117553161 4.4053648549026505
Li 6.294374416576501 4.436026255543967 9.375857847273222
Li 6.533313063976292 9.208650477362147 6.783857562632359
Li 6.116910648685195 6.5443620142676195 6.0239847637481905
Li 7.193041196680119 11.65904828493704 7.524963268562763
Li 3.243437172829325 4.230053341497281 2.698003011563487
Li 2.493634142569303 7.411014789157026 2.4787507104100825
Li 4.641461607348085 2.413849359029804 10.320807446682304
Li 7.6277652769388755 6.487029836741364 11.279071080204398
Li 4.666098925988106 10.112352402044953 9.223277848473948
Li 4.344167023567028 8.854992448099456 4.459412661783794
Li 5.579370027967044 7.373765658634259 9.21990590113829
Li 4.192705240051174 5.33308875372714 7.694233232570277
Li 4.617400529508422 5.338193505385675 11.344928355634334
Li 2.4790832500746145 3.5793594939841347 5.897125946840606
Li 3.677417365040758 8.227985351405726 7.160854609748409
Li 3.9596259382226924 11.022569654305759 6.444044888279141
Li 3.206582169207393 6.2413799553647245 5.009837182451724
Li 2.4164992573068838 4.153939410752274 9.211678992333436
Li 1.6064587760645708 8.923916137354668 5.201256874821295
Li 2.7850920661697893 7.322199103457256 9.827810969970361
Li 1.673504686780971 9.67789238148363 8.209235365701138
Li 1.3598894601068403 6.491134980490497 7.242285307457851
