52
Energy = -78.41403246 eV
Li 5.476117444065296 12.392812859400255 6.342961095220712
Li 4.503385122078106 9.936093227662246 4.767684030753561
Li 7.173956021503535 10.888393325270362 4.569041858705616
Li 6.077637321789374 8.930877818947776 2.4620691287214123
Li 1.8675876500683584 8.875266628888104 5.515239481178954
Li 0.4567415230467547 10.239757773721745 7.669363631508659
Li 3.159337695731279 11.037402225420845 7.059895197851611
Li 5.1275526387518235 11.292607068424857 9.310275663054565
Li 3.638956940504354 7.384068500981881 3.701179430518754
Li 8.173282448381205 11.918849487627618 7.262060152295264
Li 8.939101094235838 8.882404065473963 3.536086003922387
Li 6.121094725973523 9.604958863270094 7.179492897934934
Li 0.9770755489717027 7.376824107244977 7.986678504965873
Li 7.959730413690626 6.428451742239372 2.6364085716817733
Li 6.4393472788242 7.647378112765477 5.070253342968602
Li 3.891369454924632 7.674329292022288 7.16592413772435
Li 10.037424650189593 11.003149136510645 5.173507672964245
Li 1.7966684275343978 5.88185025053817 5.708578930812351
Li 5.42150095590689 5.356289735343202 2.689864688605281
Li 7.747034537127326 10.207333987189301 9.566269986934115
Li 2.6215808155894806 9.515725791636022 9.518178731238692
Li 5.347477772242661 8.393133142732092 9.771550480732525
Li 2.7271365727995245 4.449983904740437 3.3591116369705527
Li 8.903362786719835 8.869367320581569 7.035706399689267
Li 4.688386592098562 5.313535378061448 5.61147642917609
Li 11.379200794322585 8.36876853157934 5.081247757148373
Li 8.977893891544513 6.464046471003516 5.515742518734761
Li 2.808903244241158 3.0430008160754856 5.975791199434234
Li 6.337195736944209 6.310518832436537 7.901905353805411
Li 3.0356469336687018 6.588683972047194 9.834098279992128
Li 10.837568618528294 6.549212897236214 2.9160529030623823
Li 5.2621740771950245 2.8981427167578624 4.185111459324227
Li 10.35916436226408 9.106106076458353 9.66843037435838
Li 7.262660258998078 4.152918120067636 6.113759022039746
Li 4.033394094238513 4.357080712424742 8.359777718158949
Li 9.374929838120746 4.114416283941326 3.883236331822868
Li 7.964669563538618 7.33396727444996 10.072404999914296
Li 11.754792493396714 10.050122148311969 7.349175210951236
Li 11.340295350653058 7.154629183607124 7.727285473233625
Li 5.567977295969688 5.535588865007943 10.727810917684433
Li 8.998505050609097 5.3613666078528155 8.298440057992842
Li 5.243053181309927 1.988185789940397 7.021460881444946
Li 11.668931491376497 5.257507544572577 5.593488412967534
Li 7.937757086170745 1.714958750322383 4.582281486004864
Li 10.731494282711875 6.390267655497726 10.49706986464734
Li 6.710744169278782 3.5205286760773893 9.108445256307137
Li 10.005611542275409 3.1774653322491884 6.579663996725356
Li 8.33910722232504 4.6936889361977565 11.321832479640198
Li 11.895529601467725 4.386543510058059 8.550287441982583
Li 7.951970353534866 1.396413594308599 7.430942691510529
Li 9.503273001007644 2.674523683564222 9.483190631279125
Li 11.30094485907437 3.736069562141845 11.442989671385252
