53
Energy = -82.78517168 eV
Li 7.41973657275064 5.612675536862347 2.3709010290781283
Li 6.337032550288732 2.85969982289908 2.27820350584519
Li 9.891271083139536 4.023717191528381 3.4348081329076385
Li 3.1473390855333427 3.1543103485826784 2.631063317332246
Li 4.758286543288967 1.8159112996096223 4.967191564980976
Li 12.435615371353784 5.844145985120805 4.0035976350126825
Li 7.7499199058540835 1.9017605081691291 4.843749748780345
Li 4.535277885793508 5.712490183767114 1.2959771946966834
Li 9.992136425106791 7.062538704370568 1.93457431952533
Li 7.699688028282049 4.632322096288448 4.995017354922771
Li 7.313083091065649 7.479563667255495 4.49563291382037
Li 2.7676469117064846 3.9679199889585064 5.757853672470735
Li 2.4560849304245385 6.172008197411508 3.668651702552369
Li 9.93882346438681 6.735418752875342 4.605690414732393
Li 6.303836792579006 0.9590050604683459 7.565557980798844
Li 3.347878085075621 8.871104284707162 1.9321127224680943
Li 8.51874814377918 3.00359967602133 7.451035988512568
Li 5.0499830890303485 4.582424146083692 4.004569203960284
Li 10.536585190308063 4.995515519999728 6.612622148260215
Li 6.706751222432652 8.374145932476717 1.595582963041763
Li 11.681324692078816 8.803996266413627 3.7923521852776423
Li 3.3572328259925426 1.984422939872819 8.018803113534531
Li 7.9193796289479215 6.2622110008212175 7.189496087613605
Li 5.817244131948208 3.6349403353567586 6.9621537054702225
Li 9.103582929223526 8.769540793861232 6.49446942300016
Li 4.925487324551798 7.376675514716116 3.480776986069886
Li 5.735147111211341 3.1510774056331354 9.761231739682998
Li 11.785591356131036 7.877410062213997 6.614089449600519
Li 8.142934355466126 4.8442899605485925 9.661167121032511
Li 8.816070517614678 9.660705683131141 3.6989177303939753
Li 10.797071564209602 10.84846642625747 5.951970044397829
Li 3.341285044998731 8.843984319983122 5.184024650289413
Li 5.693422132938188 10.199676205114606 3.8921294573377785
Li 4.93700989718394 6.35532919418846 6.2229513596005495
Li 3.586795932008423 4.715638764233419 8.456429134065548
Li 5.696001731338345 6.27266147213956 9.108438533112205
Li 6.128217109605128 9.04682931059683 6.490414198381045
Li 9.976735788865842 7.22251024049514 9.056225672923675
Li 2.1499549982891644 6.663629840112426 6.974557160681362
Li 0.9151564636750874 4.200867855583236 8.461131269743914
Li 7.40895431841094 8.489034368935114 9.048816901121581
Li 9.491195863920524 10.383387002479724 8.831736981533027
Li 7.688871548198219 11.339708299156248 6.241959420038258
Li 7.813733188579452 7.089700484774173 11.499536861083328
Li 2.85943558086596 3.5682899729011006 10.809948212848616
Li 4.4520658007415115 11.340853102591081 6.548697237803857
Li 4.123466113673849 8.614666784271712 8.333585430259829
Li 2.7112766402919832 6.615118258329579 10.230830611081736
Li 7.858232615437824 9.957224024968248 11.649190082940192
Li 5.240625103563106 5.5899573836196685 11.7984132029206
Li 6.263232295376509 10.915368995581268 9.03371941549226
Li 5.294250769698343 8.562488662279824 11.132166057399724
Li 6.2719279191157415 7.955471052047704 13.829934329651808
