52
Energy = -81.28517397 eV
Li 8.4597310839264 8.32884518479896 11.611119971173476
Li 8.434366156448629 10.189494789266027 13.838138256536169
Li 11.947041254399464 4.785565945425621 10.241745778882038
Li 10.498442978515005 10.595744911177956 11.51976154036495
Li 7.033857070882397 2.7861033416625967 9.911103428452584
Li 8.775523022641975 5.305782024275583 10.442383367411354
Li 10.908885647325288 7.715447552256608 10.102021489605333
Li 6.273488797132773 6.278338778476732 12.123899668863599
Li 5.612380068818776 9.220760400879254 12.63276791935859
Li 5.677250225164835 5.482729299899101 9.43165194067368
Li 9.93647559032235 2.8505409219893236 8.671463928985784
Li 9.15518710711414 9.98736598244346 9.033574624749692
Li 7.394625915672061 1.9934216963745146 6.649538669048426
Li 7.492945101642764 10.957251461144635 11.113711802802019
Li 4.658986673754652 3.0108605846857257 7.769603309242203
Li 12.186796762571078 10.054147490676412 8.77407775687799
Li 10.486869681577147 5.543941959132822 7.991953032938387
Li 7.567830724979225 4.449281224624021 7.701616202481316
Li 3.608802969982011 7.6182946188519 10.689559989315994
Li 3.270107034852759 5.894934556683617 7.923986936723712
Li 12.97564789743556 6.9901293958579815 8.034423699908219
Li 12.609020664769488 3.9433226743571437 7.342071192100807
Li 8.270561124672506 7.355524863558023 8.606699305653331
Li 6.076371438165861 8.317932290075055 10.002539260633135
Li 2.5897071758346875 4.090516717388149 5.4546292284458255
Li 9.956803539231114 3.7027788601350244 5.720915979417155
Li 5.2574260076305785 4.829940221884455 5.836722810522749
Li 11.446366835332997 6.391426461969992 5.249211738626939
Li 3.3306878080240345 7.081004562244848 5.178888233328544
Li 7.5010583846381875 12.582818805004116 8.42066161230744
Li 4.9297733858900274 2.3635005597736125 4.602255278371955
Li 5.834443259996062 7.245396872152604 7.110063380840712
Li 10.549133261801792 8.354654852391697 7.061065605189097
Li 4.725713316869935 10.8911161480549 9.913089405912505
Li 8.536857645204403 6.249775351903239 5.880144062102175
Li 12.761179981589896 9.34493858359024 5.848345256898957
Li 3.661551688097728 8.938157043431403 7.842315576020955
Li 7.379615908004643 4.141392863955254 4.1532197681926855
Li 4.381585660534484 5.090194993139314 3.0568492685002906
Li 6.592833798898122 10.072397831368882 7.8904258126787585
Li 7.998264611160991 8.953345725639913 5.772098694700748
Li 10.083716427538265 11.194463981035224 6.597272366252528
Li 4.507442090657338 11.855267871181997 6.800002594051967
Li 8.968108969182376 6.718806916831275 3.1848467152350337
Li 6.22493983012655 7.049051543405132 4.123629097245973
Li 2.3780250015331585 10.070637645381472 5.166893246409319
Li 10.180360024102542 9.332687279621986 4.175995516127846
Li 5.091244553456814 9.494114552101289 5.266352108709067
Li 7.250215884749617 11.671072130438537 5.348000237713347
Li 7.134584287351295 9.602997946845845 3.050877798116414
Li 4.027340918197406 8.613019339599887 2.745800828702142
Li 4.590847091512248 11.59359394928944 3.6396127522828348
