53
Energy = -83.3513477 eV
Li 10.407094137730772 3.409017942024226 4.9067666917474275
Li 8.900973381038781 5.533151321111832 2.594801565675147
Li 6.6259750012820104 6.247280019385275 0.18175429786870995
Li 11.188508768889344 4.3172154584561575 8.049588197636636
Li 11.165474471139804 6.395033192828633 5.415425075123697
Li 5.655877889318936 5.006060813470017 2.8611608579357553
Li 8.908676862486937 8.229766060649196 0.7065977957631091
Li 9.052799099023424 5.108196508927317 6.5645669975753105
Li 7.254288736249278 3.4553567634050975 4.889478487104678
Li 11.790117739291194 9.351054476177794 6.212663915168854
Li 6.01735661368634 3.1256192794883293 10.201517201567396
Li 8.637931057879104 2.3573300554296575 7.2944254137527915
Li 9.574437427481957 8.389323146999423 3.8193042278884017
Li 4.3679202497941345 2.489797411208268 4.295040423159342
Li 7.518929457071559 6.383379362687107 4.772488413732484
Li 5.379030382245256 2.1460247546995364 7.326642547792496
Li 11.306624017234792 7.409191766549628 8.624442330960752
Li 10.782764271039067 5.600738553664921 11.214326150783084
Li 3.8979377034594016 7.293429559444894 1.7417224396691595
Li 5.989446114372583 9.27309935722413 0.21593491856167973
Li 6.7995837096317695 7.818487556009866 2.3737616400758856
Li 8.891360989184998 6.198264733147232 9.230731059009397
Li 9.261248730504 8.18658738307677 6.778931661939174
Li 4.877037855933284 4.7319435467535955 5.939647723205404
Li 9.267363346081739 10.960811721432158 5.513414789410947
Li 7.802213661760372 10.596857028734796 2.515821270207217
Li 9.18714088519808 8.263053221286068 11.421099463020745
Li 2.7485634272746307 5.208617960942531 4.127337760906694
Li 6.788992852938952 4.58011769130478 7.983425508113326
Li 9.827263927668989 10.10845123906425 8.77323066692153
Li 2.4410068284226307 2.959850386606309 6.814931970875559
Li 4.752967601362498 9.907509901710233 3.103759140914883
Li 6.99024504458496 9.293498493793516 4.956537549132185
Li 6.334002030052153 12.016352984337534 4.9259140060165345
Li 4.8088616810278975 7.3223090707843195 4.501427475205097
Li 8.957325164207125 3.5499788008344613 9.980686728616117
Li 3.1998787449094848 1.952523916946843 9.767562322925164
Li 7.4075959754145835 8.511491240011166 9.448025791428813
Li 2.2624034370274244 8.211199316617398 4.6620156531684405
Li 6.614496834012465 7.30136902385008 7.12575107126884
Li 7.517699311618491 5.581833530362467 11.700311045805744
Li 5.746516756327203 8.15425866107418 11.932130121305288
Li 1.642226173531204 5.847965449856931 6.986896595185312
Li 4.470948913608167 9.80035344099785 6.195248372755005
Li 7.056172911353181 10.545378511051656 7.5588711633818315
Li 4.759777458849202 9.32028928304706 9.261806300411303
Li 3.7664033214583696 4.464682524450458 8.725050270511364
Li 7.199186140525235 10.868316657170022 10.737446293942483
Li 3.9487926395473454 4.774610998061719 11.653205085980911
Li 3.977160935669054 7.155985432269468 7.305968867873525
Li 5.579058785943299 6.357865787680241 9.788112590607344
Li 2.746347683829487 7.004696280347562 9.985103641328003
Li 1.2312014705498273 4.203902837270385 9.63701956769916
