52
Energy = -81.50726282 eV
Li 4.229327273739379 10.12107484023903 4.0252655845161796
Li 6.548244506924079 8.95569430081018 1.575106473588662
Li 8.701857115553555 7.20957116172001 0.20940614007770708
Li 3.4353221233308333 7.359015752846988 2.7312941049632604
Li 1.6936813363137941 5.558877627379692 5.119804006683783
Li 6.301700504566808 5.691792376013111 1.8464535156012734
Li 9.64419210489689 9.50237880281087 2.380943232253827
Li 1.282550759999975 8.751321883820118 4.734834351043518
Li 3.604455239033741 7.629419302091169 5.595389423955895
Li 11.25734785306715 6.775136421302465 1.866967790408244
Li 4.720357981411964 5.138221931365396 4.332586514851422
Li 6.0748099425176205 7.715972901405306 3.9559359846774096
Li 7.342427089456302 10.527090453865673 4.205622821699848
Li 8.737799597587385 7.045109714244548 2.914515435965664
Li 9.015853436853847 4.20243234390915 2.1184027503187113
Li 6.21611577749344 6.532634635315128 6.446502290968443
Li 3.137053137648394 10.13698313277169 6.945367627689206
Li 3.2527906133689255 2.9181572126662014 5.492888913406038
Li 1.572027186128602 3.8750770188946273 8.066463602592565
Li 11.149084597464077 8.064718858207163 4.700428332182336
Li 6.350155887817984 2.68269586362191 3.644419858234961
Li 5.645685946076992 12.166546847477981 6.241625411178742
Li 10.204532133341154 10.779143268329442 5.422796193475055
Li 2.805379917541042 2.0857704736669973 10.481274820490281
Li 5.139717446012292 0.7482967698017343 6.033253479911264
Li 8.504325394504683 8.217746941161185 5.511046051669997
Li 3.833115002224062 5.175219484045963 7.217933751349786
Li 10.521130199278398 5.182223958694973 4.553455846876863
Li 7.675005459115836 5.070733944090492 4.468207898853577
Li 5.80372522773183 9.39986556202098 6.403139392821658
Li 2.2243509579596545 0.914308472930885 7.544842123985621
Li 1.646558381367671 7.149106363664998 7.706896950762228
Li 10.67901903321996 11.532244121169152 8.493642496586785
Li 8.879982013754981 2.6728586571585455 5.5842626187284194
Li 6.338921544424449 3.5281947244127223 6.589594129719797
Li 5.753424198525401 10.435270059789403 9.052721642737684
Li 10.293825218861848 8.58783390594614 7.822532999719488
Li 3.801377281874516 5.040542682311142 10.22281236301354
Li 7.184500625506862 1.143748537777944 7.992458101704165
Li 8.993774968883633 5.772697528984912 7.0342400549551645
Li 8.161009161283538 10.693581446485608 7.383739180025841
Li 7.444227570565655 8.009804144583713 8.404907749417047
Li 4.3082921437707915 2.5137529424930625 8.239283775024319
Li 8.56178922964023 3.5350306806862433 8.974211831670821
Li 4.639559216770511 12.166546847477985 9.156253137365754
Li 4.455952519509604 7.714664455390498 8.50182942939619
Li 6.336782050412172 5.16299925302505 9.058793955956467
Li 8.721825344763625 9.681809802797762 10.255179317788196
Li 5.933482155250631 2.440455925359615 10.424616256336613
Li 8.96544464049988 6.457622027790866 10.146405880268157
Li 6.230123639037456 7.66656928609142 10.894746523546326
Li 6.7781389019261935 4.870267066323455 11.82913776581256
