5
Energy = -4.87221733 eV
Li 4.579355220212844 4.843434362404868 5.545483626354724
Li 7.543819605439349 8.30307784403594 8.993959326321782
Li 6.944369020581174 5.630103532952825 4.00053522517671
Li 5.582694345279738 6.512135649470027 7.706646121974765
Li 7.862103437822355 7.223590240471545 6.265717329507096
