53
Energy = -83.31206306 eV
Li 2.2811713349203755 4.065382347771108 10.440496474562613
Li 2.3068930501563485 1.9961364825693024 7.964679929116063
Li 12.836739937608698 4.107218781980349 8.234214725915914
Li 4.782397293079129 3.5019277127061406 8.955284526485432
Li 1.191039538882074 6.943907547460054 9.336183333744142
Li 5.8663214998306445 4.653779999695826 11.5466657355938
Li 1.2642874086500884 3.5407603314650364 5.342872458541788
Li 5.798335355308659 1.1745527899240122 7.4262200303051955
Li 2.4401773962427002 4.845670583938672 7.654286971898819
Li 4.157178137821234 3.2136863807305858 6.012239627536534
Li 0.588476616737368 6.676987439064116 6.274751959247417
Li 4.095026177049937 6.310966645049663 9.703721312230343
Li 7.6529520021024595 2.9001671813427925 9.5715874561764
Li 1.119757707999226 9.620584144725186 7.63866729972819
Li 6.8617058856766056 5.608284167844455 9.039916406342451
Li 8.982896459361351 1.8125771892929958 6.778796445928027
Li 3.0218445720993703 7.719240715520479 7.2739751319265915
Li 6.556312630626081 1.9252753762512773 4.467175221292612
Li 3.908639646285811 2.8870286655582715 3.304229520596418
Li 3.1464416585452093 5.812804651792365 4.659328076105652
Li 5.812122213401506 8.21640815685205 8.103221807457798
Li 6.896845126651877 3.7047660217764458 6.645615715523982
Li 5.048402585690897 5.786037291308827 6.867545549338705
Li 6.481145251066918 7.81206471340224 10.873011112618945
Li 9.275504838053447 4.737002094480769 7.742052112722172
Li 9.041721463111733 5.641977273548857 10.718390292104917
Li 3.6555301033919587 9.275040819037583 9.709135265015792
Li 7.624114918130466 6.638984302009327 6.0605352788741245
Li 6.036294927869922 5.184756589745127 3.896583193097259
Li 5.180895194844477 8.068811676678342 5.239255359524673
Li 6.709921974412563 10.549546625320655 9.140486495435631
Li 4.01259646410614 5.22735017108614 1.6550797254745837
Li 8.617225594741647 7.899839961784293 8.533421826060795
Li 11.318788487942106 6.65427975819475 7.97461565102425
Li 6.804367136854678 3.5263740659911296 1.7750976167512174
Li 11.70419727061967 3.89975213632326 6.163412531402396
Li 8.955305553581844 3.7005901670667325 4.496034650634662
Li 4.57663942135626 7.954901283759744 2.604114268078816
Li 2.4925144832101966 9.046902140960581 4.75367593080162
Li 4.297231648542962 10.39804273809628 6.933171044554747
Li 10.246154580546861 6.065894619696953 5.28320288605686
Li 7.336136738846176 9.78476398692299 6.161879927844354
Li 7.692900976294072 8.103531166760185 3.4874963487446573
Li 6.617390816935189 6.57039136558781 0.9828720527369504
Li 10.108137819328338 8.785088308627923 5.946460489881436
Li 5.4982145442535355 10.59563424927244 3.937469925942788
Li 12.836739937608698 6.822480117628598 5.35571086993605
Li 8.889865832305608 5.7117487077984395 2.527065473700206
Li 11.652041181674733 4.85472121291435 3.1391791289990416
Li 6.652788276396155 9.648080422795287 1.2792714318388447
Li 10.804795339304672 7.923914165621635 3.2523273965067223
Li 8.947951245888502 10.491991471870335 3.3119983843735565
Li 9.20615046379176 8.229651694506254 0.8358857704147781
