50
Energy = -77.75048292 eV
Li 2.6485633179840566 6.222955304709799 9.866377812202824
Li 3.182370263104835 4.05731928635154 7.668179215931767
Li 5.188193633462763 2.874725518316386 5.315615516858704
Li 3.76085151511531 7.7800246001576046 7.77787825097436
Li 3.3816985330083345 5.887916437064039 2.676060385079373
Li 0.6763545680079496 6.295440440308776 3.4980623457445166
Li 4.788227363781356 4.257056768683908 11.125100956285818
Li 7.133542675395285 2.554239019610314 2.6195377719102972
Li 5.963680809186785 2.8987065654929354 8.330612890770503
Li 5.544553760680424 4.995725284014762 0.7619460552400311
Li 3.5969817597199123 9.527551441840075 10.190421001370057
Li 5.8549060496376635 7.684386175767415 2.8774848623956633
Li 6.04598753922147 9.211034953809405 8.891260289422341
Li 5.520217752516358 11.877462233250348 9.562382277842701
Li 10.173232643856656 2.48224752480426 3.1730009392475194
Li 8.427711881546154 5.34490005757586 2.095364375498942
Li 6.692208657386962 5.108866517674799 6.410903009602537
Li 5.988741018523337 4.942951202812652 3.5531861141731476
Li 5.208386072120172 10.43299092333211 4.263149817619334
Li 4.071304564155504 5.750660872017177 5.575658412906694
Li 10.760765874281256 8.385070661619885 5.278282354451131
Li 12.489213038701637 6.167508835483787 7.01997523417861
Li 11.024297547298842 3.3892980669470316 6.126622980205205
Li 4.103912418239342 3.0311522361908843 2.4023953178624096
Li 8.580085825646938 4.053052944780321 4.690602554709267
Li 1.5760196498873111 4.266214475168801 1.2379655981332258
Li 8.155652690956751 6.9219128844978055 4.629232984853973
Li 8.132548403687808 1.6066794634411037 5.624855764666803
Li 7.667592410628552 6.940484494071588 8.173333276256129
Li 10.530918980516857 8.477421486132583 8.337955081536535
Li 2.152743279838225 3.987984365448082 4.401691750749233
Li 5.797930326620793 8.144817000369429 5.8997240963367155
Li 8.191495067083432 9.863954299073965 4.08818529643973
Li 8.648530681369056 3.7182551613473906 7.829947022167604
Li 10.92871076604485 5.558423838053674 4.029715838727202
Li 9.799310322558354 6.069497724155755 6.6855869941536925
Li 6.850942858813375 11.423319111823753 6.686871516692765
Li 8.359530664067309 9.087832224707883 6.766976640687726
Li 5.171185316816866 5.690543712078418 8.649156971508207
Li 3.029024638958293 8.293678445780612 4.704228077285377
Li 3.9943282602233245 10.52588207927941 7.094124609334156
Li 9.976290507705079 11.291386155480438 6.475731347327151
Li 10.433094529396515 5.677785395934747 9.408787027907955
Li 7.501355557493978 5.042071637330331 10.308048637492908
Li 6.425230329676704 9.858291255866359 11.772711640483687
Li 1.494650455552721 6.332337903287935 6.564973677086584
Li 7.220465129090299 6.314758295394551 12.966893362599508
Li 8.415147425378166 7.890037508794867 10.637960402763612
Li 8.418126853880393 10.668289540333154 9.264133488758269
Li 5.429779132836444 7.226045818205567 10.937059658332064
