55
Energy = -87.14632397 eV
Li 9.939977610493829 3.291729153692118 2.9070994260955905
Li 10.24963824762223 8.097105654702276 8.989749899346048
Li 5.0854802701237345 5.143745096071645 9.216223376681645
Li 2.172413077477359 8.412724547519407 6.653372307370499
Li 3.9531015688409106 3.877748427377639 11.213586231208696
Li 9.572377262827153 6.284125896301234 2.0767395943642164
Li 11.245744023970834 5.251411334552353 7.820760792600313
Li 6.595887941285588 5.815997904526962 11.78990419526004
Li 6.117172634580581 8.9860051261649 10.688006458135893
Li 5.43017761826198 4.645279858125831 4.280181931069355
Li 7.546345233987395 9.068317125586368 5.044558890747363
Li 5.406043326415586 11.104917249099248 8.841048985603447
Li 4.9090771013850825 8.679394770382192 1.877891520779609
Li 4.655667856023519 1.647877925096305 5.701314973691434
Li 0.777220248135899 5.555882392597407 6.359457792675418
Li 9.666843082767718 5.300500330352885 10.505344922409085
Li 2.7660760333358874 9.764921170351984 4.038249234640552
Li 5.825095361065638 3.778647465586638 6.914091266347818
Li 7.06449946913062 6.9933959284749045 3.1258312435167457
Li 4.76149633872599 2.5143295933658836 2.5784525062031767
Li 10.226711344585995 8.351782451756563 4.102504930492633
Li 2.8357861803771796 3.563715526324778 7.73480034027196
Li 8.746815940805602 8.128256518009142 11.547494991076233
Li 8.528962485409632 10.855379067195768 9.598893978973576
Li 4.888255389606862 9.565298597660878 6.45427108241887
Li 2.1829413964173376 6.271177991712016 9.034642888809614
Li 8.509133934841964 4.992729008937782 4.664615340806653
Li 7.352497559407674 2.369963464698778 4.411826765108034
Li 4.684713481654737 7.701491591081051 4.456220497600566
Li 2.205203892390333 6.702619583659008 3.828627382063881
Li 4.408888370191441 5.633674508143372 1.8963513551064726
Li 8.517267165329946 4.45324623036759 7.72526698165305
Li 3.910143285647176 7.087051938033268 11.271092349698334
Li 2.752725374048409 3.828469966208801 4.596234594914611
Li 3.26927185373662 11.616627908449745 6.560266718664252
Li 4.9905564437787024 1.924739459407664 8.903995299347239
Li 7.604234763967758 6.717754145549753 9.299289634809245
Li 10.1424321618875 2.869345241203281 5.943207806421557
Li 12.156597685255916 7.956445622855149 6.538249527402698
Li 7.2333774024088004 3.399498257291296 10.095331501128364
Li 9.460506927516233 7.114275270292161 6.500562698681314
Li 10.095625776130655 2.5227130501995565 9.040455502803873
Li 7.422800317306133 9.14893251057609 7.92111299188597
Li 5.5441303710903975 10.823075830433098 3.9712862118540095
Li 7.154756260676507 11.702551871049051 6.560611314004612
Li 2.8757483663614747 9.582540225857846 9.368758577137147
Li 4.688530428337478 7.802139111083808 8.506521842313893
Li 7.635437675016698 1.596622204142663 7.350043510007624
Li 11.307041392746722 5.507315429585452 4.730752333254032
Li 7.001746891907297 6.906152670295704 0.3794498428695386
Li 3.5616457944974336 5.945122463183557 6.437765193703161
Li 8.01038351035876 9.392804637946952 2.0696351793317325
Li 7.199436497962452 4.261054194309174 1.9358043105964322
Li 6.516304687428748 6.5945120407882225 6.475383537059481
Li 9.874659993718103 10.132469771044512 6.7024127482441145
