54
Energy = -85.41946864 eV
Li 8.480825750344026 5.5817583963362996 8.147133781796677
Li 11.356536070022914 6.902951095088781 7.70369177047621
Li 8.374421885340384 4.0573492575417935 10.613587509365956
Li 11.804397018384405 6.790888558283036 4.328389837984267
Li 9.427364130486794 7.226671442465507 10.262549390080526
Li 10.038413807205623 4.779079251627322 5.816160203709154
Li 11.692863867050834 9.61071269765457 5.873711972239762
Li 9.870981392690457 9.623376943033314 8.402302333464283
Li 5.763857324543929 3.9465762879907507 9.1581115512279
Li 9.641314412240142 1.7559748882303934 4.92536318609346
Li 7.877961915923121 2.878817307266525 7.27505845621687
Li 10.582188270674271 3.9991531664523396 2.874216107244145
Li 6.6404820558252435 6.534958516722554 10.381334305464602
Li 9.124275456098365 6.42709923498992 3.4099595824672555
Li 7.202411202094931 9.539825929498079 10.56096364156168
Li 5.350162515368693 4.619215290353534 12.037874071863177
Li 9.999867315439777 9.143178377607336 3.230386307086455
Li 7.322786422436868 6.201798052292366 5.6788554939965055
Li 6.191880838941795 10.880483605181393 7.847680582747348
Li 5.438769447374773 6.282746956541645 7.700086677897237
Li 10.661499734425929 6.7803505992080435 1.1572439685583877
Li 8.508707689361428 10.542185604697268 5.784103256194354
Li 7.492768432341451 8.26237928693164 7.918114854014828
Li 9.589179670897549 7.88153810181443 5.932989161722983
Li 7.94328025006352 3.753501377834197 4.157836634051905
Li 6.412349593092355 1.3818937653545873 4.86929088144881
Li 8.167524163987515 1.8630155800897867 2.209067358194827
Li 5.419043407221416 3.435348912733082 2.618743077193453
Li 8.062949128085991 4.835341049116294 1.2578970920155759
Li 4.736564695600252 8.107707970277595 12.013869161519896
Li 4.359283254376968 1.822899057114824 7.470101806198326
Li 4.793042098087194 8.66533656229715 9.203941534098798
Li 5.662525162554035 3.9689520115830454 5.9476720092127415
Li 5.135656785044824 8.664543753786342 6.128052323155758
Li 4.340880104262033 10.97772535894074 10.498229660593946
Li 3.1853112565325032 4.477438824804027 7.568943211797768
Li 2.9164668157586395 3.1702026885134122 10.035283322918119
Li 7.668960199060325 7.887865159635792 1.4117319267909725
Li 6.130890353690935 5.9939564914859655 3.2185356235998097
Li 4.0771106102558985 6.193774991284488 5.173770244733504
Li 5.055480043962134 10.9802607415273 4.706062933696039
Li 3.63872272421806 6.060769012161322 10.087988444774354
Li 7.161544262426589 8.619860345798598 4.278935403003101
Li 1.1756542949598026 2.6720007995506236 7.408555822840074
Li 3.183904884254947 3.1787614530557975 4.905683800952926
Li 2.115855879706369 8.730001503220688 10.111743491799825
Li 5.257080486223073 5.979475876686634 0.604334404032168
Li 3.1762078917941676 10.420511090789894 7.519135551042535
Li 2.6942400026860907 7.417878433347143 7.547831999881662
Li 2.4499950747500887 8.642853519556066 4.846391198269001
Li 0.8851961615910408 5.47027933007654 8.90469545991544
Li 4.654486850386335 8.318789666177596 2.846935039958389
Li 2.957423112265011 5.673716336327933 2.783242869166545
Li 1.275731492088983 5.519182134804887 5.684367738304518
