52
Energy = -77.48247582 eV
Li 11.667558560295058 8.543428204830322 6.221521078064872
Li 11.000091937431483 6.41071288472284 8.000725242991486
Li 11.009784312735153 6.036979274071155 4.477131270894923
Li 11.388692870011718 11.045222224129779 4.402776774801374
Li 9.370791678861668 8.84001264195117 8.290258626069194
Li 11.122406510296821 8.53923390573928 3.2127310293113136
Li 10.423004027451057 4.0781494371903895 6.429516585913202
Li 9.837418570878087 2.069747994431486 8.240542430163739
Li 10.71277543400378 4.301917539956741 10.08789935839551
Li 10.673653707070361 11.161575109378793 7.089605649807371
Li 9.444345142412326 6.943307821814047 10.564754018278421
Li 9.371977411159545 11.604353872131483 9.554860770789377
Li 8.9551650961523 9.487873550328384 5.358958879033459
Li 8.899756017098433 11.670227434837994 9.829645645189919
Li 7.782398198228133 2.9436595286903056 6.1895817438513046
Li 8.484766123572124 10.252423768215518 2.6315760251242755
Li 8.5500614898787 6.585380473406335 6.250449675100278
Li 8.500050123517232 7.374843153584388 3.314699483759766
Li 7.41937100382842 5.026175213934406 11.4566314360053
Li 8.648555748561016 4.4942092321420235 3.8785702708803482
Li 6.534892837520021 11.018295419987004 4.65329287025333
Li 8.194738694697604 2.4959837855889573 10.758179314295658
Li 7.8059853725659805 11.670227434837994 7.10549820532751
Li 8.328330507132305 4.679172740770293 8.597006019117835
Li 6.597565150311999 8.975397216654452 7.062370198409418
Li 6.9026883670298975 1.1883448376449395 8.371327892544896
Li 5.946755549022452 5.189955197160965 7.129375503564811
Li 7.978893277495151 9.466670920342668 10.814348755096125
Li 6.475903711403156 11.6334378297792 9.621939413601634
Li 4.877755027639862 11.326595741972671 7.305819213236467
Li 6.897141091754142 7.128856992864977 9.161391280912339
Li 5.5454998676777905 3.5354382532981363 9.5903868844055
Li 6.533007021632047 5.703408110229938 2.1662300349479087
Li 5.978292266850943 6.989127946720183 4.877626797044618
Li 6.415509995053161 7.546484500098383 12.099083636776527
Li 4.360847949191613 6.069227272224536 10.4395394950056
Li 5.938538986590496 8.708587076501098 2.5094500722848037
Li 5.75730140348811 4.035912467187514 4.465211331590757
Li 3.2214418210195346 4.479050066100348 8.02451778394214
Li 4.210820767707202 7.427409268209162 7.664237568516709
Li 4.317997149511259 9.374375281641166 5.176676844206713
Li 4.997465587589983 9.253230395255576 9.898475843953547
Li 4.921285636368128 2.4368326562944467 6.772787687298983
Li 2.488801494844759 9.824303132819358 7.648914806739359
Li 4.364746413818114 6.830387093191826 0.5774985189201504
Li 2.35563363079905 8.057018161811143 10.026954691480045
Li 3.2387895772990443 7.7123935247988475 3.098152631016186
Li 3.732040990506966 4.875962051369404 2.669974016687011
Li 3.2561452619783853 5.855963952635206 5.400631966571345
Li 2.910957900273643 3.0577332609269647 4.873906172756697
Li 1.6479767902898792 8.304384030010112 5.354764621861183
Li 1.3527153595290486 6.6335453811035014 7.688472613234252
