55
Energy = -84.22114767 eV
Li 9.798245184703791 6.175107834153642 4.657355496746189
Li 6.407292911034017 9.981709761598585 2.950549630892004
Li 8.957482028369585 4.172633149852762 2.6921953064533626
Li 3.456752234401405 9.609364303459868 3.5257616638288
Li 2.117927844153187 7.201203195277717 5.166598837848317
Li 6.814648930482847 13.34763711313621 6.805648765241306
Li 5.205533521712817 3.0346587295654324 9.975865428373854
Li 7.569336080570659 7.055479800013457 2.904096630701104
Li 10.931441056922838 3.295685298347143 4.930248532109333
Li 6.841778826498299 5.210733230564251 0.6731736636906338
Li 3.7301586206523605 9.291414605696595 6.598091501903662
Li 1.430005652056483 4.527940827843139 3.5915819695246554
Li 8.519655344787981 10.925801262987596 7.20060759362636
Li 2.0853363233591216 4.131051828053832 0.7298512981467719
Li 4.07012001509166 5.935626327928556 11.707903879663204
Li 6.526649809941065 9.664569626027815 5.757697389413869
Li 10.020000404658713 1.7297317096306883 7.503596217848282
Li 12.819374821963658 2.803241696916105 7.187640727050669
Li 7.439931898269772 6.881038203179483 6.218415763490342
Li 8.14255237373534 2.10710894793498 4.978312875512903
Li 11.539103132431178 5.6106117621186495 6.918690428301024
Li 7.008106778129972 8.596761897628381 8.527653283969183
Li 0.6827590675327134 4.802357957457753 6.525471630910156
Li 10.975943664251165 3.9465777347580584 9.202417627632528
Li 5.17047433680324 7.882866742179925 1.3319820749400748
Li 3.3891891059378483 5.580765770158575 10.418822331387764
Li 2.003504837816545 7.065821524380412 8.150154621262887
Li 4.957488629243626 11.846162758177506 5.076306409131489
Li 6.0108438437747 4.125795892727729 7.377423663051657
Li 3.741842392334617 4.780998634227657 5.248076268015258
Li 8.020886905517827 12.048151863899333 4.428578218666138
Li 2.948845801277777 4.025489257513804 8.082795398497282
Li 0.556198698448985 4.817949833646581 9.6416641326332
Li 2.5114331105921406 6.976431507849285 2.1522742080980546
Li 4.216965892713742 8.522318938802218 9.654728978999183
Li 9.015967691480888 9.163876734435851 4.440863061841516
Li 6.212050704885613 5.943744974040655 9.745584226623029
Li 3.7858182514715026 1.3232428935872842 7.981604905752214
Li 6.926346011607868 1.4180237772208744 7.734268653087224
Li 3.401222229273603 2.373039020486258 2.805479256898962
Li 4.509623402703148 4.96239548235536 2.2526844174580916
Li 4.776280979000528 3.0543068176857826 12.233087123354665
Li 5.148526992766866 2.16248210134534 5.3022857529992
Li 5.014533143057597 7.389769525595777 4.318354905693761
Li 9.89219256193624 8.237874836210999 7.046305188317786
Li 0.7127870490379361 2.129090122567257 8.155959139988243
Li 8.978781332934684 6.222453479820504 8.831634015214417
Li 2.367011881767409 2.5659829562148557 10.578903100296396
Li 6.7046355379854985 4.68557040714914 4.417804828252965
Li 2.131152052772215 2.3152532310157645 5.573438550759132
Li 8.098516450796208 3.418376111321751 9.562704830182874
Li 6.423036410886904 2.563048311212527 2.4492764455713023
Li 8.885825067318708 4.245697997455493 6.775404792951954
Li 4.687780679031338 6.728529413910816 7.376203484934588
Li 5.425345592460202 11.101686382020553 8.167517222636784
