5
Energy = -5.1728975
Li 7.431911517883725 4.406377120280259 6.000153161858488
Li 7.590356392338751 7.439017087319903 6.000153161858488
Li 5.105343807205501 9.019540587072726 6.000153161858488
Li 5.096469108897986 6.047454523829593 6.000153161858488
Li 4.776684982966604 3.0883764907897007 6.000153161858488
