52
Energy = -81.30463324 eV
Li 9.12402157444665 10.531233009436534 4.1859358090811165
Li 6.49639001597863 12.45080995395195 4.21838334435779
Li 7.083544192169243 10.924552658158634 1.5355449938097427
Li 10.414867862554177 7.144258396314296 3.047039135600371
Li 8.950270673298936 8.14266115788389 5.513815610850779
Li 6.814372067719387 10.553252887897402 6.618796415388336
Li 7.911715624020699 8.318356856209911 2.533194913802548
Li 9.715930646679064 10.18552780011823 7.45773087217495
Li 4.055479405139495 10.803808606073556 2.669106683738058
Li 4.032033883577943 11.272720030451525 5.723754618373025
Li 10.237041628930001 7.1647140451996645 7.843795953224088
Li 6.250396320027223 7.568428657158286 5.84584975353899
Li 2.522545997807743 7.94799186079129 2.4627668868219486
Li 3.7553710248595285 8.60898385290615 4.902284379323677
Li 4.446985973147967 9.064653985083936 8.043581178567191
Li 8.377715407243135 3.6032949442459117 5.5216877966991476
Li 7.265691685444336 5.8660275362056895 1.1505215855727844
Li 9.501878641658452 4.069740354316715 2.7695371937842843
Li 7.471368685799257 5.595701491260019 7.482510314581411
Li 1.656521492853918 7.720127378069395 6.710612888763737
Li 2.969137657613945 5.7273924833535395 4.501541219993494
Li 2.4305032480943916 2.839596867864291 9.725206618489084
Li 5.215896097533825 8.366998891901401 1.2201772093145653
Li 3.7615527191431144 8.139811058279241 11.05648603636968
Li 4.24890690067706 4.822019397837263 11.426173039115861
Li 3.9898864599772357 5.192973282891445 1.573477282052597
Li 6.55344294124956 9.542280833755445 10.436351650211195
Li 2.441928550090529 6.015314363498373 9.338988486526326
Li 7.576096833442784 8.340297912212995 8.152674126137708
Li 2.2722639159979523 4.174587445786672 6.9247259523695694
Li 6.194593527476347 9.760071512751233 3.993278734938652
Li 6.286398531776432 6.930362494043332 12.282487821731898
Li 3.6409835876803167 2.788152099515642 4.164598244662822
Li 5.672656329373655 6.814661281194242 9.603715520502327
Li 5.32792198740504 6.688946874681778 3.3826304039198134
Li 4.124388963769977 6.472276883274259 7.067247730719312
Li 4.695303169222761 4.1841853720592175 8.68144880772362
Li 5.4256726815252385 4.327238255209664 5.712037011631038
Li 8.654887261204147 6.894287098848861 10.364063418656572
Li 4.195578730002245 1.7982944463421948 7.22400177571821
Li 7.9164359879180575 5.925057769774999 4.133718034274256
Li 7.042136245886609 2.621298249601438 7.915796579484155
Li 6.457343212605868 1.4508691613553795 5.238420503353476
Li 11.638962873694663 8.651335011189367 5.451561626076803
Li 6.308496816519651 3.7373537920601767 3.0534515256517683
Li 7.187962667704599 4.339256653736308 10.411488532897701
Li 9.677557964809257 4.074370725083089 8.44685472793313
Li 5.36091065936705 1.8645460563498066 10.195812844059303
Li 9.313509658963342 1.2361895787039878 6.96731371628307
Li 10.554565751416842 5.470278726668827 5.5139009930295915
Li 6.687074206101632 12.450809953951953 8.009466727388457
Li 8.527822419000222 1.5544500636810894 9.991228586892936
