50
Energy = -77.99190582 eV
Li 9.152817093511208 1.840083901885641 4.29274906300538
Li 9.476103280887042 0.9828875819752618 7.248077691041989
Li 10.614604972909905 4.090254011619766 2.7909840434112296
Li 7.7961852785947885 4.236416266257564 1.620694090938689
Li 11.046102969936378 3.49554172493279 5.906304117596924
Li 6.531139387123474 2.885178019950934 3.9592430807649412
Li 6.497728153728925 1.154598687911191 6.439143257405434
Li 9.787184896172818 3.613700733519836 8.758198552865597
Li 8.562692880187353 5.243345055901282 4.242145538502479
Li 4.550784750417952 4.69679086810352 2.8277927578461166
Li 9.807087700299858 6.009119235030657 6.692874877671337
Li 7.1923470430308285 1.8963927708187527 9.292992063432983
Li 9.484938253645321 6.974927162334958 2.1989872944984694
Li 8.153472408579432 3.375605817183284 6.548967930937984
Li 11.624043292917735 6.323057517359099 4.540525587015068
Li 5.5291286892111415 3.7437432126655072 8.017164065124632
Li 6.568856032835308 6.76856050914619 2.627619422069014
Li 5.7666949533301 5.082129358305145 5.4924975450342455
Li 4.499902104188093 3.7074685351438372 10.600531818602704
Li 3.9944039727463254 2.86141021668076 5.682449651710722
Li 7.542237667853987 4.704849799465293 10.479830965064062
Li 4.151448099672659 1.3832194352745386 8.53552067132611
Li 2.5357195421322642 5.4881676158316965 4.886700174883982
Li 2.9108759075073976 7.26750937367075 2.117825568066838
Li 7.402366167177723 5.916252434428707 7.9880015358858705
Li 10.094649005616224 6.560034745110898 9.59465949289852
Li 2.7410182503073326 4.383752144274549 8.10975174619514
Li 7.5908019617540505 7.959120193136911 10.464528576972652
Li 7.014521369577843 7.62859774859504 5.65771476614416
Li 9.524475869026467 8.446806203891521 4.9240618868381665
Li 0.9944497753082729 6.877364841355185 7.182318134453435
Li 4.490641500129439 7.510269783300163 4.261942067158048
Li 3.939759798343953 6.800514163852364 7.080735577267497
Li 11.609641930835126 8.16316395794355 7.337081433123877
Li 8.80019936113253 8.543142133062092 7.914237859047189
Li 5.911109664310249 8.768571874006444 8.02289785583981
Li 5.200254821400939 6.391504754112519 9.662486264548479
Li 10.276926233685632 9.618739803496322 9.962446153502984
Li 6.91616739498632 9.622296280148872 3.490891817856972
Li 7.578120601739259 10.697662814341912 6.316897854058805
Li 2.4637478585498522 6.922162980798702 9.80313512301443
Li 4.8121997378492205 9.909046512271088 5.636688031785403
Li 4.582953651554698 9.427634830220276 10.30152883087948
Li 2.0582217313044686 8.611477980438996 4.897729707261879
Li 3.897261689206308 10.170841923465979 2.999801759573682
Li 7.355758202011571 10.763421447197615 9.444443199434843
Li 2.804612577815882 9.344496569017712 7.787390117269717
Li 5.501304458992153 12.393892299097097 4.680525573146381
Li 4.855618416503906 11.706869907486173 7.799633902566158
Li 2.649560969815981 11.586342848118896 5.543347340292719
