54
Energy = -85.00474859 eV
Li 9.413763646822341 6.22990100303304 0.6963549285384166
Li 6.52585666428943 5.155776642641836 12.189981537698506
Li 8.66906909187858 3.19303642567458 0.8723988122621126
Li 6.909527981521351 7.729525244382103 1.4064160916215962
Li 10.314443352475875 4.502594784805932 3.205811924172939
Li 9.563603784035271 7.519285137450021 3.6834567247318906
Li 5.584885365038709 3.0505939149370236 1.9803124657018072
Li 7.563084211518867 5.184862881254817 2.4451430421517246
Li 4.553089864134676 5.958787035965762 2.166290481115434
Li 7.92706951985692 2.4837327591532974 3.7954782897531447
Li 11.280444722477379 8.672990741160929 6.241273204853916
Li 7.443885280522164 10.199994956650269 2.8759855553699523
Li 4.377110165334025 9.03128121611547 2.5285007749384163
Li 7.703840868943588 2.4181285529012686 6.9116490341629415
Li 10.340665797562954 2.7347198497657184 5.708378865937296
Li 1.8521244748191177 6.84929116460324 3.4319882783914717
Li 6.782355508639952 7.7239314975582705 4.272803365369902
Li 2.935121241630145 3.7181387495455964 3.5038033825421224
Li 8.286564375973203 4.889487925130548 5.3443638852892725
Li 8.786317851798408 7.546281626090872 6.706095565244168
Li 5.5359211014973155 4.674601201830397 4.559299563444511
Li 5.077896705380099 2.0022813163359876 5.113316748368014
Li 10.263728077365613 3.5554583530629045 8.795929606282394
Li 5.39125967490667 10.256952118444687 5.196377629091709
Li 4.078717246114933 7.422498444356783 4.778802197185328
Li 10.900819622620784 5.596865578395867 6.260115121484436
Li 8.584687112226248 10.049115397467647 5.544090905230918
Li 3.0316565582607464 5.1745859956523335 5.960090159827208
Li 7.061369192961079 11.950382119240611 7.335001257076309
Li 6.026173563000161 6.537357591784546 6.9478631509696065
Li 5.213591104313236 1.0707118574762047 8.13652446359689
Li 9.363654171709157 9.8518514337698 8.49267915555272
Li 7.201311101521603 2.883813318859456 9.846342941001057
Li 6.487243713311254 9.281272463366534 7.575555035423683
Li 5.346562550401728 3.8108645771198737 7.508043178325586
Li 10.520613388797125 6.976854160741136 8.985852301735447
Li 2.3183465532436642 9.694036824635544 4.961738478142505
Li 8.169241870766989 5.083415209822277 8.22479378435889
Li 4.203221919183887 10.971741682488966 8.31766925461027
Li 3.814218630510836 3.3702964954187675 9.81517009386503
Li 3.6911573008772547 8.510272819139917 7.167252061906387
Li 3.597912174514547 6.081056868837027 8.522054420609056
Li 7.688060677618866 7.674725917799721 9.584324337562128
Li 1.209296172138388 7.22879747033104 6.547913794602819
Li 2.7173023184170293 2.636592577725019 7.045014982372152
Li 6.914886944124105 10.406688309185446 10.299854704063906
Li 9.37061891259991 8.69756355054066 11.450096864716015
Li 5.903068935423984 5.511175947341991 10.096321916092085
Li 1.2574542705805827 5.026459107323389 8.84446337151918
Li 8.836205838255617 5.471769077648477 11.09090946133624
Li 4.771072174140188 8.370117031829299 9.919131006855476
Li 1.8177044145248957 8.28311207280314 9.391944419416559
Li 6.533141918868881 7.575278637317817 12.189981537698506
Li 3.2583014535532846 6.167148783088086 11.3528843081869
