50
Energy = -77.83854694 eV
Li 6.642772552936923 3.395471726220306 4.0378792961399785
Li 4.920907123863286 5.227933235187906 2.233994807846647
Li 8.149342939822546 5.9672130321440955 2.3226987933095757
Li 5.170241168127283 2.0225567186743376 6.530789686372411
Li 1.8924721976506982 5.133432547847918 3.434416890568416
Li 8.132797180405632 2.0597918513070375 6.3721405420330175
Li 4.23834350803916 4.604124471256779 5.168922458474515
Li 2.80402744132119 7.308458336675782 1.3116711765951168
Li 9.250520633176345 4.416709352462202 4.725044760965331
Li 11.201598847992214 2.3440416922416136 6.2840980949378125
Li 5.892345912118068 8.097869100923218 2.045327709509836
Li 6.501142235961204 6.377818785269387 4.512192060030882
Li 6.709167098903154 4.654242985743434 6.877622138987421
Li 10.52199452009142 7.14972992702788 3.8513179253107874
Li 3.683064266147315 7.243885347628812 3.936437099806768
Li 6.719841876376443 3.0890673182640658 9.18406574520876
Li 1.0594576196048795 8.072123262543798 3.781795363481659
Li 8.884197965266182 8.894740007928643 1.4936820673178857
Li 9.726433386099547 1.4277757857677569 8.856871208136948
Li 3.7962036748757177 4.170814947048722 7.931154441281904
Li 11.680774839004165 5.4069173177902075 6.154705726309504
Li 2.200400476619903 6.46849257825375 6.427377242461106
Li 9.55368957857355 4.037861909370811 7.7380968223583855
Li 3.4929770856880875 9.935091416001 2.8112759383518644
Li 11.960348440576485 3.726630598237001 9.016384755942312
Li 8.924195891955993 6.623605597415188 6.339698812440983
Li 8.158776332455183 8.628957036523131 4.175385827796037
Li 5.505901722295929 9.347118591047721 4.836940997359328
Li 9.307292076405218 3.866645286643157 10.514134249168821
Li 6.623910844843088 10.885808586589388 2.6875274256184167
Li 5.016401247970564 7.226078898939333 6.824582414273553
Li 5.1523978244017 5.991187897855706 9.436227979839938
Li 2.84662807886141 9.478997158166582 5.852845674417533
Li 4.159864326718657 3.7838384859934724 10.969610392229136
Li 2.2487107419881305 5.841259185245199 9.728986048180719
Li 7.430099733840311 8.779087650742468 7.214600610475886
Li 10.021166070515623 6.470130908762682 11.497472002906498
Li 4.62345142646614 12.027342349169844 4.833218598102076
Li 6.835564746946154 5.061758849467263 11.709905792804056
Li 10.77035860742582 6.57438267164411 8.644623438028706
Li 7.974451748669876 6.263390725904307 9.270119749118903
Li 7.67261138642323 11.20043762974317 5.629461486888692
Li 10.173177106250511 9.246092335705717 6.551328335744233
Li 5.1356769359781405 10.599150937505819 7.458662402221212
Li 3.280492724999795 8.42006238550374 8.754219258851585
Li 7.474882209622972 7.904991243493331 11.854476000134493
Li 4.337684208194933 7.028492296350083 11.764825908943896
Li 7.829065809462905 11.286582376073257 8.690205384395496
Li 9.206279974133162 8.881417337731635 9.591921022505227
Li 6.02966066752267 8.803422994058645 9.648934231441434
