55
Energy = -86.77876629 eV
Li 7.170055815519572 7.378997619720489 6.624225800010776
Li 5.373840325125323 2.8036545394353753 5.267639027595729
Li 6.511510617828036 2.856781974109139 8.165918677106102
Li 2.631757318006625 6.592669097500109 8.814846183711428
Li 6.018141905074945 8.172743558976354 4.31481409766804
Li 7.491486830717425 5.435584407653352 8.811451810326496
Li 6.41192013370657 9.90988464664783 7.6322940562953185
Li 7.494501800059423 10.298257479673303 4.521028463219086
Li 8.911634855731162 10.81369754529937 9.6189126784363
Li 7.451433022400889 4.628672946876151 5.921517590485058
Li 8.088493398281104 3.194581210235442 2.9120560804730604
Li 5.4633385979181135 7.381632850566794 9.179790495261834
Li 3.4974821551272193 2.714461531984195 7.795752417025652
Li 9.272926471305311 7.638482731786973 4.465005298560373
Li 4.041416634581018 7.478605471206864 11.5403197845425
Li 5.668871522997314 0.4675913363347125 7.009631260023307
Li 10.04970682220371 4.604599499646364 4.825437514796985
Li 9.456424671829637 3.457297200494816 8.04140748441797
Li 4.816410118152465 5.1265580506589625 7.2708485732390296
Li 3.085539626286448 8.12317517253141 3.878335068212407
Li 8.14729459822367 0.7630249470160897 8.938517474976388
Li 3.550632274197623 9.572255138001788 8.983710112775093
Li 2.5407902629028354 5.4644166735862365 2.6939012935613755
Li 8.399502952272737 8.139623473431513 9.290992768898079
Li 5.263353676498739 1.3937593117152633 10.105889348086478
Li 5.059546444792212 6.9368155416248465 1.9087591262261152
Li 11.133853306622466 8.547525531242423 9.344263393186898
Li 9.916862334334608 6.414686824232628 7.31051979529622
Li 9.851196368535104 5.850492175757319 1.9744836904580882
Li 4.033123178267288 5.17969046621894 0.06302272996188489
Li 9.390816647295098 9.428556600621777 6.92231162979546
Li 4.872109765474382 9.861650151668316 2.1723438696420634
Li 2.6661172808919016 8.143862563211368 0.9168039633840631
Li 8.151617717861102 1.8179427537488397 5.766714867411162
Li 1.8783017841306362 10.482584686344495 3.187794678135922
Li 3.1808566682835995 2.3153537001297457 2.3215074720129434
Li 4.189899577688028 7.967901015427958 6.676715644438329
Li 5.917688092097239 0.9232342248752556 3.39766591340249
Li 5.54347826344008 8.014207513598471 11.806377132700433
Li 4.239726402549947 10.447753990001374 5.273120672413027
Li 2.7475875442003317 3.5415316034030866 4.956387658172263
Li 5.320753599935748 4.005064695471962 2.557377827015924
Li 4.738884209946384 5.760920517003642 4.645961011960751
Li 7.6596823371486815 8.316704899625313 1.799583415690903
Li 7.122246974238629 5.430995707161577 0.5379280659820903
Li 3.329319103975256 0.7079246850632989 5.059508621399372
Li 7.466552369761495 5.848981763943882 3.412138453363138
Li 9.875469613027636 5.7937266264289 10.365690643932743
Li 2.0832303615621424 6.157396636610349 5.935410759549475
Li 4.8319932437530735 4.568455403014089 10.179059694604627
Li 9.262904081987093 8.648765672603705 11.806377132700433
Li 1.6444581804919738 9.172317692381919 6.350060153740746
Li 6.326013614611067 9.501034117901316 10.81989942863331
Li 7.731307197252926 3.306750138597695 10.731965397215667
Li 6.993902785466814 6.4641291435669945 11.50115437549327
