55
Energy = -86.69775112 eV
Li 6.0239738110333345 9.111749309709936 3.8939736536585636
Li 12.129596211953398 8.943498663792662 4.022765613452267
Li 9.129989452920707 8.728486994492357 3.3403805313445836
Li 10.288888185515553 7.189571138835811 5.655971667257209
Li 9.566534045711483 15.900469766656741 7.053086271954559
Li 8.51574743059456 11.54348802655603 4.5934807661305985
Li 7.367842786904464 6.422012201513239 4.720854006100763
Li 7.9168285276062536 8.927669901696476 5.833704053781736
Li 5.776259514775125 7.783395582461235 6.94492166929476
Li 12.138386578824953 12.03155784023629 5.039755680528997
Li 13.334633907743095 9.517616919946423 6.815280151051389
Li 8.11986072074886 11.364408530177199 7.534985602395995
Li 10.215632756919739 13.164488846430384 6.876071530600705
Li 8.57236643251489 6.140555879689762 7.674160503510132
Li 7.181990159302063 13.749082931115783 6.399788314846251
Li 13.049964536723632 6.58040589492855 6.146439852945009
Li 5.696356919040853 10.901643807904156 6.363596238974622
Li 6.240936638932254 9.620745852423287 9.290717134489316
Li 12.428633956016984 14.932161858537224 6.539310066970064
Li 5.758529526889005 4.973560525733219 8.095647548225505
Li 10.517716976687876 9.958765179182299 6.044523811537427
Li 11.594493498831485 7.858868169069397 8.321975146563823
Li 13.205737615041288 12.421142134141547 8.024466567086826
Li 11.025217206023605 10.92847727968654 8.577600392173064
Li 11.162711217629788 14.248282787851597 9.315659339646263
Li 11.3663600766133 5.092800348777172 8.775781718804232
Li 9.603701666591538 6.593575899334255 10.421318785869094
Li 10.409051100686904 4.775885242385315 12.636294369565213
Li 3.99963730522584 7.380762802264375 9.365846862391226
Li 14.204761290783551 6.985195727617972 8.88155769772345
Li 11.677751692795175 11.976333741407934 11.253071322758402
Li 5.152210025997882 5.067090222274087 11.170424597976261
Li 5.960054379597662 12.469681571144296 9.223362195850829
Li 6.725673351148735 6.841280996189608 9.816734183727897
Li 8.151386669809737 4.201150485295147 10.18774753270759
Li 8.361720558613937 14.07577643218507 9.145597120434342
Li 8.81728154556282 11.536823005313828 10.240910039825874
Li 8.916503137230354 8.803395416147053 8.540843577391607
Li 5.351402543146363 8.225330764354874 12.04177879778953
Li 6.682102601739155 11.250883371106625 12.243481913766228
Li 13.425046494524448 9.724359845181286 9.964889636535728
Li 12.412485948068763 6.852772332882038 11.404831451553756
Li 10.782460017852692 9.167833639430336 10.833806882272098
Li 7.619507794143901 6.1077714380609915 12.663164948471612
Li 9.065867550564759 13.455680525201329 12.341461023963566
Li 8.040380131945648 8.846951065461779 11.396036032332528
Li 10.098587989138851 7.569875478349426 13.209913414337253
Li 8.226519479726168 11.697682058861261 15.065258965180858
Li 12.180235064958438 6.616464023495426 14.624400971944208
Li 12.413033310136909 9.436085008358392 13.18290486897101
Li 7.545222667009263 8.73418947627422 14.291929623272935
Li 9.587812605880343 10.569387420334113 13.031073799004924
Li 11.211827397013527 12.106415676843199 14.475463847404427
Li 9.17197684856762 6.155161209207374 15.376655238251084
Li 10.336559631795009 9.197248245246527 15.530291957154711
