53
Energy = -82.58227364 eV
Li 4.752545900634933 2.276817919543015 2.7855719892648003
Li 5.314088402991611 0.27152324704433217 5.297601925046938
Li 7.694687734308019 1.4838968796301413 3.8078155175572763
Li 2.926467197508099 2.2039138480430926 5.230972083209483
Li 4.5147732480738965 5.7960534750087 1.6014803284273949
Li 6.808863590933696 4.435818821326433 3.017488332385493
Li 7.282966441836259 6.9232848465666486 0.9135852029901291
Li 5.777895868780623 2.921775360726852 5.371167674540128
Li 4.523236450416262 1.5423982659156792 8.052184678130576
Li 7.687096226524853 1.7404952415546133 7.235872630954777
Li 1.1415116182334766 5.627786679755495 5.102304011029369
Li 3.9398932039152657 4.837065831108618 4.31025872249539
Li 5.300638053422173 9.185645299350746 1.9240532894812683
Li 2.9779446644362806 4.253156543898853 7.295018272061418
Li 8.700460671585798 3.9459671722473955 5.212773760089649
Li 9.055228182069431 6.436854616507922 3.3732334279250855
Li 6.217513245573372 7.217279939895413 3.502391865123555
Li 2.9807199492058567 7.703115880688839 3.4193858599183726
Li 8.42667525681259 9.374207823203172 2.5487182218853794
Li 1.8174407546530442 6.816323148658824 8.557606652737276
Li 4.594492664696813 6.392661328087051 8.438690824360151
Li 5.66167666318247 3.9492333618373165 7.914792111169993
Li 6.255770845338716 5.960816478034728 5.970864174746579
Li 8.231040047206433 4.632264860883995 7.79931209548302
Li 1.7610092961734458 9.06001089425196 5.947760117386872
Li 3.4006461904277616 6.874292262051112 6.121702229949831
Li 3.2859435233489895 10.702706183781345 3.769486631276038
Li 4.242637627101455 4.423966712133639 10.364190953472885
Li 4.926437980326404 9.13769511607583 5.399619951726213
Li 8.945757045592398 6.844266204965148 6.119867819811663
Li 11.218182565664591 5.272864695843904 6.596864758956244
Li 7.222022358734203 3.154565071148018 10.262311369682894
Li 10.269312803351056 3.4996382759852223 9.063365603548046
Li 3.8476640162216063 9.104957282149869 8.15870384700873
Li 6.9715882182689715 5.959230167894096 9.829044566063228
Li 10.680018570629478 8.616911895492676 4.777272408665795
Li 7.791876688982431 9.082444130428287 5.114720172522699
Li 9.851168835109274 6.709223356144958 8.77735617045095
Li 4.0875720787880985 11.588395361910191 6.545764522763275
Li 9.419270121956579 11.397053587442437 5.419035407669791
Li 6.322794670232064 11.36684758129333 4.086901348000414
Li 4.799225798697905 7.688898031499066 10.837214197603473
Li 12.035106295249566 8.100161996179832 7.504548448601902
Li 6.73926309100823 8.147727362753239 7.875572333471741
Li 6.506904266620237 5.56439439258273 12.42406975797422
Li 9.456881578534237 5.550176114783264 11.280306227074371
Li 12.26448762425851 5.887068785536008 9.669608260494826
Li 6.976933194988225 11.079886261046465 7.049873953194579
Li 9.435482647056197 9.355133734627174 7.637698978229995
Li 5.986165193056918 10.437067128689133 9.624178796216926
Li 8.048658610687564 8.478021917818747 10.581296914986227
Li 11.036941791694819 8.761812324162065 10.308669173259851
Li 9.001618985954826 11.390481624667583 9.386520959592662
