50
Energy = -78.42020715 eV
Li 10.738181573462617 3.920959769716554 7.957860632221767
Li 11.60374809017532 6.755393231585902 6.982347233951849
Li 9.943039270196925 6.7028122300817845 9.54437712302123
Li 11.289315959562831 4.399895033054348 4.692007436017953
Li 8.791055876120668 2.8625401759129177 5.733503857693227
Li 8.132927580816244 4.823114171246816 8.182847598820933
Li 7.8379967649912645 5.095765668168943 11.193569990047965
Li 9.3160402613544 5.699126465613139 5.947716806527959
Li 7.2863716794820155 2.425526866890389 9.436585312536414
Li 8.183298349797415 8.432907056297308 11.365842156571063
Li 6.0664027206179725 3.248433624239413 6.638547787262506
Li 10.622485221300003 9.51920657225466 8.395948057449644
Li 9.528882251057865 6.517612328374475 3.2627556673434253
Li 10.326819973190439 8.735281884166959 5.1142179095108995
Li 7.258993789646238 4.844788959186002 4.125609292933391
Li 6.961192769364959 7.312618793343409 9.279851552426715
Li 5.552009919439573 4.724980983724995 9.317788289123381
Li 5.096861591092709 3.4804144778054327 11.66757684635351
Li 5.223760236334749 6.680774422224232 11.41772965037142
Li 6.253703514994842 6.121898584847929 6.550333613950624
Li 8.71262076031043 8.00643621724504 7.273493955119589
Li 4.0233983403479625 2.39494869588553 8.789370464474375
Li 7.756823397358082 5.975664050543885 1.050377095997111
Li 7.775128352006285 10.275114098426572 8.932783402043222
Li 5.040937714669544 9.571612158557562 9.836574863770132
Li 4.178228341404179 7.181759902272372 8.390074549083614
Li 3.6306294151149388 4.71211631061846 7.018984919117127
Li 2.783516973819526 5.034455417168904 9.902468272595616
Li 7.413302474680535 7.918526931022323 4.713193637539264
Li 3.3033774110868244 2.1833372990263844 5.579949208496431
Li 5.369530450662956 11.715954613367455 7.301590223976981
Li 6.0529273234201035 2.137656482606974 3.7245626158138876
Li 8.875683006434748 3.435532410011565 2.6022763807461997
Li 5.911463785358621 9.039896254756634 7.090249253491763
Li 8.041756856530222 10.647103871802852 5.934977416693554
Li 4.037730141182002 7.216544513166601 5.111683366469784
Li 5.68827281866035 6.784156871268186 2.7233270792842
Li 1.2527423459213771 3.5196114214886345 7.518236753822077
Li 3.0891838634266464 9.531690400270204 6.661111655096206
Li 4.451751936872215 4.440246384352524 4.184598261916468
Li 1.5912918331798145 6.661277378270999 7.032975343340105
Li 2.9626956902615533 2.7480442389040376 2.5186470905470806
Li 7.254004763585384 8.974340383239491 2.0052668256212036
Li 5.276713334764347 9.996527535540235 4.530290576862883
Li 5.533722385365726 4.123444160730337 1.4454940101277198
Li 5.145083237752665 7.073159545380501 11.667576846353512
Li 1.6641159307228994 4.740698780100695 4.6322265058575764
Li 3.8943524595275254 8.792356315136217 2.223294735039303
Li 1.6281805873185624 7.9103244037667535 4.115843935044984
Li 3.0047267517773 5.861834636328517 2.0639591020396857
