52
Energy = -81.64239552 eV
Li 12.387538933613431 9.088376926470072 5.847651517790043
Li 11.526126446613324 6.123252029663268 6.0425739413102715
Li 11.03078946374914 8.104523466810232 8.454611020985528
Li 10.82397635364661 7.781169084893727 3.2526348705067685
Li 11.671051166105709 5.140239463389523 9.133291351682175
Li 10.206508554607941 10.90344413105084 7.595673577384849
Li 10.497796826698247 10.862185123677445 4.327759635338136
Li 8.944358454979875 9.896064394864956 10.568323353831
Li 10.627916936287528 4.195569147543221 3.7987691144861815
Li 10.481712241962144 3.25309944658751 6.9249863468444985
Li 9.65054697288043 8.699962131386824 5.796333734788142
Li 9.52493203602533 6.844012704653292 10.73059330131031
Li 8.93873228722851 6.280465883895026 4.662708620680084
Li 7.04249950455505 8.325600466644289 12.408246894441307
Li 8.70174975671475 3.9569818503624803 9.635967014964407
Li 8.219717568354865 9.574952306820217 2.7027892411396865
Li 8.121243706940556 8.797617253658627 8.195871517393275
Li 7.203178440483764 11.636271708644706 8.786960630040763
Li 9.309266685379267 5.913421265501895 7.723061404319909
Li 9.019859777970172 1.4680903913591863 4.701385806356469
Li 6.481262009243196 11.41256444667601 11.762331060466389
Li 7.727393926067791 10.968360920356176 5.698753450970156
Li 8.250674874558095 3.9018052220389214 5.607551565856866
Li 7.554334023810583 1.7870171887159703 7.477000338235927
Li 7.370422021585684 5.227512132244184 12.273614920714689
Li 7.8750846613049825 3.5922179896802513 2.8043273022318456
Li 6.948520411996562 6.515999175063563 9.809250441134637
Li 5.805766138900257 9.263478397459322 10.12301540395403
Li 6.039675769995221 5.523317479049398 4.243607179878377
Li 5.559793756242895 3.9207661994896426 10.239504256472863
Li 6.886208922213429 6.789316188527435 6.714518198546952
Li 4.104845501141794 9.646601894738795 12.284789437061486
Li 5.582460268098497 9.685606537683533 7.242143456601288
Li 6.9387293632019365 8.434060346759146 4.6569822637466
Li 4.38794918132134 2.3295738082863 7.933072681723632
Li 4.128769366074793 11.34886661329205 9.49671761117812
Li 7.886654690200613 6.4964689640285975 2.0825874277644805
Li 5.751043928294113 2.6985575380264395 4.894975466268542
Li 4.589427481088891 7.149851372609268 8.295305441704578
Li 4.585305948030756 6.6782309183989295 11.440240014114787
Li 6.450170946558849 4.314903992532838 7.660759575837233
Li 2.966959040574433 5.075555800772502 9.2245286999758
Li 4.279639927539521 7.72764157508491 5.41185552695374
Li 2.7484889282043294 8.529358688882308 9.699257892458837
Li 5.220967494834523 4.559414274023412 1.7796303638711743
Li 4.866800130583154 10.393818713185174 4.310366833254004
Li 2.835175143666891 9.858217387476271 6.881221098196281
Li 5.041561241146213 7.759681049056625 2.5202706147682226
Li 4.08880668927477 4.889085167326985 6.429022950952431
Li 1.9237835854282368 6.956222029411376 6.812709595444289
Li 3.065506216900505 5.700106265343279 3.7721737269719307
Li 2.185978205996982 8.694816639978987 3.997133348385506
