53
Energy = -83.11322842 eV
Li 8.811347874064495 8.74656743630596 10.530473107646703
Li 4.60676212545638 5.722589287904097 10.887019667529948
Li 2.780291855322783 8.197328420661837 10.712585051760735
Li 9.119438538727227 7.4429852229148565 7.78017901989546
Li 5.347283789933464 10.764175171363245 10.24058839888403
Li 7.548292378195974 5.996020845651398 12.207222026302734
Li 5.80644053113446 8.358157957334637 11.515042693182611
Li 2.654728018574473 10.682448647496106 9.052211226259892
Li 8.066097123352158 11.840389240368921 9.383078457462352
Li 10.221762658801463 10.07031067065425 7.731473193025471
Li 7.002644189254606 3.7503612707805805 10.066933907199349
Li 9.540693077287218 5.524112623286128 9.895997675065296
Li 2.473642075510205 5.729177933129276 8.637866291670022
Li 1.4161336165862144 8.262291170245025 7.588331659997076
Li 11.42136048618713 8.016244219777903 5.618964058222785
Li 3.8871849970796046 3.0387636877395487 9.665239811193558
Li 5.317425987809574 11.72301740615496 7.5152212755248105
Li 11.906924586641837 6.855820689122687 8.505688341896589
Li 7.16428584878633 9.513272308349045 8.265282207805928
Li 10.535444235804864 5.445466735878799 6.556504893808549
Li 5.023769998986732 5.0489654030411915 8.007571868185137
Li 4.422010556596521 8.352974844982256 8.516483996211178
Li 8.038507586635474 11.59484411452454 6.257409569418933
Li 6.906768542912558 6.724555266774144 9.535836759651122
Li 3.0343303143008913 10.296464202888576 6.085672579594549
Li 10.370949247186928 10.757184319005901 4.356225000177627
Li 8.096928378108615 4.490020651114825 7.52991281776539
Li 10.77319151916533 3.2944626796314993 8.136249031777968
Li 7.265433159373935 10.39301474922766 3.4323425320478553
Li 4.816634570328556 4.769419458847586 5.099968412913334
Li 8.649889765790704 8.948785158423286 5.414256558984622
Li 13.064081192445109 4.871321553452574 6.17320099444437
Li 5.974722406443215 2.483476267625906 7.463273071367085
Li 9.490713577382282 8.170907392145992 2.723459794658416
Li 3.6669542720191366 7.436527823645211 5.778781506479717
Li 5.846313727221013 9.4332077724589 5.7266072194363895
Li 6.6482334219047745 6.812251229814171 6.521684402822602
Li 1.3246450736475675 8.302009442856617 4.443888930557611
Li 4.134347102155511 9.288213641856172 3.4622205847156553
Li 8.589639879996984 1.7118414021824948 6.322903686350862
Li 7.540198704507269 3.898381193913828 4.861397479218955
Li 3.1673456385876144 3.0385189327029534 6.6646539922917
Li 11.512301367223126 5.9001746305593255 3.571740553703338
Li 1.6780210907266877 5.4773165514007855 5.566057182691101
Li 10.484159430145942 3.36757936713987 4.742264026750854
Li 5.538345117320223 1.8533066067751964 4.63297692864137
Li 8.87921728419336 6.288816268952019 4.665269267139257
Li 6.3997740081530505 7.155745486553511 3.563845780465841
Li 3.3406331575911614 6.2833664480455536 3.0809346597770433
Li 3.0306678867180907 3.2880245330301756 3.5449487467244873
Li 5.867457483685595 4.10872358378028 2.472504172224801
Li 8.212759965129589 1.910077562222263 3.08595358524333
Li 8.9081611775275 4.893076770282279 2.2855377459494104
