53
Energy = -82.3783837 eV
Li 9.545022419814957 6.236156588458229 3.0200452822629624
Li 9.722081673746882 4.103957498385861 5.728681712353162
Li 11.400748358182957 4.165497132011445 8.373036143407152
Li 11.368734603025406 6.714367992577968 5.536027864134226
Li 9.682899815470122 6.442986803291908 7.665356411192191
Li 9.825563415088297 2.162072361098957 10.464712479956141
Li 7.791493469303152 3.7165541762268104 3.373795846406308
Li 10.113672735064315 1.3980038393859089 7.508663673489892
Li 10.60697047996871 9.390765663003869 7.416267503760773
Li 7.889982988847232 10.832610479253075 2.5673620441782994
Li 7.339205916043849 5.7140909452618365 0.9206427775143726
Li 7.953973153008415 6.596483312050739 5.31332585244841
Li 8.367486378698654 11.44475846962376 5.777442805829348
Li 7.555097806674372 1.677521789067805 5.9002190362665745
Li 9.224170372583798 5.225989369354209 10.45830908555436
Li 8.602124991494172 3.522831927605776 8.384811996101805
Li 9.473601798531424 8.93329942625882 4.5827028418412015
Li 7.895877780092386 8.894805096949103 7.216248586179616
Li 8.881261876338321 8.268759789116086 9.9009254290357
Li 4.986735061167069 4.04771861418905 1.268904061956809
Li 7.114926715509945 1.2666331164029272 9.009035631313285
Li 5.602328434197764 5.999158022553713 11.292824453290638
Li 6.769490700637316 4.204953301222289 6.311215706485168
Li 6.913799364709728 8.639099840418142 0.014636052685867745
Li 7.127948172108686 7.93595164004774 2.7049326092109296
Li 8.207541311223123 11.107105065331732 8.873340950972828
Li 5.00515264811865 2.832281642451867 4.218485008661119
Li 6.951531090998183 3.2857117822606634 11.292824453290638
Li 5.471400068849551 12.231230450332248 4.574371280960279
Li 4.97463305955771 9.977044868242569 2.274171553913488
Li 6.476384666312957 9.585409664207996 4.675920463855742
Li 3.394060795934826 12.481478329345034 7.251892450653831
Li 6.445067588391609 6.352615675064698 11.102301464502007
Li 4.687124370377284 2.070264273364337 7.20201056941343
Li 4.701744041584271 6.981453652172396 1.2185509044357528
Li 5.990534796309282 8.938383200833126 9.488417516285718
Li 7.0947420706272 6.238075946325321 8.418623014812967
Li 5.645277503768926 10.764307984132477 7.179393102320299
Li 5.354863804379617 7.675601107158993 6.500716492240013
Li 5.624379919160295 3.9627018838272665 9.016736583949204
Li 4.071157607686312 1.9759807837903571 10.348329903851212
Li 5.774687155930534 5.563191391995279 3.680978042032468
Li 4.103813124926031 7.724758307076861 4.027138975311273
Li 2.918328508134152 5.088386796088916 3.5472902484218567
Li 3.2005397057904412 9.405063652436526 8.282286972275957
Li 3.8381582745275047 4.835374064596235 11.175110433909962
Li 3.473045688772107 10.152196211574193 5.400831822167976
Li 2.6382964648194367 4.106557416790646 8.531985597182734
Li 4.234362042983858 6.607637451907263 8.84834179109647
Li 4.207251931136538 4.975832710843675 6.231782490706629
Li 2.3001491237763396 7.047582645857371 6.5601796136902895
Li 1.6036353321992838 6.610977789400772 9.832317968599076
Li 1.2129875791498692 3.5979150354980636 11.007144925689264
