5
Energy = -4.71591319 eV
Li 7.057608709355668 4.66507922491198 4.816041840273095
Li 6.768033553383529 6.670887675762281 6.844634471979158
Li 9.325763330891599 6.410333751620798 5.569250053216259
Li 4.700738675929851 6.863112621618174 8.857837750519826
Li 6.033547512695398 9.263978689087494 7.764808951566919
