52
Energy = -81.42410379 eV
Li 7.594534019547624 5.936939853334751 0.5077025520109815
Li 9.84948710965124 5.590627758975106 3.0408756617281796
Li 8.56151836010761 8.304087318508238 2.4667403831656984
Li 7.685338411687283 3.36316485617531 2.359456613171325
Li 12.659446173340312 4.94722608167293 4.7625222276976125
Li 11.305109186432677 7.898362275801338 4.483343989939986
Li 5.270102656232775 7.838841457323664 1.6299704405912165
Li 8.644502361470883 7.28020827864972 5.171629291434581
Li 4.730212015836216 4.8014589529465 1.6871538674522661
Li 12.065943552482342 3.941970675293725 7.81674602201614
Li 6.869925499330812 6.036509991636173 3.128911376232013
Li 10.382597666044127 2.927999233720862 4.378725224228187
Li 12.909876441939323 6.82754074959728 7.1619598192919005
Li 7.617932186477685 1.5013930917918827 4.843173488587382
Li 5.34385339557309 3.622754079391932 4.502299716890585
Li 6.235586653886177 8.764994586557089 4.306063567314119
Li 8.713820165126766 10.01787756934766 5.358007804895749
Li 10.493914341847798 5.572731244553228 6.2560534940300805
Li 9.430167632203455 2.7294271682600804 7.12477218307845
Li 3.3205166939500375 9.187019318239177 4.102873113922904
Li 10.644782795083447 8.926098481178085 7.374432261930214
Li 4.281984953779375 4.785451155082953 6.912407774985052
Li 2.255588125754773 6.854566063569915 2.127795062392936
Li 4.1571771980557255 6.534425849936826 4.094728754375091
Li 8.986675491221547 3.7096295237804817 9.915688765148088
Li 2.4134869723345997 4.520943991883614 4.262738713468535
Li 6.161684107437695 6.461336842069352 5.991733927379116
Li 8.001208514923647 4.280457502756386 5.142914903783207
Li 8.072127208992201 8.111069227979833 7.853349120694024
Li 1.0926014927285903 7.375058187780139 4.998930467772694
Li 7.924576472604187 10.91474874235992 8.184414238781855
Li 6.420234066448798 2.8441987493669045 7.367785868091825
Li 7.970017150399332 5.244160096255542 7.895171649316588
Li 5.4975474414825936 9.288261674157068 7.036860140282837
Li 10.475371497024957 6.34994292040698 9.048780067717354
Li 3.3018325074703934 2.558109458315327 8.059874903852513
Li 9.329218704017219 9.218196718196243 10.282111965935156
Li 3.245866940754627 7.39384718878892 6.740914097663033
Li 1.402651002951842 5.016406623884948 7.007501006700805
Li 2.4764979406155114 10.1283789112641 6.922928424068425
Li 5.53940483012803 6.7654928766094935 8.73136766520495
Li 6.374090178662077 9.15896767027666 10.136807534198475
Li 7.775891129778799 6.526654535232437 10.610131605027993
Li 5.730586682206763 4.188719668551302 9.856768158908482
Li 4.826675460162527 11.361775323914204 9.095910991864068
Li 0.8234214691320252 7.767328100305485 8.138107350845095
Li 7.2004245649343215 11.503901298381997 11.227007742889755
Li 3.4833568636708496 8.680046647169409 9.421537348927258
Li 2.9678276968025377 5.60933504907009 9.407939720805558
Li 7.290376208240468 8.847011898545814 12.750817346055713
Li 4.92153345738147 7.007322067905944 11.597178743998048
Li 4.53964433320093 10.119687313608782 11.985241235699034
