51
Energy = -79.8633317 eV
Li 3.3591810628688217 6.083596347233825 2.245614848872403
Li 4.958941265583347 7.872731869080286 0.06707600969973793
Li 5.978930478074871 4.90859980091491 0.930067582979447
Li 3.1799942641459817 9.217829904940437 2.370158925981586
Li 3.5674313557736714 5.457321189434649 5.2082643806925395
Li 3.973486637166737 3.1904214037553484 3.1623784238292862
Li 6.256909314461997 10.058169439545022 2.035347366808723
Li 5.641805338970339 7.524476271082751 2.7056311574098038
Li 1.4441881820333433 7.360393971556597 4.293871949747543
Li 7.89785727572624 7.493662111817149 1.1368202226711848
Li 4.054736617069631 8.297132727218491 4.854998237683364
Li 7.025596147823422 2.360429244516964 3.2422135706801303
Li 5.728900232283681 3.226225652978047 5.95677832610582
Li 8.364080069214424 1.6215425170622946 6.2346056691440435
Li 6.153128979131915 6.637712359964178 5.74654661449788
Li 8.857085533017159 4.834691803530233 2.4584618523768476
Li 2.129730065057443 9.580269396824308 6.3459366183635355
Li 3.6446921309196667 4.310324142679091 8.019561127964815
Li 6.821882490384538 9.424173655971119 4.88801312072541
Li 4.413971868275924 11.161246968391469 4.44487170283925
Li 6.02859566484497 4.960508336157096 3.610822265135625
Li 9.307683053653983 9.504032681487665 3.185134462997903
Li 1.5802394131757527 6.789017706078776 7.495688859757582
Li 8.20065081173839 7.126624484948532 4.045076914057053
Li 4.1821096105122475 7.275304185256375 7.677679302409274
Li 8.297146686269935 4.305616040142154 5.246612707010267
Li 4.958264184928625 10.02511473151185 7.1526470643556115
Li 8.937741324586202 6.296672220441036 6.923812583039313
Li 3.2026862954387267 9.12349457918099 9.53151273818314
Li 7.798363914095353 11.154369089163819 7.093170267767263
Li 9.645611184279955 8.893581135454578 6.147270717728581
Li 3.18866655715973 6.292811373183654 10.358685865157282
Li 8.582402896957303 3.6964505660900384 8.222111829711709
Li 6.307273432716049 5.218741542296052 8.003335353645284
Li 5.8310749985736985 7.3833180837348795 10.079015444474033
Li 10.838904766339324 6.432666332549867 4.743392719603224
Li 6.480377894231534 2.0963951988948315 8.813646565123866
Li 6.252138760250835 10.17928233202757 9.87632649940789
Li 10.88366429582308 3.8230253657973132 6.666638533676663
Li 7.1424247729571295 8.368149647737628 7.732005057267125
Li 9.381584453954824 8.9810324505619 9.257998172161715
Li 4.7898118321855385 8.353173511323783 12.350725698177191
Li 5.585379954304966 4.4311756288309025 10.530727093464902
Li 8.478876636146266 6.228636244973371 9.803848714739457
Li 9.781903909852756 1.426529587112847 9.074272794856299
Li 7.91827994498596 8.65770031060512 11.80913130520517
Li 8.441162451230117 3.511231592540395 11.088783101021578
Li 11.244480808667712 6.767903396234519 8.23072864306628
Li 10.389469490208242 6.655644354594724 11.609567463269721
Li 7.096760981333205 6.028366366840747 12.468153882035722
Li 10.965101485171092 4.2149569322413445 9.740603938791661
