55
Energy = -86.86546041 eV
Li 6.6788259834792845 10.432254890185554 8.341674948045332
Li 3.183776372892792 1.9859125125418142 5.429229315770248
Li 7.635026033380024 3.451268734712297 7.9545190536802
Li 1.3689332987837581 7.222296867458817 9.358236387978934
Li 7.254792647657496 7.319920198112009 4.480426371999603
Li 8.456080648562683 5.944326526546815 9.178312116055883
Li 8.758557053917501 11.368577782671185 10.517853030317989
Li 7.238964602559676 10.241708997320643 5.137442970021258
Li 11.280121565010253 9.564262531654236 10.390718266634032
Li 6.395084736567293 6.069449491274554 7.133153766554422
Li 7.111779068112863 4.374169746173573 5.103209120960014
Li 6.143197045531722 7.718255038744443 9.347087201820592
Li 2.7826471022510484 4.233746359505015 9.469603162111618
Li 9.87086236759702 8.350806458960705 4.742666016855835
Li 3.9842652551216444 6.9759409735528735 11.15596155529876
Li 5.125525302760973 1.8240763903778454 8.787669538148492
Li 9.279313871147021 5.611914720780485 6.343541547802139
Li 10.624068910795515 4.216201286296751 8.641659121402492
Li 3.789792302267653 6.584706144468989 8.277877616051981
Li 2.169501102588935 7.356077800039327 3.4289709298117517
Li 9.496948178019236 2.6973365029656238 5.773923348453275
Li 3.7599903291052392 9.39289177433682 9.08965042378247
Li 2.123662673506612 4.46175366936748 3.9480791774739843
Li 8.742602854039347 8.723219397477154 9.902092541232879
Li 4.585703010824793 3.920120616960837 7.006503239232927
Li 4.98234060243053 6.928520834217532 2.7422857949779647
Li 10.839203773482714 7.459727010531523 8.101916276767735
Li 8.17604556889726 8.169675680528393 7.152988521436446
Li 9.757483111407801 5.036320321844089 3.543443672411315
Li 3.44246578487509 5.316968750108013 1.2903888665373178
Li 9.78144111422947 10.394954372043145 7.58427234739899
Li 6.665873673702263 9.130299633066043 2.1796076897076246
Li 3.7318348552057214 8.496894885804101 0.8868515740802048
Li 7.942629943691243 2.5609858942144554 2.987022361529111
Li 4.306794248301864 9.429605503602247 4.007372143723843
Li 2.8467545437140367 2.279949413781988 2.036202680129167
Li 5.2536864803287475 8.60570555050847 6.519639615351113
Li 4.799969633205037 3.707179573844116 3.599318492537697
Li 6.254048544025414 6.547881078885273 0.12543067697345917
Li 4.257944748447208 11.231731049700281 6.507190666660101
Li 5.262091435602504 1.014217281819636 3.0975551209279684
Li 5.746743629426368 3.2854724089329723 0.8782867134595151
Li 4.236652289179592 6.175340051737816 5.256536219261273
Li 8.897077541918822 7.2785634786913995 1.791770113641106
Li 8.788884063823216 4.412614933051594 0.42703794082208313
Li 6.316762162788535 1.7950700947141933 5.80076554435226
Li 7.107931230208989 5.230452298181192 2.398043980239351
Li 10.387153590223875 6.479791585929126 11.086515265776178
Li 1.783521553710841 5.339168296325651 6.727083538475674
Li 5.715409478529082 4.734781624153956 9.781011330774163
Li 9.152680212508947 9.067866995398703 12.571142381101783
Li 2.409778265757433 8.40897677783928 6.444386084589978
Li 6.195533158285954 9.602993316188563 11.35918331299941
Li 8.436793535407997 3.7812677263610883 10.988781610871486
Li 7.255501368875058 6.626880624180783 11.758961153661325
