55
Energy = -85.4912478 eV
Li 1.134215822600406 4.278520387330705 7.738871787890236
Li 8.535039516908705 6.691995297933601 4.1756026177319185
Li 6.156379490708628 2.1023793294179103 9.405461189736101
Li 3.430589795960592 3.922981203522397 2.64403890067385
Li 8.577222595779084 6.905413412937061 7.585807756177158
Li 6.005024489036403 6.3418485300906955 12.66107106633475
Li 3.397512633793554 4.107325897849615 6.108483341744468
Li 1.0957460132721595 4.079116571344538 4.524712288765676
Li 6.0265384916702125 6.55327857307617 2.43610832173288
Li 6.068180822758444 4.674947044848209 11.08161482567611
Li 3.514498284214408 4.3538338972431765 9.569182943201593
Li 6.050217996846752 6.629689097674179 5.919946537242035
Li 3.5568874388091993 8.790725726191498 2.6086292578536145
Li 1.1283704506276702 9.20815228684379 4.263272095485324
Li 6.1094409862350805 6.99348862900082 9.384121446069244
Li 3.603419878359229 8.975360152153637 5.8044680751784945
Li 5.95075759318155 4.039559924191247 1.0504014297920683
Li 10.85535281585363 6.325616716877153 2.675073409256763
Li 8.347853493457835 4.047454324805659 2.8209733552759424
Li 5.831932191012529 4.125970143698807 4.28921135728181
Li 10.939665826101209 6.5977458859272575 5.866533810419971
Li 8.359057047575723 4.297757546753382 6.039229665920569
Li 5.873653452571788 4.349064429046408 7.853448409954307
Li 1.2149324623033197 6.514676069098722 2.7220744803382972
Li 8.421702044905707 4.451886863815185 9.264269167823954
Li 6.0388575144642065 8.824770441647768 0.8878447031046448
Li 1.2968722321573771 6.916530818923149 9.223568448609011
Li 8.654207187182159 8.913720610456885 2.4576580593758597
Li 6.121638641217463 8.948569884527556 4.083856154478067
Li 3.7834911251699954 6.98380528421626 10.950864749606785
Li 8.648375082251064 9.221160015322193 5.72723549437535
Li 6.167952833748988 9.163859674439353 7.450846240528085
Li 6.1669241365298895 7.19914947005735 12.661071066334747
Li 3.5215759171937893 1.7056666148995812 4.653255723175192
Li 10.770210824040543 3.8742544650153294 4.5453173648229495
Li 10.933043640703692 6.71810201805158 9.066866750098239
Li 3.5595062125508274 1.9051785083742814 7.8462679720949255
Li 10.802359407681152 4.0568105256124625 7.514859932896848
Li 8.495813173068159 7.006986275498625 10.863099725504371
Li 3.660878991641019 6.356173010576283 0.9405225202377288
Li 11.098668815959755 8.979567638595958 4.136074737450396
Li 1.164497904555002 9.399159547211365 7.367157565176526
Li 3.5504401619300014 6.433149547552652 4.195311749850437
Li 1.0324707514677052 1.7082299779273034 6.286002725135555
Li 3.640685749120791 9.191112872509134 8.992958502812606
Li 3.5956564908480204 6.652686606093513 7.7139891878059625
Li 1.2137778054043102 6.775942709218144 5.970544307333713
Li 6.159718102864617 9.44075169148167 10.634548537005617
Li 8.648728008555322 1.751781807739011 4.709306859426359
Li 6.082526326323892 1.6996524762121437 3.0294963781944593
Li 8.735053469390905 9.324510997834672 9.010865324390396
Li 8.68101171091984 1.9355951955763255 7.67223662166383
Li 6.072201151970093 1.992219530491479 6.209922893624606
Li 11.134799240059511 9.172848166287844 7.282970563361686
Li 8.377132769707103 6.38253268920007 0.9142277258001451
