53
Energy = -83.2040489 eV
Li 8.861124336812571 5.09306050703264 2.515714207644869
Li 8.911525071689654 10.089880145438638 3.151767313092497
Li 10.48951780284409 7.720793919688959 1.6064854598688172
Li 7.295025893504509 7.461560830477508 1.7887623526165026
Li 5.853966525695134 4.091660605074075 2.3703672768617094
Li 4.332307232961411 6.911100947184683 2.917288928117385
Li 11.387374438892977 5.613881826998179 3.922962970411317
Li 9.115251680331205 2.8085835057954074 4.406306949871528
Li 11.797318129294295 8.885770485423873 4.199876710016607
Li 6.671857130058672 5.787887687074855 4.295057945671922
Li 9.22878506068953 7.579665225131618 4.048627486536226
Li 6.336316218235601 8.542668048322547 4.343674722421282
Li 3.6076322784405104 4.476376932966092 4.525060842517805
Li 1.9036618501669318 6.933410156807713 4.8171451197751125
Li 8.431301563763038 2.981391418399342 7.552796493406883
Li 4.519944497982573 6.7688921089292196 5.931953634861365
Li 11.377989616484795 4.073191072846609 6.682906123499583
Li 10.992219841670433 7.1522207349635805 6.459652110511144
Li 3.6556995558478937 9.546110077835717 5.488885491532018
Li 12.478802060123614 9.447462850844651 7.733190297831152
Li 6.16109314466081 3.216854380761848 5.469707807525707
Li 7.0085081837467165 10.82381422230926 5.65602655977998
Li 8.985220051755308 5.1505614200007095 5.655110118975226
Li 7.9177418716624555 7.740325846135575 6.633918331577304
Li 9.815039397812459 9.997796373301002 6.248876386010072
Li 5.460923911900883 8.89894627107215 7.508118649812818
Li 3.4054329951928217 1.9599005059991592 6.193816076989873
Li 9.502037250756581 5.587621089628797 8.438532564104278
Li 1.2174574125221131 4.329908901860298 6.575494117512859
Li 11.861550216811931 9.092659463252312 10.914252760725399
Li 3.7001280223116257 4.464404910013975 7.589316281760035
Li 6.515816968628193 5.290648050509937 7.446431994155488
Li 10.136836897899636 8.4593375478026 8.899692550292787
Li 7.845900020860224 10.295811017075481 8.438625116979582
Li 7.50935395032369 7.507251195197908 9.443206054137654
Li 12.247273769669306 6.5272011259801666 9.072034517819944
Li 3.131475364993452 9.874724306909826 8.73232736074624
Li 2.4008956862865127 7.294956008660705 7.665161702804331
Li 10.410650123586345 11.312404281915496 9.304745752634599
Li 5.4349013594384985 11.816398215576998 7.98917315628851
Li 7.277834560771845 4.613674036948611 10.126931717114953
Li 4.742256102212045 6.743996653322852 9.230570703280309
Li 8.57582673094551 12.797735173363893 7.30459468700208
Li 8.688496597516558 9.556936204020433 11.25611667060622
Li 5.488436444757609 2.56628962785735 8.511064762182125
Li 2.3219300945280685 2.4490979159197868 8.974568788991432
Li 1.6734649029826338 5.323071975871688 9.621611246751494
Li 7.520928694075674 12.348898098382636 10.240720894936064
Li 9.668768376206886 6.646017856497236 11.213681875905982
Li 5.626584131784464 9.654697452672302 10.37224818771295
Li 4.252593066145794 4.488373671137819 10.724278600703633
Li 6.239662267009717 6.931320985025883 11.888185367804835
Li 3.129628846751593 7.641439957322782 11.14126915024096
