52
Energy = -81.05180567 eV
Li 8.272353120724032 3.9483574150087564 12.163043725438234
Li 8.869685624431211 2.242540751440118 9.448095395626162
Li 5.207192610522505 3.0298116141140348 11.614513515482379
Li 9.907719782196391 4.990025821942431 9.468745170578252
Li 10.63335742875396 3.1836203681275905 6.847127515756737
Li 5.829419658531735 6.050170575159409 12.277280036904832
Li 8.4336634576411 7.088253679264817 11.081142077015395
Li 6.0358809180235085 2.1851586248793566 8.810118670114397
Li 12.487408554333895 5.634889872793303 7.596852372043607
Li 6.9039635432337425 4.613389071242429 10.035057686517996
Li 7.892046256091388 4.042584378499043 7.331410099799162
Li 10.58399535090915 7.862202092616956 8.780746665239521
Li 4.215756872210641 5.4804761503806505 9.973492414807298
Li 3.217321674551696 3.0168076451194636 8.783941718924284
Li 5.511154656697223 8.344249300481817 9.998731588708777
Li 8.846945127827484 4.153767456893142 4.515541126249772
Li 4.592156068770005 1.7778154806103108 6.2740739878062515
Li 11.634749014651069 5.3811143567317785 4.4622585608924155
Li 7.810756554595855 1.6091299851303673 6.227023280797287
Li 7.430386505234798 6.839269968067561 8.477259510315914
Li 3.7659033035863754 7.252541721968164 7.542278633990136
Li 9.907532044382378 5.9823876055870535 6.705678433683156
Li 11.62433181408171 8.161637539002086 5.769981387882356
Li 2.4849936523138183 7.852651677221395 10.208582268105062
Li 5.129389502652687 4.642871024452609 7.400293193893148
Li 8.185056730366986 9.658160828824652 9.125168911152185
Li 2.9916731031234685 4.24805202752218 5.763705476405966
Li 9.263918504417765 7.095290260039447 4.039785738103416
Li 9.755828926449835 5.518108498579012 1.7919999360406453
Li 8.789238853885893 8.609227345449582 6.514517884223345
Li 6.973047762560458 6.434902497104152 5.774304037858608
Li 5.994701240090321 11.582031786659003 8.723802523805668
Li 11.427933633344395 7.977111631404582 2.5816418061207953
Li 5.949443806777436 9.211131593650826 7.121855277694813
Li 6.875525214201841 5.836076771845683 2.837027109341226
Li 7.971468619287963 11.328843252494124 6.299174278785602
Li 1.6088783899959365 5.585994416158598 8.23282202377974
Li 5.892141590451498 3.8011766533172295 4.722547221773251
Li 3.471817077598559 10.128227521690585 8.27811429305256
Li 9.640575549627878 9.982337649955408 4.0803666658433855
Li 4.482265100471714 6.76472636087321 4.62233250873519
Li 6.617273582206796 9.06206256266244 4.273840128313654
Li 1.0646621495387567 8.486331110108598 7.503650020293579
Li 8.363581253516408 8.543878432562268 1.7453052407070337
Li 3.710104855332446 4.952057103789109 2.782184498659048
Li 7.148170155373707 11.362068160111473 2.9402106596638706
Li 5.130850841110547 11.548719342974819 5.649140512395791
Li 5.338154923469561 8.01590441054272 1.858922827675167
Li 1.5731622422456466 6.649964717062447 5.242688702728411
Li 4.268311541589065 10.509716313123056 2.880614026968681
Li 3.220135357240427 9.2623165069411 5.35658297076641
Li 2.510390203951147 7.890143267045889 2.7368370259876316
