54
Energy = -85.23407692 eV
Li 11.490217221893023 6.458020752105988 10.049923841631719
Li 12.326547284233115 4.161831864976014 7.949894531527544
Li 11.19758115651217 4.9134756425765564 4.997779530469505
Li 12.41660305567357 7.156646885615787 7.118283966944806
Li 12.21538196269736 9.433912159723166 9.325758115910446
Li 9.59527303475134 9.012023903021495 11.13099407762022
Li 9.847617359739727 3.5782225462614976 9.885762090634381
Li 6.807954019369773 10.866116622135296 11.138031670521015
Li 9.590033785867044 11.124315982746493 8.887105375590641
Li 11.323014881835588 9.992638996173907 6.356438791706465
Li 9.951977096890738 7.477060644656289 5.550568627501291
Li 8.541649507115764 6.364226560598429 10.04941293935322
Li 12.267504410774226 7.864605245158155 4.103129386542638
Li 9.966762821240366 5.488485157892298 7.663245640935288
Li 9.72363205135565 2.7808260225820667 6.8119320121053635
Li 8.370522435385825 9.759159400718708 6.502816813943786
Li 8.697441974615764 3.2341177898896354 3.5246944755313465
Li 9.63582604488322 9.696961958536187 3.6817370770456543
Li 7.964171931354787 5.057009969673427 5.338506521721606
Li 9.935441851590692 8.299721031678263 8.405017003110096
Li 7.058881642855524 8.995483741601493 9.276912205735941
Li 4.542174366382415 8.591874990328424 10.823479388165902
Li 6.958257203705271 7.591499090949219 12.049752517639746
Li 7.2981333255175365 1.6710430464827661 9.15089902037022
Li 6.869650115334096 11.770210479779562 7.809846777948852
Li 9.227423436366076 12.278273450750296 5.810886161328804
Li 7.240036470157541 7.008505306885455 7.202519852119909
Li 7.457594566383149 4.199356595798806 8.36934524484471
Li 7.327626587101239 8.003671062406882 4.39814757958769
Li 6.978725526233299 4.200408363722719 11.29468549269724
Li 6.933253511504747 2.341067020377366 6.149827099729865
Li 6.857008730622853 5.721246573366647 2.6316840588994967
Li 5.609436255053836 6.185390504780681 9.59462189486681
Li 6.889222280560534 10.933820874859597 4.337433757148052
Li 4.518530313056199 11.90000939387786 5.877494328396546
Li 4.36948154309391 10.693719356304602 8.888520819260856
Li 5.000213433014343 6.628155329706351 4.970305729546621
Li 9.603895129514505 6.5950221808545315 2.897474865998543
Li 3.960959940344835 2.1514635630129715 6.601541669089726
Li 2.7500405570089614 6.0131204866974155 10.332264820343289
Li 4.662871054402323 3.360633280106565 9.395596026601927
Li 5.410372838905293 9.305073528072347 6.582358491080621
Li 4.340300899223334 9.313463272118364 3.9106980778502853
Li 5.460181967989549 3.679614439273832 4.050684902162947
Li 5.099018455902784 4.6665046090888325 6.861188139396385
Li 6.776848880351318 8.704345638923462 1.8864132383231302
Li 2.409039086309172 4.606911097877971 7.700649569707997
Li 2.4160458862821876 9.803755909667746 6.639079110922191
Li 1.8960001683240657 8.952557940498 9.574903184525645
Li 2.7709762678171446 4.506771452306437 4.788351029471499
Li 3.943607371920767 6.533854757435678 2.4835530999619007
Li 3.591151156266196 7.38855252962342 7.896704594553853
Li 2.2651142757127847 7.3234114618586705 5.0892526494037655
Li 0.7414198723398961 7.038508393489195 7.657636236371638
