53
Energy = -82.88455799 eV
Li 2.544801934120833 7.3135616170781965 4.530558507203899
Li 2.9532562112829996 3.46541231558744 7.575239723346138
Li 4.939436067667155 10.629183040552595 7.573058971409456
Li 3.3385436585021737 2.413395001657552 4.689696959993628
Li 4.561133237418672 5.719383694893545 8.919282883627824
Li 5.51686197400117 9.56955041761352 4.427697726771285
Li 7.315183050166607 4.957221579651646 4.478518503811283
Li 6.667623398806599 7.499918155863102 11.424030107846528
Li 3.9879846772196434 3.000457904552061 10.275503230969356
Li 3.1502604296065484 5.029045386379627 2.8516775174876434
Li 3.7293534717996883 8.482326788803842 2.121134344355067
Li 7.2783894749586215 10.636301917728149 9.617175778100169
Li 7.964919314695526 12.112394725749256 6.736615406769008
Li 6.144308366930549 2.632854413156643 5.472298989841107
Li 4.731787513813587 1.0446151872598597 7.572775069593809
Li 5.404048618816568 12.29770265798356 5.16275956590393
Li 5.40380741941491 6.722113705986663 3.563822267903805
Li 6.158845404700001 8.156460706589488 8.874583199744668
Li 6.182912451916544 3.4180009284094157 8.1841048130549
Li 6.529268702286013 4.260280036666774 11.204871056981162
Li 5.803701464620153 3.5623983320330903 2.695359721492599
Li 4.270490400564409 4.958168881128159 5.5804892461899
Li 9.903221625273066 5.760410909071769 3.8765296566853307
Li 8.033347940190167 1.3023768565096467 7.224765613837376
Li 1.2974663386259273 4.650925290157837 5.425788206626802
Li 7.736400979298019 5.972264582665415 1.8063710887196351
Li 2.218264002778018 6.721400127425082 7.413008560790256
Li 4.901257588184967 11.34132307533028 2.3837339063003586
Li 2.9257778258582365 10.306669634939233 5.0475365881642205
Li 8.812353967029985 4.15024213945708 6.720878912871066
Li 9.847120096193652 8.569973681941333 2.381548480489805
Li 11.614308471295265 4.993642328244023 6.202867726560861
Li 11.891616809107427 7.679608075146746 4.721117824076366
Li 7.758840894200106 5.736008940697135 9.206632710467098
Li 8.88081157926092 2.7117632697372116 4.03312762655611
Li 1.764471897409391 5.188614966954756 9.796711689036636
Li 9.608456345173714 7.117666236040199 6.650572095182857
Li 6.559454172531838 1.3379955157011403 10.009973598805077
Li 4.469446585924029 8.05047164004905 6.528699174611376
Li 7.996922858422193 7.902149504462148 4.256637124730586
Li 8.984025229374302 3.141696346404035 9.623790920651427
Li 3.4892076051863725 8.396373908072864 9.676962892068406
Li 6.790365529906377 8.922548581220477 1.7971973614468995
Li 4.0443622435453435 5.9343558443285 11.572729399437607
Li 7.857297196012314 11.051137675709802 3.694489187842965
Li 10.65112066356363 5.576173953281466 8.979021579664213
Li 10.102697322764627 9.902325642297063 5.244545633067854
Li 9.151365628118551 8.125956187040707 9.556956374862864
Li 11.990707379761426 8.023267718379149 7.729299164366194
Li 9.228415975748403 5.648364241535158 11.640227153106585
Li 6.686739709955096 6.399869551548215 6.651240916358063
Li 10.044988710489985 10.392243420294156 8.074868741256292
Li 7.539508805390427 9.450282150275584 6.7841667158631065
