54
Energy = -85.12801099 eV
Li 12.707137376678313 10.292575287507635 5.148590648228908
Li 11.175981793804546 9.204486474676946 2.7011219425132684
Li 6.14421642123471 11.219607657746904 4.824546689576691
Li 9.073024570822552 12.308590294859071 10.225622256571949
Li 5.698154156168022 8.321325383527073 5.203700881322771
Li 9.67195059442852 11.344599312736758 4.653874633740724
Li 7.61804191784333 12.321098394211296 7.356591432974924
Li 10.51334266699332 10.794115835049572 7.643323809114539
Li 12.713265146191523 7.1547943210409475 4.5086116968967005
Li 12.447706678193468 8.301741957883296 7.667344393757477
Li 8.03735361007945 9.016272883038786 3.4700359877271527
Li 5.831442563300146 11.933042464103798 9.912177825930302
Li 10.571526476816954 8.65945948146446 5.34359652809399
Li 3.342651906273721 9.859566347666075 5.693537569679116
Li 6.78263888208909 7.5357334724795 8.002894680685182
Li 3.4590023649562345 6.75595542465781 4.429565768035518
Li 9.865428326327121 6.448399921486767 3.47279666969542
Li 5.558481354158438 10.146407716857304 7.5240996320748925
Li 4.6793023985939834 9.213882918042538 2.81725187347576
Li 8.002383603050568 10.039113451571561 9.222239833341378
Li 8.098100324156233 9.59650230351475 6.31865046416559
Li 4.3987739880844945 12.602687108037662 7.168981481817511
Li 9.679594717101336 7.946658880245785 8.118774643411555
Li 10.871858675223558 5.917737775650352 6.609344878955381
Li 4.175273008723134 10.429667009341854 12.22076494027823
Li 6.351813898405577 6.5376588822745045 2.9146982182333314
Li 8.231971314508456 6.763676408178163 5.657045618315107
Li 11.06537895379435 6.245577384520324 9.877183772976725
Li 10.479747253811338 9.405758366051316 10.507023345276552
Li 5.789478848300716 5.48429212930712 5.5308432873107565
Li 10.759353641042614 3.689380201636775 4.658350432949621
Li 10.739700042404353 3.3205697494913973 8.065264173510286
Li 8.096387222760317 7.472929218933128 10.753602340810291
Li 7.465800376150486 10.251499517782438 12.028313738414278
Li 5.47648868307403 8.978199810383183 10.247233372212511
Li 8.537591636423757 4.054951155452003 6.464430958060522
Li 3.181753057793531 10.259357917942543 9.095749163868605
Li 3.5333271269223854 4.150221369102001 6.5677641790579395
Li 7.82334654027404 4.075215657788558 3.837631618694478
Li 4.017855627500107 7.388637085987842 7.613560152424693
Li 5.350415292933159 6.144586648844672 10.235091115229514
Li 8.570388212453247 5.341148447319435 8.884764817655435
Li 5.689673516627188 7.598195026657684 12.741727401393252
Li 5.972771914264972 4.669699956691681 8.042776226754007
Li 4.861788693341611 3.7077554852188155 3.5429952860108758
Li 2.862103464375135 5.226034049758955 9.385176936164132
Li 9.085186278436197 1.4477440466306675 5.974602346246135
Li 7.810577956755201 2.460097388484831 8.804822697980995
Li 3.054604099517231 7.771063666617479 11.10199909389985
Li 4.027803685374619 4.902809554181634 12.25696107148679
Li 7.256128197254938 1.3748351360662474 3.448920843396472
Li 6.144165542058267 2.445925552172348 6.018196254070531
Li 7.203326718342733 4.495295934401837 11.362273433203887
Li 4.789481866460908 3.0235837289552725 9.842290697581268
