54
Energy = -84.91639729 eV
Li 9.168415013962663 9.291539636509798 1.5898847955045698
Li 6.329590832870904 10.055599570871252 0.8697191130596762
Li 7.876522434661913 11.345622932062108 3.4302768163572033
Li 10.803267326554785 9.83833225651847 4.150320162974898
Li 7.307427251907603 6.851076519692274 1.0328162213264693
Li 9.413269751839719 12.082845348316436 6.077135371699662
Li 9.264701378676913 6.923530728483066 3.517103480991078
Li 4.754719521675281 10.304305343489327 3.591995999223782
Li 6.156291156555439 11.43088415795247 6.038540944713832
Li 6.956120829062096 8.687354667337038 3.225757087927256
Li 4.447702112222066 7.717769731920815 1.8703680981229536
Li 10.99993721781712 9.764276111198324 7.265250744894052
Li 8.601900336909976 9.419961008025478 5.554110861517296
Li 8.040495513663771 6.733007640548562 6.119388396824368
Li 10.95083357005844 7.0576807329824325 5.9962551117376455
Li 8.067300721464717 4.115020094509586 2.5988999732143587
Li 7.8831839715226755 10.231445600889835 8.20659664867374
Li 3.0627317868249864 9.748620972861929 6.10036538140509
Li 4.868740256016681 9.884737093457874 8.645851178742195
Li 4.95439852501368 4.6830684612356555 1.817451571939016
Li 3.884683933020839 7.32119022985088 4.5804949697603785
Li 5.8343196000611846 8.691043943801269 5.997137199753607
Li 10.172260696326454 9.615127628043474 10.252728622880358
Li 1.9455702813954812 5.557301079732499 2.646059672187237
Li 6.3870962724380504 6.004718353753158 3.8150560653297956
Li 11.994549526848623 7.306283753241667 9.056381063398353
Li 5.532169316533056 5.520657590417057 6.472305533541592
Li 7.172541961657502 8.785794999129152 10.821859515096936
Li 9.479727959217547 6.616060019609999 10.770135052849177
Li 3.590268854172801 7.262914931539007 7.62777567650406
Li 6.406927498907317 7.470846871829622 8.592018301263845
Li 5.883793874573906 3.169435082524331 4.330641258199266
Li 3.5904416710419387 4.5434963677867515 4.453147759163028
Li 9.306823289888252 7.738809239225058 8.330418655018695
Li 8.362716245903856 3.9640679535789816 5.71744785523285
Li 10.296425233646554 4.868251050912265 8.090436354066865
Li 7.620605681708903 4.9154658027020925 8.665115879365624
Li 4.17070479770195 7.474184808759749 10.605054290236902
Li 6.637938049913637 5.690006097654125 11.343992204464232
Li 3.2110615471463024 2.350368479513504 2.837987977101449
Li 1.1250825286469202 3.3398725413709514 4.932109828380835
Li 5.813649815947502 2.9288864094086016 7.356888569134474
Li 1.438774838385185 6.418761299829778 5.774909608722271
Li 4.686246705785132 5.020817180319287 9.273545849389162
Li 7.064715247807411 0.9297446270905367 5.637450224571468
Li 9.111072932697954 3.6424997769684446 10.753291757629565
Li 8.372236089025193 2.0642691447384633 8.232379720628073
Li 3.7410291541416267 4.374375817861698 11.777255833907802
Li 3.7844762223387995 1.6583473963613058 5.891972146644855
Li 1.8603186347356089 5.488116367457371 9.419434007615624
Li 3.0121548296232916 4.3126285128775885 7.056673203489372
Li 6.153520294428972 2.7537631211016236 10.353906484521717
Li 5.631670895761003 0.3701972592019345 8.370957269550646
Li 3.3247960735142437 2.4379709178210827 9.244219965913722
