53
Energy = -83.70524093 eV
Li 9.69989761489099 9.4190680732857 2.7029140034908186
Li 10.730326620673953 6.567466234368283 2.0103113271983313
Li 8.44704618795491 4.262709135128081 2.1633601322420843
Li 10.996146944482524 7.802323794559537 4.919012261153972
Li 7.9181057151674645 6.994703077266095 0.7570874921871127
Li 10.419493841997618 4.734129345187116 4.519581834973334
Li 8.109073404026036 9.031868973092221 5.507224257962369
Li 6.872522390102143 9.382850256422568 2.255885906686882
Li 11.916285295211278 5.97768684680856 7.197927292556134
Li 5.851910232126961 4.580467768732947 0.3461556803016585
Li 8.479092631982924 7.022088335121622 3.5744686122779883
Li 6.380869004919795 6.680087690304043 5.883902587158609
Li 8.487244887093036 2.038437269763053 4.905656910443747
Li 10.099967962056343 8.57903099283903 7.955306436615583
Li 4.665877804499016 7.511039286159397 1.0137823153050243
Li 7.471314419579444 4.495379625298868 4.921262963569807
Li 6.087747503273436 11.117926313335243 4.86096854548314
Li 9.231918615299861 6.275337024271932 6.545878397848692
Li 3.993131637559481 10.254362107943983 2.436429662093494
Li 5.806122935430063 2.906280180031584 3.0851996994995603
Li 5.283512891328699 8.396872136347849 4.11808401465184
Li 10.082004624155223 3.4439931521845333 7.402759130982945
Li 7.56937556385799 10.531682421719125 8.209188867990736
Li 3.3301314562432527 4.6585360476970745 2.284560750928541
Li 5.9484554157310265 5.879689434808431 2.796295572045432
Li 7.296001916693322 7.520288949256255 8.343654585341262
Li 7.775027088403451 1.4236662737039045 7.987190590973512
Li 5.361754314421396 9.25206111830699 7.116197486039079
Li 7.520463072704651 4.230736021929014 7.778621191010995
Li 2.8460535030083163 7.383627745857649 3.5070976923984856
Li 4.31197444608448 4.858460665347837 4.9677569051585575
Li 4.676759564096638 11.822319785440516 7.660435215340627
Li 3.201541980666722 10.099488037427445 5.438676945518281
Li 8.569791091837356 3.2041370019230584 10.446644056048338
Li 5.59379376802669 2.607959509424718 6.251622580828152
Li 9.683123171781597 5.900281189565706 9.445086904035344
Li 8.152817238012602 8.401088094689928 10.735152373190484
Li 2.9768287805641096 2.411059881443688 4.546293423782329
Li 4.952281766903837 5.2236035459725505 7.898950118840754
Li 3.4961724258068245 7.2715655926520455 6.420839346835833
Li 1.6216451646629233 5.133265878013626 5.399525141055091
Li 8.681269086968697 5.792171953943492 12.388154312563241
Li 5.528532458010142 2.839707332842916 9.56696373061614
Li 5.381324950091954 9.87741560577063 10.312514033225169
Li 4.65088640032818 7.409740007855227 9.481251899141917
Li 6.846725598669746 5.47702798280089 10.344743410826071
Li 2.795598300558583 9.412125045389994 8.556362262757215
Li 2.964922524312477 3.413732057614035 7.601240956494998
Li 5.716173258336785 7.172393136840025 12.23223376940016
Li 2.086956893613588 6.2533618640698325 8.705431595245283
Li 3.852393668927887 5.008972850897879 10.815343177550218
Li 6.235295806891694 3.9139600767317764 12.537797291989923
Li 2.7936671969182023 7.95685701694432 11.40249851855895
