51
Energy = -79.98923613 eV
Li 11.17797987840142 3.3386715798734525 4.954372528007134
Li 8.567554339516724 2.2405289962368267 6.140510606794306
Li 10.556707177491283 6.151824783560652 3.652819113908107
Li 11.863350564959065 6.047682116479013 6.53828481972926
Li 8.127334245403105 3.8461833790557507 3.4983336152155005
Li 12.068741727231167 8.76677066175898 4.700595861358407
Li 8.085273288914776 1.938918585558638 9.237576803950773
Li 9.125500822432516 4.99187712538879 5.927167792270065
Li 10.58786793811404 3.6856274743436472 8.06861494416396
Li 4.78840808647878 2.770015467641641 3.943110706227025
Li 8.358465761347897 6.492541793953469 1.4574038446549635
Li 9.72532076411292 7.970690280812467 5.742573305371016
Li 5.7508839310629245 2.06135062236348 6.932091913906591
Li 11.856935575008078 6.30862764180515 9.732442831813449
Li 5.610888545046322 5.520568164392973 2.5609220994931436
Li 9.241608480901062 9.070032172498369 3.1050124752666495
Li 9.35916943738206 4.818414088642193 10.55982669551784
Li 11.474403005290231 8.860235427174684 7.839675574974504
Li 9.794190181029744 10.856949254269622 5.603610211790688
Li 7.346053207623872 4.2719898964289635 8.165309287136942
Li 6.779871713749941 3.7794669407127377 11.313355375676919
Li 7.664165274696009 6.710461854284838 4.079511749819377
Li 9.52207251062868 6.605118182446487 8.33724788224105
Li 3.0230027972226496 5.49324844711299 4.077358697410403
Li 6.237503861300562 8.685640535351862 2.443150295847004
Li 7.104861992224616 9.395924851486031 5.236351929140495
Li 7.598940841173697 6.421752144762168 12.65384354297334
Li 5.909199512778139 4.675497890637894 5.5376475817191855
Li 9.10656710767779 8.30207732193867 10.56536771745999
Li 7.083958159036963 7.017634657163437 6.9055884454078225
Li 8.587409126646685 9.522132087103481 7.879323981762791
Li 7.409572482508198 11.631502800353061 3.6431588502426537
Li 4.705884206645904 10.608695156062803 4.220342445222459
Li 4.823368539644744 7.440880171176438 4.908598869154894
Li 3.310475519477003 3.9067791969723897 6.608610865338498
Li 4.726390399406649 3.559256181351553 9.272961725073579
Li 5.926075477182805 8.845133513178945 11.498056802474212
Li 4.660953207005803 6.110040332947827 8.090000531999765
Li 6.303796722308895 11.538844340942314 6.834959370877666
Li 4.119922272228334 9.334429786429348 6.834915513170022
Li 4.598416523966001 5.936924756211496 11.335624577871808
Li 6.946081693856835 6.447852530844882 9.974613594514027
Li 7.336159691153194 11.181728856580426 9.989707181081199
Li 6.097544272754791 8.94817027548904 8.742700704672508
Li 3.0996316420811327 11.850596756314594 6.385943286240296
Li 2.2087803072527845 8.982418786490307 4.654692206599847
Li 2.311512019759113 6.890648691534301 6.757658616407991
Li 2.1378361273516555 5.291317881512821 9.303234024619991
Li 4.181583520264733 11.055077630032017 9.236875562812315
Li 3.3725835332275897 8.113491809891421 9.61440158736848
Li 1.559887335334242 9.66799829460442 7.752082583672083
