5
Energy = -5.07267145 eV
Li 8.038575820732634 7.347969309435421 7.660165985277292
Li 7.54838842679109 6.004430096085597 5.159066381169166
Li 6.0674828303185135 5.248120256204847 7.655751645761276
Li 5.5453866977195965 7.896979411710332 6.329834709995709
Li 4.720579229667924 5.422913931793563 5.115594283026198
