55
Energy = -86.44181229 eV
Li 6.3502786562862354 11.869082221816424 10.808090542745877
Li 7.412389053529342 12.055729052832673 7.5412364538544105
Li 8.992650950279444 10.247913043520185 10.543744309540863
Li 9.415493215936722 7.780364945916829 12.43270075367869
Li 6.518427323433169 8.792413860924913 11.752497056142538
Li 9.585119703574952 9.81931834561781 7.661828869941504
Li 11.158663041871245 7.951245137692955 9.715772005777204
Li 3.9537406267396458 9.868658097409563 10.081547006920282
Li 4.595129381682126 12.183971422321454 8.33936555849163
Li 5.35065536820942 10.223781935079108 6.352299311989768
Li 6.522056651017866 9.78931173749108 9.017299942771588
Li 7.939319826586494 10.04768775838454 5.164233036363157
Li 7.182531137599311 5.652487094156321 11.647410467734742
Li 12.626982493770932 8.468419581851219 7.028093317102945
Li 8.408698115464427 7.478834080062514 9.826696299103514
Li 2.571614422826674 10.215680702707118 7.197563330485414
Li 1.8254139661658537 7.859430116950623 9.124964473742773
Li 10.211054268267258 5.300497326377298 10.745420165311854
Li 4.481275641175634 6.8487312726641285 10.549749593030388
Li 10.732917335763773 9.360643448467254 4.6858053390542596
Li 10.246532720817658 7.229294214431252 6.971133781916345
Li 4.5997434895148 12.544924723800431 5.273343725430553
Li 12.061708559577973 5.387229917732474 7.962708110894376
Li 7.374775117406162 7.953799683718352 7.117758671443391
Li 4.353827636629758 7.91765871302883 7.775426263516908
Li 5.815546929853671 7.827969386031002 4.661418786519993
Li 5.8166143060957385 10.474638852479973 3.23461538024563
Li 3.3090937307705075 9.36890780734223 4.344542943531282
Li 5.089292691576852 3.534591381627536 9.9604579072822
Li 3.011668513258199 5.1186845642595085 8.374448964406177
Li 2.095958167808689 7.204602754342562 6.231636932452713
Li 6.28369788923867 5.730336311282009 8.751660040509815
Li 7.437093332692307 5.44492085381191 5.901519552962506
Li 4.691788004623463 5.2449283929048 6.242394962173514
Li 11.887651028845783 6.613392340354587 4.614827517513582
Li 8.948719817610085 7.200494706263112 4.581090752465524
Li 10.219069222607978 4.46747277304147 5.583936989656375
Li 4.080871916311205 2.337819876536124 7.232226009534368
Li 9.05996174113668 4.999102777099035 8.14779419666115
Li 8.048755230814919 3.1663656384504506 10.03103642156749
Li 3.5026316231950574 6.185848233720694 3.853397983138711
Li 7.93081058714774 8.245961546795016 2.3345828348343693
Li 4.9480562714365774 7.7394950713291975 1.8316935353595496
Li 6.463247338169192 5.450495235616441 3.1554063482170456
Li 2.1535790888254507 4.100424958800708 5.4894227490989165
Li 6.67034618208595 3.1221298642699757 7.337498062825284
Li 9.3204854389122 5.2062350977828835 2.656440919282146
Li 9.215238167878116 2.0460113404014906 7.3720726822045695
Li 6.522520381184756 0.8102406397964003 8.790225078659281
Li 7.926965708075558 3.039889787113528 4.6179864131599
Li 7.011592398627419 5.764113712133373 0.5170540469949241
Li 4.341090014070604 4.512702408756844 1.5711587500004613
Li 4.950381634396358 3.166318161279161 4.343083536916693
Li 6.944617996028412 2.9174716565433965 1.8490930186467627
Li 6.485469634214938 0.7651391264983307 5.724401987814213
