53
Energy = -83.35328611 eV
Li 6.6315154908432055 11.118405139846985 4.658210593312454
Li 5.446574227876026 7.000393213632743 1.4874500315861687
Li 6.451321058161814 5.115205089895511 8.757163078427636
Li 3.212054673194998 1.5463552258150566 2.988347157486672
Li 2.0590957105295837 8.804899439243018 8.46672136781519
Li 7.406067974698204 2.922461256129693 9.896704583543771
Li 5.596771420900646 5.52795100812554 11.43179133870769
Li 5.940622075199147 0.5814012424723669 4.987932656847308
Li 3.5013258367796922 7.7565947058187374 11.307582155315268
Li 4.433118552565629 10.3105918382755 10.16857296421711
Li 6.256801896880864 7.975348734605464 9.771212516957295
Li 9.53885125773884 9.732641652781284 5.010379785321352
Li 3.9149175848329754 6.539153930534774 8.8667214814062
Li 2.1104662089767596 4.451583782401453 4.745147412849107
Li 10.270530340231085 6.956712835494473 3.072370091349682
Li 9.211254882192407 0.9724055045898987 3.633946802816879
Li 3.48953579575276 10.217820627759533 5.293224594987181
Li 7.444773100692571 2.8797456438327944 3.9029328051365546
Li 8.566322365819849 12.165471931326634 6.951562980812454
Li 7.695840392271205 8.758476974898535 2.6959083503962975
Li 3.25498978701308 4.6533586142253 2.088906756891229
Li 5.852181734448416 2.46579526450907 7.300748189336903
Li 2.9907759685723967 1.982188473364285 6.399245710478708
Li 6.4244812388357415 1.0670687451771903 2.0728502006363905
Li 8.575312742443444 1.988711281166543 6.496174193830849
Li 8.262959766571216 7.2249024450108745 5.185367990676504
Li 4.045900698081539 3.583289085081729 9.478073638821066
Li 4.161622382486968 4.622640205978945 6.755214386349069
Li 5.083112999150263 5.751825442308938 4.100512873892193
Li 10.155737472538613 9.646577578682276 8.03091031650992
Li 11.138732047313768 6.858714441693809 9.353283796276122
Li 6.000843617098524 6.977175344702377 6.784905886302131
Li 10.793484972901306 6.992881800037706 6.267390945281485
Li 9.876973858759165 4.270691012324448 4.68188257101441
Li 7.167364577191663 4.613185886720757 5.973109375679436
Li 8.574902622127821 7.323238327990456 8.20580568158605
Li 5.911453753956195 3.8742494121625337 1.5797902746512802
Li 5.576418175613088 8.487742681071168 4.489580533517859
Li 8.469280148093594 5.841195161120107 10.758470114694727
Li 5.387378635854808 11.881175391320552 7.414680384386648
Li 7.6493537977294 5.678990611162117 2.9766656091224184
Li 6.346369900484675 8.670809468373974 12.346895646814025
Li 7.378190129158169 9.62644442730796 6.916872057691361
Li 9.326206290643327 4.603419569056035 7.927410355268996
Li 3.087812743876429 7.161980878379548 6.072825059863809
Li 4.773563864227929 3.0694173604407595 4.366796269129446
Li 4.793460397955522 10.048770490013213 2.323135602259354
Li 1.5740502239028518 5.123059764788993 7.907918051530856
Li 7.3592954342584855 10.710090655488782 9.494797014672304
Li 4.689475603728315 9.185631402440185 7.6148361967188976
Li 3.004571516318266 7.595724719475462 3.1670340841846714
Li 9.084417101253514 8.72177083522948 10.753516111743584
Li 9.032261936267863 3.4549392349320476 1.6489227083242763
