55
Energy = -86.04585186 eV
Li 7.9011781386290405 8.515672814725836 8.323722023796858
Li 2.8488618506025616 4.192461348381228 6.9878124601017095
Li 9.388468781078465 5.092509210593285 10.336173283559864
Li 3.3877036446895548 6.464717421669349 9.392786911876751
Li 6.420143557107696 7.386276336599528 6.140003086191483
Li 9.26761251212113 7.931681415872243 10.479863567915482
Li 8.5326084152981 12.693242435014229 7.605617506026415
Li 7.564766960234579 10.33251108674534 6.364460786831489
Li 11.297072771423165 12.446022792473935 9.231083630374094
Li 8.479437110018356 5.866949630958168 7.564670757631918
Li 7.945344083177334 3.589666940211213 5.926655809802446
Li 6.593881381557817 8.94996018100264 11.184237201726397
Li 4.604279168482107 3.7977705123059904 9.914751234245546
Li 9.462627948146183 7.978310618930443 5.718240586150294
Li 4.9597951625299626 6.2289296363698705 12.11970776423014
Li 7.471162304333245 3.351476579157204 8.87135591634036
Li 10.350442991856882 5.273026179318456 5.108149689292152
Li 12.073927763607516 4.602197574170348 10.375330855053777
Li 5.119626902970402 8.458455627299708 8.439484623834158
Li 2.5687517047586828 8.734727608732316 3.993243321389696
Li 9.826642227193416 2.341202801795462 10.575153758370345
Li 6.202363855551263 11.04711961614223 8.86697968307274
Li 2.591076629558235 5.434478817296881 3.863496881296512
Li 8.97073870418811 10.822136600038407 9.918465300369496
Li 5.527046771030024 5.208840203855415 7.656109599978229
Li 4.929686718889994 7.098540573754397 3.748881657723169
Li 11.660642505256952 9.506313473922635 10.259946077089126
Li 11.03796208684014 6.963805838558294 8.360816460176975
Li 9.692275812614735 7.219209950840036 2.666494012525479
Li 3.6256908838835686 7.087360239360806 1.3598745635680605
Li 10.401485342982722 10.113220907438397 7.603569896865531
Li 6.866666013704271 11.66759687439589 3.804679790179223
Li 5.177361158935469 9.627294415719621 2.290891508748506
Li 10.459611214930703 3.781233534715491 7.862757264604315
Li 3.487569701052063 11.664079925521126 4.203108380878598
Li 5.248421471853075 4.521405583379021 2.259254284663468
Li 5.020632056948971 9.703767229495968 5.351810203497994
Li 6.40079728102391 2.248454827568604 3.8655571534702267
Li 8.139060579356352 9.88462824487253 1.3128544237833846
Li 5.4164213476685035 12.386160659758248 6.414246935901313
Li 3.4217913850016917 2.4630390553891885 4.256757175891532
Li 6.861433125937662 7.05861499832819 1.534698243623378
Li 5.096689539586005 4.486904180540833 5.072762511621121
Li 7.465571453928724 8.818974135193038 3.803480190994479
Li 8.650140748311962 4.130586204820596 2.5371887428921798
Li 5.24095338750777 2.282914819652395 6.893485697191559
Li 7.60562356743099 5.843625702858102 4.259319096959145
Li 11.210915474474541 6.995426720249276 12.0701053266567
Li 3.480132559221146 7.0804610410476325 6.356095485360373
Li 6.6487656989020865 6.23606320815773 10.0041259918855
Li 9.493286850908941 9.587674909426793 12.690246194383619
Li 2.9913170066851604 10.196791093015634 7.088200562982639
Li 8.04859864242609 6.707559583475256 12.731732169594629
Li 10.061866092993446 4.281630933463453 12.873498937872418
Li 7.121534222614717 3.9347824174366925 11.824470090972575
