50
Energy = -78.18833696 eV
Li 8.84909266129372 7.666320317610692 1.3110452743978178
Li 8.013006513276906 4.651950974481558 1.8877955758151845
Li 11.018110623751504 5.563652661409438 2.129938024580955
Li 7.22341906877158 1.9695412982896894 3.289938007023314
Li 6.314423574946826 6.95848457056324 2.8292040088888952
Li 11.090360855760052 8.411519210595564 3.4050404295749543
Li 9.766683321541777 3.548468954175504 4.2161889111619155
Li 8.049189828650896 9.48986439321849 3.934077762530495
Li 8.994191867697849 6.4864311050063215 3.852301610363328
Li 5.047344028426168 4.008883369681052 2.7373207317374133
Li 3.378539969601823 6.406230330726044 2.1201485569497773
Li 6.928073155614927 4.352552545261351 4.901161612628608
Li 8.164379512498789 1.8539424652095944 6.107627812855096
Li 11.577968738765216 5.745439935114137 5.204485759920009
Li 2.4445689172247866 4.180681312039062 4.552569441630997
Li 4.226655251360203 8.763893351459188 4.025327433450601
Li 8.955790517215053 5.3533409462863455 6.613410655587229
Li 10.6745886665494 10.775876504919648 5.423685868803308
Li 12.655693085669068 8.496656741960559 6.088418857090928
Li 6.881326007807147 7.677017598440676 5.744589405787384
Li 1.7309599913423492 9.35584772538828 6.429926448920359
Li 10.64099997289385 3.3748196381032005 7.288990374372558
Li 1.8287243605421049 7.067872502299304 4.535345132429474
Li 4.507912016774914 5.9271257685552 4.824780454277381
Li 5.262445727042773 10.41588856742207 6.2627172095352
Li 10.81896717227522 9.539763066415178 8.38320223353852
Li 4.872432898919896 2.4325001588848947 5.544121647325945
Li 11.28578048152589 6.372002936340183 8.14337311556346
Li 9.917943713125506 8.17094142814707 6.055241725871792
Li 3.917074594475386 7.794203236668697 6.84097672209994
Li 3.482817476229756 10.04989507375922 8.677712407982298
Li 6.684260520897466 3.3368439161033208 7.893013653315186
Li 1.5821158643278714 6.17214249551377 7.307166852493175
Li 3.893406740080735 4.519139874731992 7.3104103421771125
Li 6.2561731001914325 6.001993259214249 7.831741880246428
Li 6.0263272956078335 11.629665282119849 9.131264476086638
Li 1.5059940564871828 3.0161569067742486 7.213986582670561
Li 8.701548254974181 4.695507000342666 9.483222140156546
Li 6.0945760294959035 8.889041871120476 8.5925134058165
Li 8.62187637919246 7.523937737436029 8.551516872361532
Li 8.161978597656203 10.266869219884903 7.182915508421693
Li 1.6848374388394562 7.885507099261052 9.827720078318908
Li 4.0603819480808445 2.026378258852426 8.617748928596663
Li 4.090064294221076 6.8245061541709084 9.44108936739935
Li 4.8387629685505225 9.20025285504586 11.118509481231012
Li 5.304783404144673 4.291611051697614 10.282818626086593
Li 2.3040597989784084 4.578679145847647 9.83481269376386
Li 6.700033998129328 6.84798532831127 10.76522115323744
Li 8.118612995875406 9.71130233438135 10.408060213046525
Li 3.6178534470340433 6.401570402335922 12.086355901561005
