55
Energy = -85.4901878 eV
Li 10.307375614769066 11.128157299690486 5.888848465733652
Li 11.551222164201107 8.152961847478766 6.671694899301089
Li 0.012985232774242158 8.292975606666833 6.408198816820547
Li 10.781325171599306 8.959097492955813 3.9372867871475865
Li 1.4599157724333425 9.541423450782727 3.971140678355057
Li 11.436834180419623 5.73530253491251 4.245814791803905
Li 1.8324298160690946 6.132723385369549 4.416521556836775
Li 11.718425795605913 5.110098853592987 7.376848540881575
Li 1.8160540323203302 6.056724284389198 7.551916461723443
Li 9.961870214852016 10.233451086216254 8.698715841976421
Li 2.04261135459535 8.774513509877202 9.00764480242181
Li 7.325864550396013 11.303423843548877 6.853902239863973
Li 8.567494108321352 7.378146488221497 3.686793537000911
Li 4.127891701489493 8.288828197670655 3.5498698242232
Li 8.67253581250297 4.2991754593884455 3.6354859186550805
Li 4.126810601777327 4.042514975810146 4.6960800482834095
Li 9.940989138016878 3.089948634536387 5.838434029642877
Li 2.0664584921056526 3.134244867741411 6.277317228149564
Li 8.85692995817728 4.416592687511414 8.258503828017885
Li 4.211197058260806 4.72507896264548 7.595560482934915
Li 9.549409594698345 7.135947948767114 8.855900421291373
Li 4.617961427919102 7.6207089416527145 8.33094948008101
Li 7.7446751520157315 10.272596734223129 3.963409942481018
Li 4.366863422543405 10.879569380098328 4.918896214625402
Li 7.160859794770128 9.061574899424407 8.783488329920305
Li 4.496170271935194 10.36906764823955 7.953685763247659
Li 6.056736996341864 8.739778649615806 5.738427735192207
Li 1.5896353591597592 11.004365743375018 6.7119043778315115
Li 7.365241984546848 5.460295891153931 1.301966728791703
Li 4.333107547171176 5.7195856187049845 2.0917437458729853
Li 8.125400895372481 2.2755990845260743 1.3787998053484833
Li 3.0228794165797264 2.900798168492862 2.3163008072701436
Li 7.385291037499478 1.4300632171782737 4.498647987282568
Li 4.27713472082289 1.2303775617194979 4.469097275357928
Li 7.8748814046693925 1.7709516765566227 7.856229435589938
Li 4.922759034209458 1.9813578259070026 7.234928666110601
Li 8.279906664866267 3.5417432084041494 11.000647028045432
Li 3.1939974218533513 3.0655073354733307 9.558859691010115
Li 6.771272808788918 6.483844969064443 10.317032665184536
Li 3.599807716100269 6.0513824089961 10.260482163526133
Li 6.439605823201192 8.311046618473329 1.9333093113280582
Li 4.766156540339077 8.95486609218363 10.824223567624806
Li 5.383357472501078 3.377326936724307 0.15232168495959092
Li 5.468336049347957 0.7625861556081369 1.7036796547148563
Li 6.814290012512344 3.8182727713401565 5.956830657406525
Li 5.9564943115457885 1.5994601986651038 10.367046447997307
Li 5.382304594589656 4.141711317138188 11.875082115771542
Li 2.761187396752259 8.64274510807939 6.212524469597627
Li 5.948493296979029 3.2301685463538155 2.8030677763698444
Li 6.16530892459151 3.997752612850448 9.189160006657273
Li 8.854939759790762 8.86861713208881 6.389778590815886
Li 9.450936858873835 6.050967178193089 5.993914833724012
Li 6.340911514872388 6.006216240142447 4.043089263844735
Li 6.923173376624896 6.378425002634986 7.212664304599785
Li 4.284318120642032 6.516557818325351 5.710296167990491
