55
Energy = -86.86249933 eV
Li 12.353627386935923 11.282672006503715 9.829253733653205
Li 7.050118876355518 7.05403849095255 12.053897315980334
Li 4.1613877380589726 10.69071010194788 11.2036706489223
Li 10.267385673617406 13.606408463267721 9.852070321271233
Li 5.614818680496232 5.369507467486126 10.002285213170312
Li 11.04591778914516 9.165871313982688 8.736737531301598
Li 6.814609628761032 6.140819592518699 7.5382612493080465
Li 11.737449312495974 11.28396214122209 4.251679134612804
Li 10.384137839116066 6.457820760404168 4.765431251116753
Li 13.832051225934835 8.275307219448809 9.255512968597548
Li 5.456364115005246 11.79366235793435 6.340039054413666
Li 10.561811851838897 9.34915940482338 5.851733542797527
Li 10.586442631366845 4.655387052852999 7.373761860343263
Li 4.997748668196513 6.378199595496221 5.1221869079520586
Li 7.7127286112639135 3.5412242143217973 8.567157130879261
Li 7.154244252009513 9.984834401142313 11.668277288277748
Li 12.075387048296477 8.79165679548588 11.877936769437257
Li 9.347756664623107 8.860186371960541 13.76264013072283
Li 7.7449340120172145 7.644105129371866 5.2173832122709305
Li 9.481205036611236 7.1865901761162965 7.411458083322222
Li 5.139986786650588 8.328258425537292 9.868044126276244
Li 3.795099605891054 7.038259166354936 11.847811054969249
Li 7.678375253589577 3.9803337245569166 11.767547676436742
Li 14.994628627891267 7.257671974381771 6.458800041533524
Li 10.51799980469767 3.7371932187705235 10.272206551261016
Li 9.113067639993362 11.110608320036178 9.38971086514088
Li 11.438676584623334 6.547249756185457 9.778737984365486
Li 10.714914684530157 11.984926550258082 7.171291307308895
Li 12.763958113486085 8.236559432547532 4.311226079631627
Li 7.73031524154686 13.153541745151381 7.80087178995317
Li 13.095153184074242 5.120658834799264 5.307182528087754
Li 12.356773800391213 7.158963309777452 6.957236678283447
Li 5.610779753068146 8.81766627635908 6.954918590240606
Li 10.106969764568486 11.277352272587194 11.95139528178348
Li 8.546228501908631 11.88352667638583 4.757767900167596
Li 8.647568585035591 5.840874515767823 9.913646581145661
Li 9.519539483946899 8.508557650866853 11.047457793440135
Li 8.032944697240165 10.205436420650107 6.780071153510225
Li 3.5316578976961943 10.455170843929404 8.271823867705669
Li 4.776099671522224 4.028567029221567 7.190778746592468
Li 7.7200581389386524 8.488497611767244 9.02370364040899
Li 7.874441126952632 4.6064218852338445 5.550693682522241
Li 10.047129111089538 6.0661721668619615 12.463939277317944
Li 4.06152618316009 6.692433167453559 7.837277006920702
Li 6.070146510912234 9.728172682567674 4.247087861758627
Li 2.1922657178903733 7.966671713053915 9.272722134690708
Li 3.0814083823320924 8.681621477974788 5.869628575397748
Li 7.311727063828821 12.889174108606364 10.897862751601918
Li 9.423641050875359 9.26803369992077 3.3770651087713097
Li 6.174589046340883 10.997617359125794 9.07665255259048
Li 2.739320221103596 4.943784818264272 9.55847052116352
Li 13.228463229998802 10.056906653538489 6.818992684936806
Li 1.9579922395181792 5.722108287095348 6.604685685584716
Li 13.596823637416021 5.085108317584864 8.402104690244471
Li 4.646281935608841 13.240558300914728 9.136015957407006
