52
Energy = -82.08890599 eV
Li 10.257363316848592 3.6510569819012155 7.196256094910143
Li 9.212804499117393 8.597433811574405 7.403635922732569
Li 10.68515193124401 8.073641484214097 10.021616137138997
Li 11.262178648289781 6.651270562876916 6.379980392440316
Li 9.573960592057531 8.51534963828488 4.282210534833191
Li 8.756225724473197 10.638858616926989 9.640902365713544
Li 8.247318757229776 11.148325320354093 6.1322300133680185
Li 9.312126553254753 5.933718211725266 8.664549312565807
Li 8.628467718199579 3.0086629978855735 4.806372017414277
Li 9.452124466655595 5.467212964016204 2.862342945699823
Li 8.436014350914363 3.126754953602764 9.858211723516101
Li 8.832869448849955 5.764243525187817 11.596162798174992
Li 7.715479633629299 1.3307739212868785 7.251660179386116
Li 6.294407380798641 9.830021716364083 8.190457172333021
Li 8.629020514237407 5.98700907053263 5.593841537316476
Li 8.66784775926108 8.172775615770847 1.13655865186658
Li 8.609743155326214 8.97189102348002 12.319615154227895
Li 7.435462376768107 4.106305207981175 7.366172369297638
Li 7.1091037436014295 10.165158307784274 3.201857902222656
Li 7.726879636800504 8.036448799916238 10.030693019315793
Li 7.122283692964259 7.180808112885741 3.193855440598346
Li 6.19416652887311 1.4613253954348508 3.7469684001539756
Li 5.883537091676861 9.99885613138572 11.119961955100226
Li 8.085207502668322 2.8025238666102052 1.6284923736285901
Li 6.322471159499516 3.7525984391281733 12.19783336075845
Li 6.521270599569637 5.285252978184652 9.96030468569689
Li 6.731766616527723 6.8780935122504 7.673403956759496
Li 6.963594639983647 8.707356994857705 5.629939798578338
Li 5.368528318368187 2.7243553367312114 9.215202627281437
Li 6.622439622688297 4.233873658346628 3.4637334840439977
Li 6.891099720447485 5.605529075753362 0.8252252397084995
Li 3.647839915916123 4.944401936872429 10.593103894427973
Li 5.381095880820768 2.9182352622163914 6.243354389159414
Li 6.007823872966429 6.918726082674176 12.249405752869537
Li 5.6501438387113945 5.904653214625539 5.35076730525885
Li 5.451960693472226 8.339359393478157 1.1715637786135418
Li 4.537655537724938 8.4274551090332 4.081741092868552
Li 4.392104864195486 5.928382530360735 2.627131963512666
Li 4.868565780559652 10.813624036899121 5.7545264853491265
Li 3.2100783681197576 10.003458258127598 8.587355379970216
Li 4.423439475090268 5.247527458743495 7.800155075539284
Li 4.686038001440479 7.649393523461341 9.692220173095924
Li 4.842204712228585 3.3019136435416327 1.4275630034974416
Li 4.238558217803356 8.096949578434366 6.8603394293826545
Li 3.6755910027228786 3.553846986851203 4.201248286316999
Li 3.748175619721671 6.044170657504238 0.028018201287457346
Li 2.321115527657933 7.803286866732551 2.3419555024503707
Li 1.9536799911359712 9.09496640497098 5.671598331987315
Li 2.3616843328146295 3.5823012191962276 7.386014362170617
Li 2.041433660785958 6.834112162823397 8.250135903723423
Li 1.8829633847498075 4.765970891837249 2.1385208844162316
Li 2.6483734189715404 6.110224405606296 5.210834498633955
