51
Energy = -79.85640489 eV
Li 5.272591256284788 7.2998337312618515 13.454026286885787
Li 6.131181388191796 6.953081395454729 10.913647406636
Li 4.858554299044442 9.543937473234736 11.093227637360567
Li 7.832519495062235 8.780651637609633 12.262688948488854
Li 3.6595382531109797 11.349711846877357 5.896527579197145
Li 7.074977098452729 9.492655415180367 9.401419889999392
Li 5.269601660381545 11.822003512018375 8.705782989184035
Li 9.790796148126866 9.83357395462368 9.868057464270978
Li 5.242535409547003 4.480325572643386 12.034029691146092
Li 7.984246738173171 5.526214663884814 12.55789741387609
Li 7.398448442271179 11.65625493212601 11.050679014435651
Li 3.252821954406795 6.694242312609817 10.778368814887354
Li 2.940643660994457 9.42206013503724 8.596501766684849
Li 7.162070596884079 4.830315785008231 9.593876957817649
Li 8.982947943251252 7.126853539632442 10.123401329853213
Li 5.481277064797789 9.620661504346 7.099654790914268
Li 4.801769705225096 7.327874803122594 8.534836870853027
Li 11.951329723188264 7.378933740942881 9.966284656208359
Li 10.009500556415539 4.524261191980843 10.353680591150166
Li 7.440054557695443 7.165558068657541 7.875221841031951
Li 4.5296280262197905 4.098260243355003 9.163432216748827
Li 8.36070033976798 11.857585839620963 8.005441615943036
Li 7.474214326606543 2.508964329381918 10.772190786948485
Li 2.7427831500921984 5.858779248216365 7.403730452918905
Li 11.315921537098347 10.190924333435142 7.449563144810594
Li 5.6687700398731256 5.253961852532248 6.8132108477242745
Li 9.682704619411767 11.462631563832991 4.970994898010397
Li 13.100505276125357 7.611080122238924 7.013259534415075
Li 6.093186191185628 7.639684398010539 5.3618461052649895
Li 11.806501272605566 4.795776435257989 7.955114451957759
Li 6.6776459471997605 11.414821565241967 5.447450506594196
Li 3.3249858840426505 8.316630793068645 5.783650363304337
Li 9.769315479904327 2.2757644912362873 8.425611428642137
Li 10.425716354556215 7.373315348935647 7.643227533849827
Li 8.956946258178194 4.80152865146102 7.458015886671028
Li 4.1027137184218105 3.110861303728773 6.091001809276202
Li 6.923335208985105 2.686808398383989 7.461830251369265
Li 8.541411341683743 9.379882647160061 6.702012135216268
Li 8.610899544927186 6.440181027124899 5.221690477022811
Li 8.121697224494389 9.167057170188315 3.778864285765671
Li 5.18247092180654 9.566075192239545 3.4515547134579556
Li 7.568501674139969 11.633747610909001 2.5568883111967673
Li 6.866566532460352 4.1552229156094675 4.643393294257502
Li 11.382345571065033 5.7516695331148755 5.1612752891402245
Li 4.087474206517971 5.709391179201196 4.459619954539859
Li 9.724475693854908 3.208310528749771 5.403567687787413
Li 10.875854748439297 8.623730653811105 4.882729475084217
Li 10.222620776351782 10.01122223337437 2.1777625687038893
Li 9.609351411052238 6.910740623706165 2.55791297513479
Li 6.507079051538108 6.6639352325079715 2.8071084730042513
Li 7.507966050614018 8.986796969221524 1.1050889494363683
