52
Energy = -81.76334489 eV
Li 11.355388767733057 9.5216746736084 6.695123944140992
Li 10.219678762322623 7.230505026365801 5.227887663807123
Li 10.729363305143298 7.0447761844695815 2.372874451824227
Li 11.380623730096348 4.6251131504058485 5.051875187528859
Li 10.381667070072455 3.940977902176197 1.9879764760963765
Li 8.981659579375007 11.79812713103159 6.526174999505493
Li 10.198617577096522 10.027825623676742 3.881881524165922
Li 9.847143751890668 6.7521701411040995 7.934555836361836
Li 9.413505310372603 9.341926933849292 9.06709544030666
Li 8.54415697973579 9.23285152991805 6.172060853290755
Li 7.2766469231239075 6.665803551669888 5.929218924982514
Li 8.765711631614687 9.337550789874031 1.0848385473738758
Li 8.058870051979246 6.184063326699304 1.0965604458082905
Li 9.28831962881768 2.3398833906157623 4.624213566889312
Li 8.12506280391177 8.008946270961872 3.380733805810512
Li 7.021702305464535 8.006915113324428 8.375106474042386
Li 6.019577987876562 10.345534249481936 6.618514038815907
Li 8.849155305760593 5.130615619614638 3.788515740464665
Li 9.138953055818806 6.449519819439146 10.967242844441781
Li 8.814913010509533 4.479869975740529 6.557933265962472
Li 7.090235811310586 10.978591057841019 9.244989060538868
Li 5.47255579926968 8.43000936700849 4.657313295687169
Li 10.232040869470083 3.8738338283430886 8.93153320561949
Li 7.209822689717859 3.4084933691828265 2.151190902565308
Li 7.275993442333714 10.714077277470489 3.78667373138454
Li 4.335870346610841 7.515068082501985 7.003165677508083
Li 7.992942786749565 3.317654288224006 11.050142249678782
Li 6.016945519736665 5.81287685469194 3.4952666383127533
Li 7.584271327944264 5.229482244403567 9.223323574276991
Li 5.852536919148344 8.391336691517052 1.7099113685324863
Li 6.5325646923633105 3.4626499026671214 5.110301171647619
Li 3.9289254553926023 5.304003811158112 5.372531846194433
Li 5.712928709953613 4.921117877423078 7.361253343949433
Li 2.9856638983311736 9.65442351385019 5.972006075832825
Li 6.776224535492388 8.446133975092543 11.072607284262977
Li 7.4183681964240895 2.4696064128333717 7.962676938786257
Li 4.793890946604537 6.5404481244925625 9.669776052395084
Li 5.993242219525447 5.531220750911717 11.941361586223067
Li 4.00231921088334 3.440201230231888 3.3971257825877506
Li 4.445614620881298 9.490368955293869 9.134419903414978
Li 4.885913461309787 5.439305699773995 1.148039861785059
Li 4.983158794973624 3.4801092954234023 9.785641011372242
Li 3.1876416515068753 7.098817068807151 3.4275257986790444
Li 4.166516812683372 2.5975051686149215 6.8050811054744145
Li 2.8490124998521242 5.000929445062031 8.100958757223916
Li 3.7754697788990743 7.965694744499888 11.802430608560828
Li 2.053503328813233 7.655347984498853 9.079804121278126
Li 2.5638457204813223 5.150236505180156 10.943596226387152
Li 1.426678743024551 3.7808538340872335 6.009031293859723
Li 1.5521205990557958 6.8556813370303 6.2033152463226875
Li 1.8851379233803778 2.644974099771006 9.018857841897221
Li 0.16785401896670837 5.185118040044244 8.638219677003178
