50
Energy = -78.45601036 eV
Li 2.002615112658621 8.426447864986894 3.1193065174968657
Li 3.1084102229671906 10.064430207527135 5.7854626463631345
Li 5.069935561788498 12.503788054908433 5.116038786559564
Li 4.610424824621547 10.190031131509146 2.989018042260519
Li 1.4869177550674342 7.353413852817519 6.059607806107723
Li 2.813475961806498 8.52754646513682 8.813086461040607
Li 2.7048486577892916 5.4298655152630815 3.8224807019934985
Li 4.7978349570418874 6.105921364901698 9.332203819677915
Li 5.074804675980223 10.970327054965278 7.960787821264191
Li 7.528172994395235 11.375523145295064 3.4910508896718135
Li 4.666382669244424 6.896283313248993 1.9331336189219261
Li 4.287613231756831 7.800961389381928 4.600375399041628
Li 4.921712623512581 3.713080517616302 2.2833761275193094
Li 1.288629630788059 4.150562663090434 6.297162730306325
Li 6.157122121004011 10.044394720583089 5.436916594519731
Li 6.953487465181887 6.52385701857556 11.634897661072388
Li 7.881746148744594 11.967206124300539 6.675555359876781
Li 3.5662669954326938 5.698762592760648 6.6272240657386385
Li 7.081283374150636 8.24566745634076 3.2999227012427506
Li 5.041432247368151 8.086610202164554 7.300104304169582
Li 3.582469987594575 6.697492085531078 11.623048781886226
Li 5.499541376174374 8.772877581460024 10.194618415525564
Li 5.720180027621857 5.388160283958525 4.328612843746281
Li 1.874037508386567 5.7215341278487575 8.909718488040514
Li 6.190302032866545 4.921686741446089 7.15558729606998
Li 7.251897290737171 7.245819824352486 5.899079725302613
Li 7.561174554370395 6.806585541688007 8.99894645363258
Li 7.620792314523692 9.36049636418251 7.948723579959054
Li 9.138949900895422 9.492475542237425 5.406157829925762
Li 8.604876425839997 4.756671214401058 5.521339284370744
Li 7.228619526397911 2.735488408179962 4.271423123310811
Li 9.785618797206297 6.810140944086698 4.049074639718409
Li 7.664099645419894 5.2296073676252055 2.4781883579712685
Li 3.8712090172113074 3.393209947613869 8.379973907860858
Li 4.30421178250907 3.1605720487079396 5.365029840031602
Li 6.544827357131002 3.819957802596731 10.027314741960577
Li 8.919026402626141 4.376318907239181 8.374174512518774
Li 11.54570512119475 5.086609527494702 6.069861912911423
Li 8.519744857373741 9.166167142955135 10.64251533283897
Li 10.586334037240698 9.603961349233128 8.179776666444974
Li 9.922773726572544 7.04819317208065 7.178902506248852
Li 6.919586342029518 2.2842711244184493 7.340033062817683
Li 11.976809774621234 8.274262532941389 5.661234826591346
Li 10.19192715143114 3.668755583472753 3.5705833089803236
Li 9.206802108827127 1.8496844264992267 9.526359629266802
Li 9.296613387515542 4.365721796343718 11.205840914297275
Li 10.255134035529442 6.85347832372158 10.043462474330386
Li 11.519769231968683 4.0598377865892035 9.051815196174452
Li 12.623803397757229 7.016838639454663 8.296997385968327
Li 9.926737837549231 2.4078562953606224 6.496691561710124
