51
Energy = -79.7790705 eV
Li 1.3947583129895507 5.437297736819409 8.614651209137822
Li 3.313862024997744 4.173513005933436 10.98136531680711
Li 2.9110240750827674 7.689689313417713 7.44955656682336
Li 0.980348848618653 7.317859621939763 5.131902552684977
Li 2.2140483170507177 8.845645745962381 2.6105056563798414
Li 2.583462727125214 10.120660834585593 5.569649679691292
Li 3.137325878806352 7.324607439873906 10.511726756828075
Li 3.111879996515517 2.774820151985198 8.055668115345124
Li 5.972377173379831 3.133208224385704 9.55832878539053
Li 2.814481315023741 5.047676013712381 5.948674867034859
Li 3.8305775705745146 2.7849902552478705 4.148541024798642
Li 4.226449907711579 5.286523313574437 8.739050106456123
Li 3.6568999710172236 10.277498517388663 8.815990088291176
Li 3.696292333489021 7.667037723545672 4.55409986341985
Li 2.601620573406116 5.592270613237082 2.8297128314671984
Li 5.37614846892765 6.567520353213582 6.590956464234002
Li 5.166725229711429 10.103179209328331 3.715231665756573
Li 5.272138224880427 9.363111051629291 11.5720589002458
Li 5.514632289992996 3.689830437381927 6.511707994363033
Li 7.168457829607223 3.0821805480652134 3.9111198364349744
Li 9.388038070177181 6.23291884641731 11.824882786679973
Li 5.038109963566015 12.13388008273623 6.343038954254831
Li 6.169745380955458 6.022737917277416 11.065865993134565
Li 5.1345843400693285 5.213537170432868 4.115014054185076
Li 5.4796474245460125 8.008119381600725 9.123436074656974
Li 7.250551464721371 5.463725989258347 8.390756691852733
Li 5.363238674856674 4.049866045698172 1.5910612728389604
Li 5.204996553443135 9.417134724713922 6.545333174043417
Li 5.11456518971598 7.404984533649473 2.0450560297199325
Li 7.9944443551190085 5.337746737271992 5.566813074269256
Li 8.043690053886198 8.638771986213063 10.543077502456418
Li 6.7548494012894045 7.743113269925835 4.618826723344366
Li 9.125074908459634 4.007209245080815 9.827458305053346
Li 8.328820858347868 2.8889099863125236 6.9895778398169774
Li 6.7100905727754245 10.710353495278692 8.69842448896999
Li 7.5619546149115475 5.748571122749784 2.7143032082211476
Li 7.720721955762511 8.097446539936763 7.4447011896307655
Li 10.212338326145515 3.6677980118387783 4.387789889139729
Li 9.213677197326296 3.6861532331090245 1.5661661079017672
Li 9.66990575812904 6.878356290584385 9.111822623218316
Li 7.754413381846091 10.4389472659752 5.673847757780229
Li 11.226890758798309 8.430801309170496 10.73275281175669
Li 11.905513214488503 5.450641085768453 9.910100031033483
Li 8.366645610995318 8.766340913262779 2.8069024333924393
Li 10.390692040673404 5.072343486689773 7.144783700619276
Li 12.503786172659765 5.6725683126940165 5.147277786852066
Li 10.313015729039332 6.111186677483011 3.2023731588403095
Li 9.786349922223634 9.769117556830347 8.2295327525813
Li 9.803943966242565 7.669425767483102 5.6395586002482805
Li 12.311029483455382 4.2389241810110505 2.273903379248289
Li 11.985037286542699 7.586787455186918 7.71252837057147
