52
Energy = -81.21404093 eV
Li 8.29368860061239 3.358683615328433 10.477363688770165
Li 5.475498735376809 2.0833059107427143 10.236205761793387
Li 4.683192928683725 2.6220130719782255 7.097754988762938
Li 7.4841624275380685 2.000830034171863 7.893591639431645
Li 5.847977002216585 5.083447130257865 11.53589333853612
Li 6.88241327672508 1.6958311312629448 4.733061111040258
Li 3.485662730213252 4.201027346473357 9.534050857972517
Li 4.147102820718497 5.808003105335726 7.027513179648371
Li 2.980399208101066 6.1882930605716755 11.741174884243604
Li 10.014255162697182 5.763749370852225 10.907700926404576
Li 11.1489445030085 3.5256625324762694 8.866262840540397
Li 9.007865407012686 4.997590696824016 8.270677352502798
Li 1.756083337379631 6.440002785438878 8.476387494129039
Li 6.866148737651299 4.236413675624795 5.721066660380638
Li 6.191605400766456 4.427222507037919 8.764661671656755
Li 7.535395700920071 6.963848911752497 9.991016748494935
Li 9.5055079095777 3.0302676007790468 6.184974019597848
Li 5.273131031318915 8.388551812859951 11.90412184186118
Li 4.039594724022681 4.188876022679471 4.509678002211186
Li 6.4056081696315585 4.179397697973539 2.7248066504897093
Li 4.500627756063763 7.136829159968006 9.529376329691512
Li 6.998496493758967 6.698646318313934 7.194218060952442
Li 2.420447150023583 8.744930060147812 10.407674554271248
Li 10.048798136840142 8.881540325322584 10.475207513021592
Li 11.227823423512103 6.711663996412917 8.333972217427789
Li 11.728176284308532 4.995787803398659 5.833757746622905
Li 9.163822294701514 3.8835362120806245 3.4273951080349283
Li 7.235932704573755 9.817346013475714 9.909216170919526
Li 2.8959506101115187 8.97088648595638 7.238012008709875
Li 4.506435508360976 10.536236386124093 9.440179543000928
Li 7.8243377807689285 6.53852267585351 3.447701733234203
Li 4.607548510045707 6.549075908869687 2.280543608075452
Li 2.627281846956854 6.994543113621835 4.856022093744353
Li 11.791576303303026 9.70071806652238 8.019999823161415
Li 9.260523557815599 6.068477581403344 5.689894942770251
Li 5.571208144048491 8.910605068155323 7.407827786585786
Li 5.485614975348157 6.723335327094906 4.772776892151738
Li 8.156239109034612 6.222093914128538 0.9047025487125798
Li 9.156242230392923 8.624072084966402 7.818306998580834
Li 11.052278773984629 8.180754986462858 5.478341142108701
Li 9.496238673447428 11.608059276993448 8.810187461675842
Li 6.640952794239852 12.756349561084319 9.213200225241337
Li 4.719764931622289 9.406816011339295 4.664648417064158
Li 7.697149657276002 8.802177243327007 5.220639348972049
Li 4.8247586918670295 11.813611603169065 6.652046719373703
Li 10.675640814731226 6.370500352871666 2.965738173193213
Li 6.575939528420495 8.820282966029417 2.3446148252845447
Li 9.830504721075435 10.94485653707761 5.748924217272545
Li 9.409460513143031 9.159971748382318 2.9682568588382527
Li 7.157831162861182 11.40215016498402 4.254701112637951
Li 7.331620113648258 10.964122582187498 7.207373675750452
Li 8.041621857021719 13.487605893774344 6.5540865789191045
