50
Energy = -77.85758076 eV
Li 12.100873146185648 8.907786204549545 7.390643631482128
Li 10.733204977841146 6.910103028738687 5.440758300981153
Li 12.264019392950102 5.809509328456834 7.951167284198879
Li 9.274663797206447 9.670181531230531 6.357814712711888
Li 9.239820636260614 6.383507767154741 1.9612616811743808
Li 11.714862668135824 7.826341557206234 10.28642001894897
Li 7.996965543974139 3.51922233420892 1.819351530504642
Li 9.188399240657503 4.596739850379389 4.381801675361223
Li 8.545989806299662 8.29459995649888 4.025138904800202
Li 9.803287747442974 10.165117059389287 9.289778750169578
Li 9.549664135423999 4.677820024015118 7.278893254492683
Li 9.956393742158438 7.377817667403039 8.233695313728427
Li 7.676887671923448 6.827448432855926 6.208611012177924
Li 6.452908164457693 5.908965154606368 0.7316830931359616
Li 8.686247156086873 2.056772661964329 5.8847247259401945
Li 7.211727150791872 11.397105459800658 7.489082462601941
Li 10.00298621026275 5.16080728729549 10.186977143409583
Li 6.255981147299643 8.339367397393172 2.5061748783784927
Li 6.842532213806311 5.689027724222644 3.480525764286941
Li 6.35717079314766 2.609465566358773 4.055316482605806
Li 4.647906328068099 4.145716075826487 2.4104455556991633
Li 6.794397890054763 4.178048018722284 6.319889310829051
Li 8.621612684450898 7.7762040073320176 10.975053183902753
Li 7.083865168278769 11.090317677864203 4.2329599375043605
Li 7.366639174220649 8.692353858698743 8.441277486233677
Li 3.6906139499850337 6.998930125403118 1.7183211024361311
Li 5.638496191669139 7.7422894268246605 10.565877806738202
Li 5.742594597800172 1.4185197029357375 6.588404026449126
Li 5.967675339466584 9.121781278833806 5.720020280603593
Li 7.935261599264551 2.8862791953592697 8.995971278510229
Li 4.035235608165009 9.81585598975672 3.550707069855395
Li 6.98170122289652 10.541323707545846 10.501978429760982
Li 4.533782513275984 11.639753932358774 6.003151645990826
Li 7.306579187727885 5.767589428341534 9.038080547597481
Li 4.31501007613723 6.778345774591276 4.450604118191465
Li 3.867922152455477 3.927481599659558 5.7449471406324
Li 3.278579150264952 1.7550937853252027 4.199725523267421
Li 7.200132788113333 4.916571167963705 11.585602206960603
Li 2.0543194859001774 4.847820059740781 3.456422816207847
Li 4.799286066793884 6.56288277112114 7.54193436949038
Li 1.625387568729788 7.877807822310867 3.6895173189500126
Li 5.148134644289274 3.587654524004477 8.545861459292547
Li 2.895077342834802 1.727257217115799 7.389256210919063
Li 3.059528303765662 8.913930523261847 6.254033783735991
Li 4.772684796620767 9.781954104637762 8.478032075919202
Li 0.9926899504468225 3.306128459188161 5.78608733002766
Li 4.281305098376763 5.259622753587547 10.596226869380041
Li 1.8691886415889352 6.240208529904811 6.164778267909485
Li 2.3862375003696807 4.522694309812994 8.355293797065377
Li 2.6752503054503003 7.524926808436999 9.104398032356043
