5
Energy = -5.01943498 eV
Li 7.37215352878559 6.693591483726835 6.2128155281047
Li 4.949938394921981 5.138174851792649 5.874434832801272
Li 7.740359262369452 8.758858064085384 8.311043765634347
Li 5.202856000959559 7.2472766074905115 8.058972328360964
Li 7.23294400777088 4.660350187711959 4.040984739906182
