53
Energy = -82.95795719 eV
Li 5.443758005704005 7.088507615588498 11.668801997138798
Li 4.2608488093302235 5.281606620064349 9.673575697422097
Li 7.138139602362368 5.351608272590299 10.009745922517158
Li 5.44071311332169 3.0035824544764713 11.064448801315846
Li 8.002045876193003 8.35119209007708 10.421693511497068
Li 3.1775559865405643 8.32067458367554 9.95173503296306
Li 8.446992035603902 2.6883257177764346 10.17197728292877
Li 5.567411392554502 10.278161431342225 9.74765836550521
Li 5.944258809964631 5.513536741031048 6.898528436315488
Li 10.125864221573712 5.739376052810263 10.002266094142719
Li 5.641286959820145 7.6740609208904775 8.657706128778369
Li 8.511308038703172 11.452978767517132 9.856785039748747
Li 8.537819243396834 7.1238569171002055 7.9027545462072295
Li 10.516700830179062 9.014967388889817 8.702545750580574
Li 3.640367150681557 2.3799350796840897 8.352448843242653
Li 6.182188141091365 3.1347700118324604 8.287940187641032
Li 2.4928937354923324 9.845348261790265 4.904934069453083
Li 2.899684149719797 5.276715569669012 7.325125897697886
Li 8.780806506827243 4.412860485473122 7.793004951836209
Li 3.177795587113646 11.186247939738877 7.901602911149604
Li 7.80099541902742 9.82491462670364 7.805774362596506
Li 2.8763105304229573 8.146786502614587 7.167794095455199
Li 5.112918106042317 9.804608037484153 6.697207564651184
Li 6.17513442082456 0.5277558996795372 9.184615904982362
Li 8.475147351352506 1.551027268727559 7.3565251051560905
Li 6.447279860604975 12.329695466878372 7.541257409848054
Li 9.579403961697938 11.755596055620723 7.019266087502475
Li 1.3584421485995481 6.442117449919744 4.984613381267403
Li 5.129770093491021 9.25186861848336 3.7920882299895164
Li 4.081045879167583 6.908739530957464 5.013859485938197
Li 4.779202447280639 11.930922508373227 4.7448710843287465
Li 11.065576069083175 2.962191394179072 8.447406423492238
Li 5.71623074658588 1.15302525276059 6.120923359809874
Li 10.8967371975706 0.39410039762451043 6.4582390131844045
Li 6.85728070688716 7.875951520843623 5.6550531402208355
Li 10.304686030707279 3.2078809391704235 5.5876143627458275
Li 11.174446477217689 6.043133988145134 7.143799237858448
Li 7.2848947937129545 3.5121034727235343 5.417731766368701
Li 3.6335254309844207 10.724626138365451 1.9705714041158684
Li 4.2312407938640995 3.746614548553289 5.3320042925649
Li 2.593966999599676 7.98229166359354 2.702259622329345
Li 8.471726231394797 1.1248303011597163 4.387182305667593
Li 9.754557314020097 8.73841572429047 5.701005693978919
Li 7.503752792554303 10.665635144431933 4.974740891586432
Li 3.7589686702079153 5.132746189226872 2.5915836427198253
Li 6.2647870287482545 5.719004004751357 3.6715693758466803
Li 8.888859451055461 5.886168031566271 5.198461486631378
Li 5.9625299921830575 2.7940384852304754 2.9944050799626574
Li 6.680545318122885 10.707451131902229 2.0320057104090257
Li 8.743783961368816 4.088775048491586 2.937273845256886
Li 7.974508143717995 7.904175425035019 2.92391703085549
Li 6.61554520218494 5.206227839341826 1.0010080117256253
Li 5.266721247055367 7.892513719688845 1.4283899296766975
