52
Energy = -81.45928554 eV
Li 10.360147433496689 8.445796330257284 7.209736409704508
Li 9.909374529412094 10.732602255038005 9.438777415140814
Li 10.596761313840737 5.3638679557751 8.131343940013394
Li 9.661676890059315 7.677089752606571 10.229918147585584
Li 9.605347439394814 11.508935598068254 6.434664637464097
Li 10.171382844777135 9.158895479074072 4.267897831661675
Li 8.61158199023636 4.5324592978272 10.525713642075841
Li 7.097919775397963 11.669222700168014 8.498862935610008
Li 7.85504584888725 9.118327977425892 8.413508038919689
Li 8.387664303850897 7.183656436032928 5.483055361236884
Li 7.456667109613084 9.899409559107763 11.122367325846206
Li 8.402479782217902 11.523879156649784 3.334128555162404
Li 10.942841619346122 6.185578980845051 4.99889161558175
Li 6.755611153242598 12.645098067865165 5.5839405278044625
Li 9.578788313453298 2.304050050420671 8.485646686651938
Li 7.688790746236674 8.621324278101483 2.6059029900656223
Li 6.723835169577171 6.962007138848223 10.6500081478099
Li 7.616275681640683 9.927294506704525 5.606969585435132
Li 5.121673361224714 9.047999394746315 9.358772829064847
Li 7.310928290530443 3.8012141820180374 8.254021783884857
Li 5.650239443058108 7.24592571743686 3.8788483156259845
Li 9.126728160257885 4.033783439529153 5.958768575308446
Li 8.086196044931857 6.374184238438731 8.126289573496688
Li 5.537350008961238 10.325269145170477 3.8952868297890997
Li 8.192340929089292 5.497967241200665 3.156451350028501
Li 5.781352737611916 7.920365592254258 6.601894323412117
Li 6.464966422375668 4.886234979630085 5.734104269721994
Li 5.939009846547276 6.371579238541024 1.0726264944813413
Li 5.177133476167056 5.955887579198547 8.436005269151655
Li 6.388244101860739 1.3951745313059647 9.540727123034905
Li 7.141053059362184 1.5323627164522464 6.600782074638349
Li 3.625674378876856 6.785178515833051 10.760493570861906
Li 4.818527506301827 10.504888334259563 6.803602170887122
Li 7.4538110059505085 2.60420039373783 3.7831067609986233
Li 6.832157348744246 3.487798433384298 0.8828515604162062
Li 4.701848096561745 3.091371023981466 7.820465828132422
Li 5.304717972994257 4.1172116347945495 10.551975841472137
Li 4.449287138232486 8.828819307215097 1.67863275821897
Li 2.9189671950002554 7.722183263366951 7.7053836291363655
Li 5.287207209150917 4.399647496708367 3.0043366407769123
Li 3.255692129152381 8.489674515907211 4.861576577843157
Li 3.748634409767725 5.407792039442029 5.7204249217860195
Li 3.08771516685331 1.9868635937023544 9.655073070428093
Li 2.4999896983346117 4.87601891740201 8.59354688029985
Li 4.786965985915894 2.505113619783897 5.132841107822746
Li 4.223625877429536 0.4127526800992074 7.2283616977541625
Li 3.771175109280157 4.199153664382672 0.6772914381646041
Li 4.74424806645252 1.7074679418078627 2.312017181798606
Li 3.0376364700660115 6.340375780347287 2.8561800884455506
Li 2.1263285135757393 2.7547161547667365 6.5851370282804655
Li 1.113757365636694 5.84413144004652 5.5840824362462245
Li 2.4862783068380456 3.593339254414718 3.6091026877082664
