53
Energy = -82.93255769 eV
Li 7.3776241097403465 0.7762724987822262 5.574203835622229
Li 4.7475378891535565 1.7887019035018648 4.746684320423641
Li 5.111476438709014 0.10286087203388887 7.6061975519186875
Li 7.039440979424729 3.5813031571954124 4.669034724014982
Li 8.99466997408299 2.793794888971418 7.04036057767571
Li 7.577535504457355 1.2160488195342662 9.16772953118478
Li 9.564259997782772 4.085427161736661 9.712692487321444
Li 6.044258939555921 2.6862842194502123 7.3881790881458915
Li 11.143619598686305 4.978558626660234 7.355858356778153
Li 6.870916760241397 1.9313883199401993 2.479688698992344
Li 9.742462490141943 4.20404932475327 4.277566697709493
Li 2.3220014600949335 3.5696704038981624 4.376905918162686
Li 3.086641260279051 2.477293966130595 7.236647567088108
Li 11.464873330366457 6.259325548303928 10.466986269621309
Li 7.7902323619647165 5.044665712076805 1.7287446778881717
Li 7.789533425679324 6.393444166294613 4.086913242664974
Li 10.324694616684297 7.068010850538655 5.394186344170053
Li 4.720091693160822 2.308993168252118 9.942548359599645
Li 12.189175605032114 7.829566786306564 7.947525501960728
Li 7.949344117541335 5.29328377855892 6.7558185085674864
Li 6.888135827809469 4.300171882865262 9.512149196889238
Li 5.053250669505201 4.523215063978854 3.0054661520740757
Li 8.134176487771757 6.834990891842645 10.930054903618748
Li 9.562009780521075 6.9680584199174564 8.576718222386841
Li 2.9521097023303726 6.5949631924358725 4.376537104406672
Li 1.7779816033197027 5.333251017193491 6.812346271726148
Li 4.141223229267431 4.978712908659652 8.60620960152916
Li 5.642456999713409 7.078844877644909 5.431307756885281
Li 10.485958575643384 9.217524414340986 10.412646513055808
Li 5.690938722549982 7.494614980666014 2.498006560104779
Li 8.124303438445144 8.319993260037888 6.422764294831102
Li 4.564514211861378 4.609655701852429 5.888823012945213
Li 4.968423677531583 6.049213013311188 11.064989004031451
Li 7.790770544733033 9.49852265150099 9.199253613178255
Li 10.219893064199727 9.882038302108993 7.5908163259823525
Li 6.362231788280207 6.9360538474713875 8.436435082621806
Li 8.812998502349869 8.205449784890456 2.392676714728604
Li 1.1876233426318892 8.292875345732154 6.389944013642961
Li 7.969000087751799 11.374336372749143 6.643007915349201
Li 2.117026706924235 7.26812200941895 9.445489094175258
Li 3.8905990805734243 9.423733487683839 4.880254928165112
Li 3.6743549871755445 7.559588830766068 7.262802453045896
Li 9.822618586149243 10.039022812511515 4.688189171948017
Li 5.745411840887991 9.630255474620025 7.101661139070838
Li 9.152294166661818 12.166913443728673 9.13977305734951
Li 4.833651272160533 8.917376324078175 9.829740656718153
Li 6.913134448617158 9.72151470496747 4.269198551300808
Li 3.146219406941147 10.452556461312408 7.772348476255748
Li 8.11333498584503 12.550823607030962 4.12317076003277
Li 5.935150586958348 11.910141152710866 8.773981827395595
Li 10.376597964582459 12.673747411636278 6.3161209238760705
Li 5.3407304196429015 12.171024344996695 5.7594305060984015
Li 7.657487242111825 14.0560247229877 6.9425373334062135
