51
Energy = -79.54356674 eV
Li 3.6475638511256183 10.578388209185187 11.048826588422278
Li 6.363507219822216 9.034429017551256 11.325365419009522
Li 8.431871000340108 10.109594701960521 9.31035493512606
Li 9.178444320338246 7.566178471791216 10.76675006798695
Li 7.576022257169831 11.616520475693141 6.641264632959507
Li 5.6781854987124945 10.585994223652998 8.68483181156932
Li 3.4883808151281475 7.763336325597426 12.262851578685511
Li 10.5513257736389 10.320338186377063 7.3525147305451375
Li 1.4127491189204604 8.39954173076784 9.948673998186099
Li 8.161228717027587 4.9475834556958045 10.10514484989128
Li 5.747393074176146 6.139087446334049 10.929106424305212
Li 2.8415952034366705 10.3189178203414 8.139599983034914
Li 10.785809221962026 4.645937802946612 8.842631166477934
Li 9.9197474581466 7.158842970587268 7.839010928619972
Li 7.154061385197909 7.646558962530798 8.69981394345418
Li 4.1956468731244865 8.254184604506282 9.635540316352657
Li 4.324111464753003 11.42485139066233 5.810664337167423
Li 9.668792515898762 10.867566454623754 4.487393622078402
Li 8.394776743602735 8.972678391293998 6.257734653344515
Li 8.788678764147834 2.2323008481727533 9.252336919314098
Li 2.5844881375562405 7.3489476076473315 7.332787776583968
Li 1.5734742397840393 9.469174847780097 5.707878847320785
Li 2.997883666116936 5.618382750003766 9.920420883079851
Li 7.980508540038 4.587810724292062 7.444019462658093
Li 11.325958500911247 8.205856986317825 5.391255569236134
Li 3.680317230917103 8.8428153951023 3.9441473853760383
Li 9.72575570861951 5.751065930376164 5.233100984946998
Li 5.13100282649841 8.761143923382882 6.541232559922074
Li 5.1077925157376995 5.9911713607506805 7.846678560974347
Li 9.023970586180418 8.121324498745409 3.527263453816784
Li 6.590869326445604 10.000654430708037 4.259294457305987
Li 12.255547672258603 5.246267799988388 6.013745085346558
Li 4.113623862673057 6.249320759249879 4.916565213428288
Li 5.607585752790347 3.461417733972364 9.042800057157459
Li 6.98549617240078 6.514695977434865 5.428872179174224
Li 7.928061393967591 3.464644803161909 4.573773871296763
Li 2.7608976762509645 4.385510147593866 7.043899389130526
Li 5.402410188934622 3.8536304395029894 5.92526087986109
Li 11.548346312689649 6.317557958105557 3.0570116869448216
Li 10.10949477056251 2.886219244807952 6.54619541662997
Li 1.397224854506986 6.448384870568111 4.684438401848726
Li 6.136221600357735 7.3766315808590575 2.831345419088022
Li 8.576609398881576 5.418225826280434 2.5032599052632913
Li 3.2793019140047317 6.312788479798557 2.2120270689766026
Li 7.193522117029877 1.7133459264338604 6.820921603799294
Li 5.757639282270896 4.455134617153573 2.957922230514345
Li 5.794858823628874 1.5930881429212795 4.014490669758762
Li 10.665599012056285 3.422645437333531 3.644631203716832
Li 3.09863857790844 3.7091859528936713 4.009752346408378
Li 8.030785700769153 2.464799209276502 1.9645155472936995
Li 8.93407181131086 0.8851986588768722 4.487950093118458
