52
Energy = -81.23757824 eV
Li 12.30699800601881 7.548409044481712 8.517274640316097
Li 9.644416810787247 8.973777605721674 9.606350795286144
Li 10.438201249401196 5.973845286669907 10.5140540763247
Li 11.87564607050072 6.270407221022498 5.533477600570282
Li 11.919649799281553 4.533170090952399 8.13231846987152
Li 7.960136633188779 8.702747406805479 7.446476414388011
Li 7.561542711919459 4.187148626070588 11.665216506347477
Li 7.614195144700498 6.601578256519088 9.75585007161789
Li 10.52693379805985 9.153373240777302 6.412479263677717
Li 9.950650891921669 6.483348021686764 7.717872520802671
Li 8.98471002517306 3.769570831468002 8.98537786156891
Li 7.148056019685581 11.346836048722682 8.841904444251458
Li 5.664762836336604 8.815991834796064 9.28184493176349
Li 9.112682093391076 6.8326913591303775 5.003838797393936
Li 4.694356788942725 2.7725557847504634 11.407881073591852
Li 4.879759960784993 6.054486419673897 11.079663618144457
Li 8.387121588763359 11.73859592424647 6.146566836117963
Li 9.730880536255604 4.004062110475173 5.842115485197679
Li 7.079249866313592 1.4249170418058872 9.864580648621406
Li 6.37331258654766 7.430377732396909 5.804606519865747
Li 7.398419990251276 5.360386586225572 7.234424876606892
Li 9.358925614251758 4.7653525335627025 2.7980540371886016
Li 8.010206201922118 9.458709958020162 4.287193732892413
Li 7.082946475204339 2.4433058491677713 6.809703351573007
Li 5.575572537602846 13.091282028826452 6.629085590962259
Li 7.194770645094384 4.686051487844871 4.5647263776409535
Li 7.076326296967048 6.927672561587684 2.783737914930583
Li 4.479746777870554 1.8113179849212104 8.28455956313513
Li 5.130986323011632 9.018044313285856 3.8365286057528722
Li 7.416555289359677 1.974375369080123 3.5814519636340774
Li 5.928677574608657 10.405629009482928 6.396754391053197
Li 6.022590985951002 3.966985460092259 9.389640666940274
Li 6.083021759881249 11.808708851281263 3.7874472851303196
Li 5.1408395853710065 0.505724467496596 5.483485836438386
Li 3.8612044158548837 10.913289457338207 8.269837735969537
Li 4.979984653642697 3.0148047306846983 4.4193454827442995
Li 4.5687978573041494 6.01339211625768 4.406692583842166
Li 4.931759386236156 6.442400924769282 8.225001705740105
Li 6.52004507084214 9.619645461854756 1.448954129840617
Li 4.782042816481723 4.236487998825748 6.726054648724773
Li 3.3904098070891324 11.051435644042407 5.121878113108473
Li 2.6796381160840825 7.760045896650128 9.187311751194722
Li 4.292821373673749 7.193315954913705 1.709955982007371
Li 3.6096391840527424 10.330289276478554 2.02792273807803
Li 5.819600455032434 4.229806117358852 1.9938361944960168
Li 2.6241940302632867 2.5117977261444615 5.746085914946012
Li 3.8044556976899 8.438355112866553 6.550246445062918
Li 2.3765484257645655 7.984105104756495 3.9601466972107167
Li 4.250766318908044 1.3517989966209567 2.5439376771430124
Li 3.06146292328271 4.4452223520580905 9.144046102077537
Li 2.420474694108296 5.746745353031216 6.32109655729212
Li 2.767674422202722 4.407777273687343 3.1571158346061825
