55
Energy = -85.6105219 eV
Li 6.415063098150045 5.862214123570008 8.74685408333244
Li 8.10222249471827 6.369748776987137 6.363080667276726
Li 3.421555467023907 4.057477237913627 11.036830604816338
Li 1.6374582388542323 3.6278485532417157 8.57294665451865
Li 6.386641824500066 8.770177339700748 6.659879183385161
Li 9.538965230317103 3.8780837070917054 10.869737028816045
Li 5.024689135307949 8.400480779568818 9.152047561414285
Li 9.700466488269964 4.011404091629494 5.852874672925981
Li 5.049748153848369 6.687701986611115 11.387950777011106
Li 8.242675124146194 3.5695807740531857 8.337120653275399
Li 9.542959286099086 8.796142162051632 6.9416619315388886
Li 7.9671421855240085 6.559833122539337 11.378407006379485
Li 3.203733141722187 1.223216796660486 7.543960925511148
Li 11.32927790910408 6.47726848208874 6.456838974144132
Li 6.355906298580839 9.342958752848027 2.1356430947790206
Li 9.627819724335211 1.2678533844767303 7.653055656415508
Li 3.0436808416729555 6.668958965851579 4.031629592515963
Li 7.88987266101956 6.834384023440624 1.6198427013195318
Li 4.57444522898701 3.5726234095143568 8.380595901742707
Li 4.919755383606875 4.314115944454629 3.4438944582933195
Li 4.765551725075044 6.8666801038375445 1.6510897413198877
Li 3.2644284850165843 6.133888191631852 8.920774628014964
Li 6.36128072636572 6.859820903755061 4.060004062248153
Li 3.0504287798797787 9.339309068812751 2.0413566723642567
Li 6.382780305052106 1.4293668924140042 7.704219780094768
Li 11.207889384978559 9.251791674897039 4.510865558455311
Li 6.321768050951698 4.353980862936167 0.8325082225232917
Li 9.604452588576574 6.103299267166216 8.831332930345182
Li 4.523438961287243 9.155762609240082 4.36588764117063
Li 9.605195104195678 9.287988857322913 1.919883347533185
Li 7.80300956352673 8.320371406388599 9.182275794039008
Li 1.4410913611688392 9.114288475744424 4.623163295587896
Li 7.7911757019659955 10.984744567984508 8.264973289530559
Li 11.303973815268959 3.718652032408956 8.363316444127795
Li 7.82158246583919 4.31953152991303 3.4370159113095187
Li 4.860560868623155 11.043562517254326 8.210867200741864
Li 4.680594941643872 6.349314609716626 6.403837933633781
Li 6.426586551900773 1.8822463612986282 2.4831347406111837
Li 6.347796030494042 11.30046740109673 5.470285895206935
Li 3.213929465555521 8.771206142458075 6.958106696414018
Li 8.207543350317758 9.173372607364149 4.344708226538878
Li 3.2379349947548053 11.422097639430191 5.5356330408750205
Li 6.397423289172773 4.017373057010891 6.053253321176675
Li 9.683421868424611 6.7087080268932375 3.953375767418524
Li 9.412101844242043 11.46942988688487 5.638060523840838
Li 7.959193748836421 1.7334147383862086 5.158763361094502
Li 7.9401668995517 1.3659915645822684 10.232476881070472
Li 4.782295729709484 11.720070055852124 2.9493260903457865
Li 3.103615874929025 3.967073845665439 5.913812271129447
Li 4.673445830614351 1.4226578608875797 10.228805394246981
Li 8.023920457486748 11.703337381080585 2.966991198015073
Li 1.468804985695005 6.389406196407838 6.596732184556602
Li 6.439538960886068 3.8982498870509423 10.747671844553974
Li 6.433871337245224 9.792483507699991 11.175203923123417
Li 4.883275286564842 1.7361351058170396 5.103581308913851
