50
Energy = -78.38657331 eV
Li 5.977507628390466 7.875199440756827 12.953124960932932
Li 5.277748662923824 5.810428375181325 10.832726475819086
Li 7.311143132774659 4.405443578152423 8.370695144999914
Li 4.751503871174722 3.1982410124764256 9.508340516362631
Li 4.817772507024292 10.6428288581219 12.481693378967787
Li 7.908284550957335 9.957632966429493 11.783310846867476
Li 5.701689912047228 1.7066507522258167 7.125184252501698
Li 8.011737816654694 6.983128537880419 10.639331951201516
Li 5.531938049046129 9.060781515384486 10.418314090112078
Li 2.584423075484344 2.8708984853119173 7.258448169979354
Li 8.934693844154518 2.058211395909311 7.057939021783575
Li 6.140872970494835 11.816442152240251 9.83909024102019
Li 3.2397704275128256 7.950459366208637 11.383259040418858
Li 10.635003181001686 8.253177268277495 9.675014557688183
Li 2.921086825908305 5.4261199377821265 9.009462347090988
Li 11.810307794647612 3.490166317382292 6.287937151398478
Li 5.7728593093456615 7.02411808699597 8.40245032924211
Li 4.721597832513056 4.548523333774104 6.919003040681191
Li 10.298010822466276 4.8396354298373865 8.950873627111825
Li 3.153239872492713 10.742353380411316 9.849015144101234
Li 7.088809305877179 0.6939600072204098 4.595872728748058
Li 9.58960413250692 2.6297218023902404 4.072354939794889
Li 7.947551559133899 9.584967869659007 8.895468800840051
Li 6.995993931338781 3.317193514914857 5.297187827057015
Li 8.830706873180459 7.037291677915926 7.892679587859363
Li 11.113306715724963 5.458375356594179 3.862195452245508
Li 10.072440600725143 9.539628064686886 6.726939636898716
Li 3.1025344415140133 8.122896617468857 8.295551892262962
Li 9.44173172298086 4.7151631271287995 6.132737049234674
Li 4.311441432433255 2.5209858988842435 4.658848602825379
Li 8.104584774494578 5.248744947669306 3.355363632120082
Li 11.520265431754112 6.762475561698008 6.732782388186352
Li 5.008550519271047 10.16738627154943 7.591769386963184
Li 6.5951313058233705 2.964580736665034 2.4548777499998105
Li 2.3877629816535975 5.914546208327052 5.812624220106669
Li 2.5006674169250185 9.396141370422912 5.67205804796911
Li 7.1705848274308535 8.865056010161428 6.263058560672667
Li 6.9443269928465226 6.065512311573163 5.934493594310112
Li 7.486034506674935 11.636634939714837 6.710015449659698
Li 11.452456235208727 8.615569591708878 3.9689309346481276
Li 9.248262617657675 7.405014572394138 4.942238350047286
Li 4.567040721963777 7.617062572413541 5.7689833095025085
Li 5.318351797566156 10.257248935103025 4.449857773259535
Li 5.046870330565636 5.280173542147103 3.9060522201258507
Li 6.178427718764761 6.278915892286708 1.217947188202527
Li 6.608649939170299 7.773694841667986 3.5483267853202354
Li 9.025894147640022 7.731893052004912 1.9898346027578186
Li 8.432895514574488 10.091970559494381 3.9442469979196515
Li 3.792454949311421 7.9597281607811405 2.9854500965863866
Li 6.3169563881858 9.450926975342133 1.4493424726085784
