54
Energy = -85.44795324 eV
Li 2.467511579128529 5.401459186225103 8.552536276884043
Li 4.4472368206772055 3.1346621668460575 7.315187871745624
Li 1.3175560034276874 8.215145939607224 9.437380306974944
Li 7.01350334905231 4.172428169606038 6.192761278375506
Li 6.950807161508988 1.5658768317057472 5.822606730809003
Li 4.003996884898444 7.288117033708793 10.758586925355258
Li 4.52545003142121 3.6545720771434675 10.442483231231314
Li 4.206894088940345 5.762810903693969 6.232819443343597
Li 2.0177387507153233 4.233253139397815 5.57197778265635
Li 6.7627718987064736 5.596973045115528 11.538580724664326
Li 6.1064610638774015 1.213483698378372 8.900484602400338
Li 1.5871005876067414 7.343757234254492 6.237993115385812
Li 1.769190067033559 10.346587052103905 7.358433817587664
Li 5.2147092121672 8.40943255586606 5.525103136329175
Li 7.0734581187875945 6.865309941884445 6.747136575463776
Li 10.04455302013867 3.1964042625247084 5.458558879223801
Li 3.360993867825242 6.475941846110414 3.6761170837788635
Li 3.5443242605170333 8.315297280667885 7.858831305540035
Li 7.383385709945563 2.5126411971754354 11.332174380880181
Li 4.808362827327312 3.5091062805039144 4.259300757297543
Li 3.865829824224335 10.281586520561289 9.893891749445416
Li 9.052330473525961 2.167919901395031 8.264762254089124
Li 7.836329383820656 3.664523334054601 3.3088056540094937
Li 5.305512692302324 5.983045146671109 8.775631277536814
Li 3.082686463204417 9.633182317459717 4.568813102788992
Li 5.471997381433057 5.128919478272911 1.605110963865305
Li 6.983135769360307 3.8667878548435195 9.020055632734119
Li 4.758668177647056 11.086887675947624 6.929561488472976
Li 6.735392928546431 8.83665762774083 11.30434752506084
Li 6.144026956418175 8.841736893696867 8.674526638714275
Li 9.653930820674615 4.465332882906996 10.367737465972175
Li 6.246669098998668 5.99175203716444 4.050691271069558
Li 9.442008393029038 5.071168634253494 7.553312698082435
Li 8.320835738157069 6.604571455148254 2.010164826160799
Li 11.832587812462878 3.8042970357694097 8.032513573694809
Li 8.127474889054882 6.764522127747232 9.418227456316247
Li 9.094756099985892 5.875892913404363 4.726044883433998
Li 10.951355728490881 4.916251064445818 2.966580581189881
Li 7.822097481194992 8.512268856376965 4.206040052877928
Li 10.634676474302644 8.101311295671666 3.6701856373874016
Li 7.511077026932638 10.170273257921883 6.674244212120268
Li 7.348223312873394 12.875637689459706 6.169648917332221
Li 6.231946403414956 10.91190702059964 4.019822432059035
Li 6.932424753533461 11.543450680217578 9.177074686482285
Li 9.511893020844152 7.313754669548356 11.714790046988167
Li 11.165475218376065 6.979023018189336 8.858057049679955
Li 11.721272656286727 6.06317392906292 5.825585014078096
Li 5.548987708962513 8.326083222743332 2.409777249005231
Li 9.433123130681647 10.882091961268411 4.606912647263944
Li 11.770844389828657 9.327594915886298 6.5383234077224035
Li 9.178128874071266 9.335163744109835 9.34338051712201
Li 8.339277049822106 9.851554899093601 1.8522752203493553
Li 9.477836288237041 8.143113613347632 6.668794796099256
Li 9.755236829594049 11.49384607187073 7.515537513551074
