51
Energy = -80.01172017 eV
Li 11.29428609584542 2.6474849529007725 3.197394364102945
Li 12.059180779321663 5.984998391654226 3.4664582194120217
Li 11.13234997922725 4.462302562305582 5.926102576700345
Li 11.509595677399458 9.165752073968042 3.972872276741249
Li 12.424751485001895 7.3310557294692495 6.391502894065984
Li 10.113686364355722 9.509961978600618 6.805310845062533
Li 9.38578996275117 3.7991951882909536 8.453004108666352
Li 9.01497854943896 2.3547251361977577 5.3055947939595125
Li 9.881541100745045 6.712338582400146 8.16411668355734
Li 8.254622174442828 6.133348185475682 11.101633358212883
Li 9.422882014698494 4.660445899024819 3.52559563995699
Li 7.343066110064761 5.151679180316717 1.4230289341429896
Li 10.030403138081832 7.145262751925393 5.113555175081859
Li 8.411366190583369 9.494735785421277 4.250231408967647
Li 8.245909006974934 5.142183059917383 6.261100460561531
Li 7.640152865751184 7.8890685539836545 6.613255986293826
Li 7.003695514200091 10.766590449393203 6.718947098938056
Li 7.109314967391657 3.241300715033736 10.234112592601042
Li 6.8167972832464825 2.9390109933023543 7.1617292666394246
Li 6.837150419308274 5.904788834304876 8.858388013125602
Li 9.498729342636159 7.457674837774676 2.2454774744114983
Li 7.978876554764746 8.940211328924473 9.214912893756043
Li 5.4997694164412305 8.19453918473225 10.577962937632456
Li 5.121617398895231 5.25120775428337 11.16846171925506
Li 8.017063102841643 2.1966096030747786 2.4376266054547777
Li 5.2706576300117804 11.131703416878102 9.273979848797508
Li 4.568345935598646 3.8149690034839345 8.58925835724928
Li 6.572356203406171 3.99650407963205 4.1871537041476685
Li 5.3818907264234594 8.61359769381752 4.748291766286096
Li 5.297601945397514 8.765133209210193 7.824153046288406
Li 7.29743949773884 6.699443374105176 3.886212655428146
Li 3.7448946685543185 6.538573785360969 8.825842713354595
Li 4.897534657796378 6.380661576441203 2.4024185936994304
Li 3.7872205960274234 10.709647008586767 6.331525415245172
Li 6.062065913807819 1.1055846103111495 4.631734848204766
Li 5.379520254303216 5.9510304433589845 6.386153781170777
Li 1.8344161957039908 4.36306430589805 9.694326121400964
Li 2.960815158882028 7.776402799361222 6.33942246907192
Li 6.6164637115878815 8.686548164698287 1.8755251887141287
Li 4.592818481929457 3.1870822194111916 2.539847514825475
Li 2.6925287116228103 9.434460359139747 8.877836228297273
Li 3.450998886632404 5.613522268958699 4.435294758760499
Li 2.3007363885480854 2.0359359546422127 7.511512565162244
Li 0.7765710255633043 6.962103363062331 8.109712752342576
Li 2.6828007169283823 8.522068274642885 3.6290990589305228
Li 2.372810955350691 4.840703046105276 6.954727198875507
Li 4.327908731681792 3.175651662621367 5.655722438758948
Li 0.840545669048704 9.461921379721762 6.141587462304427
Li 0.6750827120439543 6.409743478016721 5.101678933668497
Li 12.424751485001895 4.024531046095022 7.147745417537621
Li 1.5901459298815013 3.312792895670743 4.601697115273931
