52
Energy = -81.97760399 eV
Li 9.952164378597026 8.175300870881387 6.25747105326805
Li 12.317943433108793 6.520760249772822 6.968161955086999
Li 9.609279010419945 9.604236659844947 3.66625211019759
Li 9.193135457957618 11.18661558770596 6.522265366945407
Li 11.145414720014479 6.555174392305345 3.9658433315636397
Li 8.113830224043822 9.065567263938886 8.096861455779061
Li 9.880851247283513 6.6815866744759065 9.007259257981849
Li 10.77431207281693 9.551281664540186 8.842544245168222
Li 7.308735960320752 9.346518120344665 5.237721063208992
Li 8.13413654261538 11.405471104348127 9.8103038518226
Li 9.47189426702661 7.533625542762657 1.3540791857097596
Li 11.639540301297556 3.7453187209533096 5.017030894944801
Li 6.768641698420036 8.964133716266732 2.4335358573349364
Li 6.1857549367799285 11.422148759457237 7.236319553927624
Li 9.858121173199187 5.236026303150095 6.501214128643631
Li 11.496716170603072 3.9083404918625027 8.33831995416688
Li 5.836891428267888 9.649132143130098 9.76222879663713
Li 8.517040034843646 4.154146884834162 9.039245632842231
Li 8.38946460396063 6.8554765861106635 3.8541403101538485
Li 7.205939116244083 11.78334087975092 4.073624477276584
Li 9.867808278731413 4.565970058808556 2.0851770177719042
Li 6.268722367372635 10.418986135362422 12.340257093076175
Li 8.384067101481882 8.541249945519983 10.994707100821383
Li 7.392899177331234 6.599404561461528 6.362575694929684
Li 4.98102393727625 12.174203607098354 10.144497995040025
Li 6.984168550479997 5.791635605852852 1.8252315226513123
Li 5.196826126734259 7.207120844229381 4.349957905895767
Li 5.400616026718366 8.573195459888801 7.083782270839247
Li 7.874066460317387 5.437240053154355 11.57142200828064
Li 9.351445395010488 2.3006115047263322 6.766468366152424
Li 5.56477213505277 7.40191751639693 11.676879428902431
Li 6.861602813206015 6.69511098390461 9.1548476334548
Li 3.3489260529779656 10.319805056468189 8.187783347891134
Li 8.550472897763632 3.9311223682825687 4.428436604129479
Li 5.782538239802381 4.489338131567829 4.3885737274858325
Li 3.3431739485305805 9.536308816498886 11.204035170240846
Li 4.107298624268352 5.067945648483847 2.2130793406481377
Li 3.8953696848945825 7.456164423374954 9.22068025167538
Li 6.728036514430111 2.8306292941101314 2.3204531247531968
Li 4.721657879060534 5.735651148638788 7.0193293292593735
Li 6.736838359770733 1.7479048553926104 8.614764405206133
Li 6.926896148561215 3.9553839121230396 6.954841375607015
Li 4.539843944251891 10.179736561204498 4.83930203898693
Li 5.186705275414573 4.509864909434257 9.727397015900001
Li 2.6836954872479586 7.837687094456322 6.402090071089577
Li 2.7340361075878805 6.255297705358365 11.342328230253829
Li 1.2599016638577536 8.151973077684525 9.25837195124733
Li 6.65764860113122 1.6824349445606517 5.329319581010803
Li 4.071094538464758 2.434863160068555 3.8406357759273817
Li 4.212455081964526 2.9347425761491084 7.009644163157371
Li 2.8582726083421477 4.9820068343137205 5.0919376459235295
Li 2.23146480065804 5.237434022807025 8.32265199237227
