55
Energy = -86.90378673 eV
Li 3.781282973463029 6.00332143755893 7.769751359345413
Li 8.446125964761361 10.819421876642705 4.638114706567092
Li 11.643355774949788 10.782703819516911 5.252078649321832
Li 5.070459328557687 8.406230294334092 9.033112558301934
Li 6.521492565215419 12.48062769463786 6.611923499459986
Li 3.9555836930521218 9.833236569725432 11.236550589625663
Li 13.8496856049194 6.374110466299441 6.57381209171398
Li 8.344191079221677 7.370305962425857 9.016270187917407
Li 9.22429128894432 8.873258086756014 11.760601579997068
Li 11.386919034015428 3.74273062989748 7.105611862605617
Li 9.03760448008385 5.6848713814367295 2.9691783797024804
Li 6.402524205015992 7.937476548737163 11.549292157107331
Li 4.479809009322776 7.519146208931228 5.111196381014289
Li 8.828638642512665 1.883698947483663 7.976175684805291
Li 7.236803547206682 3.165716229464453 10.32526680845516
Li 6.515243217838973 6.769360378368953 7.030563552666
Li 11.313031400613825 6.774160176178568 10.868865890005825
Li 2.1927939695119174 8.438363641566992 9.120669633623086
Li 6.086288787631691 3.7456895346685037 7.389719579230076
Li 5.9989407706885025 5.637468277956147 9.729920758665585
Li 8.508268621937388 5.7624209131881035 11.280933594564932
Li 13.308627581715877 8.253548117868899 3.955848996652161
Li 4.0523012849116835 3.708435565988588 9.998954382128042
Li 3.63449345190347 12.314053648350768 6.276773437364715
Li 5.2351031647137045 10.523013204053369 4.26428846491309
Li 7.587855595828835 10.061722044463563 9.353127572728857
Li 9.229366142351061 8.936900708175303 6.683999383371506
Li 8.943926882184863 3.5517725579120536 5.3741697450432016
Li 11.05257116262458 6.324292659225035 8.07169747745743
Li 5.726649592937021 4.9638457549454005 12.457947991676596
Li 10.453799339707826 3.7583034326548823 10.029731509438273
Li 8.604534726871663 4.644974067129869 8.139926832919546
Li 3.653397735098859 6.5877463121844855 10.991285957123727
Li 13.247342865230094 5.047484017882324 9.32576822029356
Li 10.28384174991019 8.362688615882998 3.9352057223270784
Li 11.977579145125178 8.404486526234193 6.424436530599125
Li 14.4744435143077 9.59208082366816 6.471542889491957
Li 9.311499326071324 11.562739338600714 7.598823261729457
Li 6.450837558507445 9.680289001348264 6.645524163037598
Li 9.846889658427772 11.589761183994769 10.623410830499202
Li 12.34065812654829 10.9559483653659 8.344624044346194
Li 10.568335585003881 9.123926422688212 9.245016059706517
Li 7.282773525122911 8.044086926552335 4.271272380405143
Li 9.078752851384987 6.287729327372087 5.808722136758423
Li 6.468866095502783 5.167473962710321 4.704676535143449
Li 12.275362759559203 9.772006030965958 11.41926308134974
Li 7.245402091162998 13.097243180964275 9.658023610037153
Li 6.824207333634283 11.015298821824928 11.844281965598839
Li 4.439386582205489 12.904822900617953 11.293646265021268
Li 2.4082208676050056 11.661913673245468 9.156505406672974
Li 11.547125609327638 5.7353308660529505 4.774609473511457
Li 5.059215102026457 11.404946606553546 8.934971953811862
Li 3.5915340263422184 9.593895812626737 6.903999422015493
Li 13.376580736995406 8.131644590749765 9.017778575092414
Li 4.470954709742803 14.107046295428527 8.526306657095375
