6
Energy = -5.34927338 eV
Li 8.277273730668277 3.932930915271363 11.592476059855352
Li 8.45475845189954 5.80998919225479 9.178612435944308
Li 9.344218872106516 7.515813625907968 7.056825778019716
Li 6.983115726326661 8.233000686565244 8.433745682908619
Li 8.19279921228689 10.062641810355155 6.506203970682801
Li 7.263173978322875 12.930056494267134 5.907105762252593
