6
Energy = -5.12246716 eV
Li 9.936304952134403 6.2472201619058 6.356020898286531
Li 5.038465601750752 8.841076156272658 8.56491555464653
Li 4.792451333526178 6.675332108973155 6.529314343694629
Li 7.225954881014413 5.264443694776817 5.531491889349309
Li 7.482844996407709 7.494731674510369 7.492484578733766
Li 4.524446277822363 4.477664246216883 4.526240777944792
