6
Energy = -4.71186253 eV
Li 5.82116007376472 10.256832570927116 5.230467371388034
Li 7.002759383587067 2.8075602795688925 8.056198801832526
Li 8.2461188317552 5.5201596307853125 8.04499076706797
Li 5.949007810039047 5.0710903337076045 6.3637612689768135
Li 7.116559765630315 7.886122949880271 6.527648828118958
Li 4.866396448289084 7.460236548196527 4.778935275681565
