6
Energy = -5.93919992 eV
Li 8.017503608702594 5.220211921755855 7.260528667016584
Li 4.916540935881848 6.19675403479743 7.5700551220572825
Li 6.260104971846683 8.79766541288703 3.3422868144314775
Li 6.897532794390406 7.659495298007887 5.944911533263222
Li 5.854601824748298 5.498306480055338 4.615244293628282
Li 6.635237667994736 5.169625884964444 9.811618686016068
