6
Energy = -4.99006767 eV
Li 6.819049512590743 3.9714456137144727 8.2062468285364
Li 7.40227443667695 6.771512536260312 7.446649038667785
Li 7.94758537830315 10.766633556552579 9.545304095695483
Li 9.040961025792162 8.076762390081884 9.349308158004247
Li 7.701241275500234 9.496839597017122 6.962390520188406
Li 10.376728103853464 10.171133171911835 7.82353751413206
