6
Energy = -6.71545476 eV
Li 7.372729185322235 6.859723420169723 8.667666112867966
Li 8.833763000736484 8.681202978631909 6.936582110732931
Li 6.107130706939349 7.8139333602779715 6.1483599529212976
Li 9.162317502748548 8.83267327836078 9.799734677379737
Li 6.537273809685546 9.61064881050853 8.416764446770008
Li 10.323398726633862 6.545458479683478 8.376792752519727
