7
Energy = -6.98103351 eV
Li 5.764691403369067 8.207150222617432 11.055422315163598
Li 10.346625426641424 7.638410028581822 7.886097940806077
Li 7.959971492865314 8.602595416102607 9.21146041330191
Li 5.75140614436221 6.751332563064938 8.72208354225651
Li 11.51787813939337 10.07430647557119 7.446250499551605
Li 7.810527350522709 7.1075761697211775 6.8780572688075825
Li 8.920755975200683 9.651019108051688 6.691223261236091
