7
Energy = -8.18188268 eV
Li 5.332145584419066 7.34576232090331 3.756045463945667
Li 4.889442014979253 5.966771906265568 6.304715775782725
Li 6.804112049978723 4.123525385648958 7.565128117973932
Li 5.996593907744699 6.984002016083171 8.76457086627426
Li 6.559100832138014 8.519870551843683 6.289077924721483
Li 7.363577488476943 5.779559797736407 5.1931508448919645
Li 8.55356894117649 6.779048840432348 7.6258518253231555
