7
Energy = -7.73989665 eV
Li 5.978417079344898 10.05661546306614 4.875810594465329
Li 6.51457513819063 6.587543359297286 8.14039680535559
Li 7.906057546823856 8.152029324286795 6.01258214377651
Li 5.228250882253955 7.238810399913972 5.5896445446408345
Li 7.520404777272889 3.7928503076670337 8.238057699152998
Li 7.383310986895589 5.204516009290555 5.677473597201256
Li 4.972641270971455 4.471292818231355 6.969692297161165
