7
Energy = -8.48192478
Li 6.549896416808894 8.51407145417497 5.998336088870591
Li 3.785285793234909 7.289030586880193 5.998149575661648
Li 4.088255398337972 4.291057447293363 5.998805231875133
Li 5.999770161861956 5.999005869001927 7.365149828131638
Li 8.557029488860568 6.263261203773858 5.998210704746901
Li 7.025988026398705 3.649941588774119 5.9989058670733595
Li 5.999718640594017 5.9995757761987125 4.648386629738233
