7
Energy = -7.19848174 eV
Li 9.561757573730983 9.1000424082796 9.53861405484637
Li 10.807073094133512 8.677369060269806 7.082274815421621
Li 8.751721740554078 6.819174834346505 8.100923328579974
Li 8.157507739177978 9.45518347966012 7.24092541781592
Li 9.080765399338755 7.465664166818751 5.389987432191684
Li 6.9226452747638 8.321177354932631 9.641617454951682
Li 4.49121208575845 7.067907096902515 10.368436466828987
