7
Energy = -7.33287101 eV
Li 8.730959238232304 7.2848151283807425 5.593020889562399
Li 6.8228046853743916 9.333950722031114 6.033736231555771
Li 9.989860151979213 6.038946263218948 7.79285587160822
Li 8.143663335263637 8.14605854714397 8.22613416312673
Li 9.37313554642431 6.877619569970044 10.437421241493022
Li 6.267830236463945 10.226281331415993 8.66388479069421
Li 7.559075030808025 9.019790318615259 10.867022622119475
