7
Energy = -8.31835456 eV
Li 9.786020714072972 8.345273744263428 7.566460138299295
Li 7.285587255061758 7.634769558212769 9.077527970809305
Li 7.9040227007493264 6.357076311490563 6.64238525519685
Li 6.627178440911881 4.729610690634739 8.663808744371751
Li 7.082957907593616 9.058655734441238 6.481557398727227
Li 6.332894602692654 7.100393650628637 4.333296195978675
Li 5.1690586631322155 6.874125377931654 7.117696355227697
