7
Energy = -7.9724806 eV
Li 3.836169313291614 6.112605690208659 6.033760821308751
Li 5.526928392796353 4.681165161110646 8.246951277257265
Li 6.544285366739566 5.631857517437713 5.8832656604958204
Li 7.512158506574906 7.617231065015962 4.243242309365802
Li 5.6683935860011525 8.331783684426444 6.348878783716507
Li 9.198604499445976 6.1274078501197495 6.418694355357437
Li 7.2273522938268835 7.011840990357418 8.339098751175134
