7
Energy = -8.01092383 eV
Li 7.888449388167936 8.704263129681044 5.871865723836066
Li 5.831877049061398 7.241071154698852 4.001961988443544
Li 7.634584519133397 7.066773740316345 8.579251971323664
Li 7.193251815120338 5.923648548022664 5.989506332509712
Li 5.375827392307319 7.8364078615840125 6.741523041607556
Li 6.363148590154617 3.332381743884831 6.200131297761583
Li 5.233674121612788 5.434179329206455 8.158297248264956
