7
Energy = -6.88606843 eV
Li 6.42070425583935 4.490962387250089 6.5402997654103645
Li 4.219437120129076 5.662168069690947 4.863842649700245
Li 7.058225188645837 6.626856609851579 4.576817265030503
Li 8.368354249617715 6.646207907370438 7.246136587286698
Li 5.607187944664406 7.157411910531452 6.925144655683986
Li 6.40859926551027 5.676678887288135 9.297546422763894
Li 7.4189929723133625 9.24121522473726 6.051713650844211
