7
Energy = -7.35093627 eV
Li 8.002843806490981 5.694460563775598 8.694501299999999
Li 6.540882820662417 8.230666846084366 8.69379505544021
Li 5.078921834833853 5.694460563775598 8.694501299999999
Li 5.078921834833853 7.387305077549236 4.3872643413248325
Li 6.540882820662417 6.540882820662417 6.540882820662417
Li 8.002843806490981 7.387305077549236 4.3872643413248325
Li 6.540882820662417 4.851098795240464 4.3879705858846245
