8
Energy = -8.44272679 eV
Li 4.742063987232766 9.4922203849441 7.665682783186268
Li 6.137985740427808 7.562733819050279 6.374676674995326
Li 7.48981010212325 9.874876612501371 7.2813077271356414
Li 6.672069876497138 8.060291157863087 9.105203253205632
Li 8.81855067395242 7.256689958937888 7.26443055579364
Li 9.449348743705519 9.072775799742798 9.346123425536994
Li 11.23681581716254 6.970033678824948 8.680315068814032
Li 11.821253654552292 8.72921094126156 10.754770928886822
