8
Energy = -9.24534187 eV
Li 8.351454067373146 5.445814178773234 4.464495049388144
Li 9.21206903613508 7.093491446898298 6.4450929055472805
Li 5.528747132808064 4.711299466815891 4.384394412611284
Li 6.595878505991675 5.3209279994149155 7.14405574976108
Li 7.1835939336692745 8.027180314196162 8.349958734231377
Li 3.503698409150694 5.628993511720535 6.300002802579361
Li 6.120203076653215 7.419189670217998 5.58655456396212
Li 4.356261855456021 7.308093421814137 8.257592902401193
