8
Energy = -8.89932576 eV
Li 7.012690957474786 7.122954004197506 4.574520915211464
Li 8.974948201116307 7.283128838282173 6.772613526558572
Li 7.453312456336025 5.005090246323258 6.309607120928066
Li 7.485481168570703 9.691694125723549 5.88836521849917
Li 6.100649712799516 3.0872573629373736 8.13832610683823
Li 5.540168621010606 5.997004706494655 8.092634850271041
Li 5.0730905418887575 8.020771886552655 6.254651487222457
Li 7.064126336285106 8.302445912612434 8.417147677313633
