8
Energy = -9.90117435
Li 7.7662621000000005 7.7662621000000005 7.7662621000000005
Li 7.017200949440376 4.990786793365706 7.017200949440376
Li 4.990786793365706 7.017200949440376 7.017200949440376
Li 4.241725642806083 4.241725642806083 7.7662621000000005
Li 7.017200949440376 7.017200949440376 4.990786793365706
Li 7.7662621000000005 4.241725642806083 4.241725642806083
Li 4.990786793365706 4.990786793365706 4.990786793365706
Li 4.241725642806083 7.7662621000000005 4.241725642806083
