8
Energy = -8.32102981 eV
Li 4.5973200730578165 7.366381967085054 10.893327337274041
Li 10.579468075047924 8.202158281820893 7.4858505789963115
Li 12.553827469198273 9.86153400833258 6.2858018196823275
Li 7.192675796725808 8.284479562819953 10.515917151422743
Li 9.938486684771668 10.735178305187986 6.618937350306055
Li 7.904555199734595 9.091350287892794 7.857727561645545
Li 8.62489768012842 6.582601955632596 8.808603788399415
Li 5.8921184240255675 7.124867730666695 8.483201457953394
