8
Energy = -3.25647986 eV
Li 5.087247577900103 8.190867959265427 9.274811557470105
Li 8.985408771381652 6.661814486028409 6.800345076717602
Li 6.223588696978726 6.615749510349357 7.230683584437437
Li 9.419698601066866 10.267486940280712 9.914462392227593
Li 10.563586816087538 8.451563349548486 8.12800690132901
Li 6.70834948867476 10.010880666427882 10.647885172076675
Li 7.878777817031195 8.1081080041491 8.95066827397869
Li 11.118657559442322 7.9184120588627955 5.39090595755922
