8
Energy = -9.57830342 eV
Li 11.23222583563768 7.215655766878302 8.912981981601678
Li 10.262095388273742 8.66419094198217 6.387974251452617
Li 8.60946665332231 6.792727093035124 7.869867848080903
Li 8.749073692151553 7.187790786355711 10.800048594422769
Li 6.289340002717262 8.117312870139289 9.187771246744108
Li 8.951799308155778 9.359140101701785 8.91798602271815
Li 7.208608900591124 9.22047362982238 6.659187899980249
Li 6.316972049352999 10.975884299262074 8.875637613309541
