8
Energy = -9.87776864 eV
Li 6.5381146932484855 8.978121848200457 7.7335593844327235
Li 3.91418221165756 7.1243766230383025 7.247868102092663
Li 5.818447707696257 7.861609487331443 5.042344001354655
Li 6.414561517835582 6.082676434617276 8.564329042324086
Li 8.191897169930153 7.025505988047491 6.470318064739179
Li 5.515037998723922 5.123125705368779 5.996027438066925
Li 7.54674745114467 5.645189936693442 3.9900130621163625
Li 8.07523896442475 4.173621691364448 6.969768619535167
