8
Energy = -9.51035552 eV
Li 3.4826679036322976 8.157077158509468 6.8684927726334015
Li 8.457806470247553 6.955353436003771 5.825492770600714
Li 4.772282302358345 5.538109554771722 6.5089415088930265
Li 7.506955658209309 4.842511777513877 7.283937233197278
Li 6.445089975245916 7.510700339415226 7.894491855647923
Li 5.735626034640213 7.642960275309063 5.045146310316128
Li 6.789234816343065 4.883073570476197 4.343639367983829
Li 9.453099503189282 6.649826847472478 8.572219071661097
