9
Energy = -11.17050189 eV
Li 6.865296385522909 7.695775793894071 5.9880142652579424
Li 7.560832932286898 4.918663501180983 6.2682544263137325
Li 4.771936172405759 5.7564569929721605 6.363875508867715
Li 4.8343786639646025 7.015379866294755 3.978492458016302
Li 5.668412030023755 3.98476620340882 4.258241353323417
Li 5.4417112052020835 3.191525302668489 7.250810543766233
Li 4.2076765873823465 8.446688927726026 7.145449911895345
Li 6.281054979710234 6.504096686242524 8.56402426639105
Li 7.828441762594722 5.9463874075445 3.6425779534093516
