9
Energy = -9.47281392 eV
Li 8.700503163309444 6.229841333110774 7.64644088878327
Li 7.011434530181112 8.03525420764124 5.5312535846542685
Li 8.463335910036584 5.660647330704181 4.81870129750072
Li 6.896537618109449 8.470306971796216 8.44925956904709
Li 7.365980285923448 3.457893161655736 6.737202970594586
Li 6.014873944409219 5.990898181139866 7.201512108910483
Li 4.067465007199495 8.646904503213785 8.081720749663976
Li 5.851055303454214 4.96172566696379 4.506961598436655
Li 4.160716156959018 7.078430563356141 5.558849151990679
