9
Energy = -10.06190395 eV
Li 9.911866458312256 7.874271108708194 7.32129751516166
Li 8.728428603867611 5.420865982111962 6.469921447776603
Li 7.350840215372099 7.041776375968399 8.567202207690755
Li 7.689573100804172 8.609556707730519 5.921601787201915
Li 6.895369525725523 4.233542290083088 8.152345446204398
Li 5.248610089125522 9.85006624508721 5.568112275869134
Li 4.977562070058477 7.577299206724726 7.257838097794367
Li 6.402123640006557 6.142266822045496 5.199476453045153
Li 4.475616418088454 4.845712726847152 7.12283478111364
