9
Energy = -10.81090856 eV
Li 9.106876499507994 4.485283091711645 6.801275702509158
Li 7.301191046829584 6.563543224761555 5.330214758440233
Li 8.992386258480211 7.211562390176135 7.8333303328834045
Li 6.70219467984319 3.547518231180082 5.438765858062032
Li 6.398707878879288 8.739693626314985 7.244772382523523
Li 4.420259898205147 5.608846899220075 5.286381756014432
Li 6.358562994812503 5.682007846012449 7.621654643316332
Li 4.748304000658556 8.442890296205167 4.882859600308299
Li 3.780115741934113 7.52714073235512 7.369228587181921
