9
Energy = -11.1977775 eV
Li 7.82105075023231 3.5227263614694433 7.169223851947039
Li 6.380832676291332 5.566602207422878 9.04131376173439
Li 7.566658203061835 4.8242070817452625 4.341807240016203
Li 5.42796651156834 5.1122557363838705 6.313701076324019
Li 7.845656848005509 6.48469469474567 6.7010870835460565
Li 3.197008293327976 6.953008556887233 5.511226894225365
Li 5.353766115216879 7.86512255650144 7.321685293391292
Li 5.984856388150915 7.414351621100138 4.631307117294368
Li 7.572262188474514 9.407074856067013 6.118618469521544
