9
Energy = -5.13781819 eV
Li 7.892736093818082 7.050900272436395 6.936380018141106
Li 7.597817185894102 7.266247926422697 4.050087235787576
Li 6.925367974448592 9.710139524863186 5.887472838735962
Li 8.554020958875698 4.257220731886877 7.830325757802725
Li 5.758513549395379 8.36337678109673 8.45033344520053
Li 6.791624017986776 4.704820706278567 5.512630791475146
Li 5.814322405688109 5.334556889409888 8.060798170920176
Li 5.324221532053537 7.209511368179635 5.838493582746909
Li 3.8680551182759118 4.6299046358624665 5.960156995626185
