9
Energy = -10.86888871 eV
Li 8.064979617081267 3.9899393232569 4.741306649572414
Li 6.3938118256097844 6.334076390319496 3.523368095411352
Li 4.994221574191785 3.8311814149029746 4.871962181339484
Li 3.7527381276199296 5.040770377129863 2.433229033927514
Li 6.719231993842534 5.425109121086127 8.901116499029651
Li 5.63860982627516 8.020936655874236 7.040187289512509
Li 4.112735306852221 5.134109406346795 7.488732023613822
Li 3.9485332308747156 6.62621730150219 4.941725960320967
Li 6.47776158061315 5.7002830925415235 6.160995350232263
