9
Energy = -10.21404492 eV
Li 5.597789943999938 4.232600783226375 8.567462694726903
Li 7.48131961800822 6.046247697987194 7.626694503984851
Li 5.129411625379286 7.064409643311627 9.124029329709764
Li 7.290103396697288 3.5054611044386434 6.262021752771766
Li 6.199404115747465 8.426640940415286 6.641542164922808
Li 7.197232364387071 6.1184048676369525 4.945707206005816
Li 8.95196814634108 8.332537043994298 5.626668293656419
Li 4.571450467748343 6.265278155535085 5.85735019284585
Li 6.093404086050195 8.520503527813814 3.8606076257343243
