9
Energy = -10.93154223 eV
Li 9.658734702270033 6.291709890976903 6.703835150890252
Li 7.6731023501108 8.43360793363042 7.605681412725687
Li 7.352479254919526 5.4145422190146695 8.071224161023949
Li 6.785793443905528 6.63270318750034 5.53658204167195
Li 8.038149364272513 3.814758075868772 5.8414933121569375
Li 4.853555700031121 7.2178474734038796 7.59762695198937
Li 5.0657543321779706 4.442789501221095 6.2842169952904685
Li 5.358861068387404 9.37284091071266 5.83130552085716
Li 3.7179084215489926 6.883539445295152 5.032373091018393
