9
Energy = -11.33358247
Li 8.22027419 5.9922924376239886 4.719900478119043
Li 5.9922924376239886 5.9922924376239886 5.9858181006030255
Li 7.566950476347873 4.417634398900104 7.266302981384174
Li 5.9922924376239886 3.7643106852479766 4.719900478119043
Li 5.9922924376239886 8.22027419 4.719900478119043
Li 3.7643106852479766 5.9922924376239886 4.719900478119043
Li 4.417634398900104 4.417634398900104 7.266302981384174
Li 7.566950476347873 7.566950476347873 7.266302981384174
Li 4.417634398900104 7.566950476347873 7.266302981384174
