9
Energy = -10.85930456 eV
Li 11.549576373654594 11.723526768230126 6.94022029135583
Li 9.768199302779893 9.365056833653556 6.180759958605747
Li 7.613810986655206 6.606253851338756 6.491815751956014
Li 7.814013969750735 8.321093673234348 10.74450807244172
Li 9.667503342365388 7.482099269281263 8.468112198696186
Li 9.742578476079965 10.288197951040502 8.977177735640206
Li 7.4091194481382665 8.89866942375712 8.019500870386311
Li 5.320846487549467 7.139528580940609 8.888050629876313
Li 7.646266250101924 5.62238838805181 9.404355196026058
