9
Energy = -11.07294251 eV
Li 7.050544908245097 5.975957402204902 8.23823071149579
Li 8.752770917593512 7.812441334349701 6.829766626531484
Li 9.551870648899001 4.602727731186163 7.2289943830606465
Li 5.720859560649353 8.451307020014998 7.483030931210608
Li 3.3044147309220158 8.844378338493764 5.54763057900036
Li 6.473949782932417 3.4964115952814554 6.9827642732477475
Li 4.657809116690123 6.073159938917119 6.386114465005973
Li 7.462308480682282 5.689855855377813 5.573710193667885
Li 6.082064571012347 8.110017326796646 4.786793334690921
