9
Energy = -9.91846125 eV
Li 7.30682889730058 8.314393385128522 5.654650827895529
Li 7.144754482076785 6.1771656005164175 3.291275582815554
Li 4.8052318594661765 7.059695515561121 5.277849526672642
Li 8.517065991446986 5.830886375291385 6.016356629870878
Li 5.102768946703177 8.890206478807317 7.818128938992098
Li 6.002831032546075 4.570515275894271 5.638844962358146
Li 7.44796134686149 7.290445390478609 8.38497590241444
Li 7.284102684405251 4.372243019955392 8.430493688709454
Li 4.902455295967327 6.008449495140429 8.001424477045244
