16
Energy = -11.6110245 eV
Mg 4.823196326746463 4.355303563431398 4.185940244447881
Mg 6.587613892185534 7.5045683324921395 3.602414404691382
Mg 9.555469140006899 7.301333298016345 3.900376820517487
Mg 5.145293577629611 9.892287761600276 4.675323916386848
Mg 8.064679178569488 9.459256043281345 5.497168649388267
Mg 6.026076399371485 2.680844822952774 6.413483135946644
Mg 4.732511754494543 6.843797272357464 5.967703152191749
Mg 7.445440653944628 5.238988866744857 5.49309584391476
Mg 3.42458805907712 4.224175910537645 6.87816810464298
Mg 9.481571068568275 7.072666298937564 6.879309607764483
Mg 8.563415784625724 9.398657455953362 8.51861184636279
Mg 5.742495785149343 9.275847041897006 7.539265660188219
Mg 8.285727215681952 3.8356213102642154 8.080505871027926
Mg 6.842020253245856 6.523600738600229 8.34176923605425
Mg 3.83290629076675 6.4761501773601715 8.871994396368411
Mg 5.446994619936307 3.9169011055723235 9.154869110105176
