13
Energy = -8.44322474 eV
Mg 7.345300483195654 8.440008148437052 8.184616397999548
Mg 6.598574657547741 3.570119057191325 6.5124618011975475
Mg 7.311565120525943 3.466506991864895 9.409267818421663
Mg 6.959202078998784 6.4438367549359095 5.522732355965291
Mg 4.928640366362589 8.015950384666484 3.8268904667763812
Mg 8.021051457318046 8.084073220912078 3.218456888065948
Mg 3.918258355494941 3.3428653885705097 7.802847045946814
Mg 4.556547518724091 8.34507259571192 6.846832692697891
Mg 8.827343271253957 5.595184743100476 7.870368402285994
Mg 4.014019816245011 5.425545350334318 5.59861598665215
Mg 9.475602368277066 8.168114564448327 6.00130210937088
Mg 6.923474373259423 9.755551634725581 5.385841202896656
Mg 5.645899912401311 5.872650944705829 8.345246611327125
