17
Energy = -12.72377731 eV
Mg 8.32209796326607 5.632024834404579 4.189811644109122
Mg 6.1013238826030785 7.390900929852722 3.0528307498052225
Mg 5.760330025096287 10.189334396582925 3.9188909159805196
Mg 8.298768866534251 8.744542229067669 4.81653584473873
Mg 5.355515557963548 5.199915450333375 5.101028408480136
Mg 4.1133752124485135 8.056872405206382 5.384834172581495
Mg 7.490943018551788 3.1047341414924925 5.867365917202487
Mg 10.294691592110318 4.037849131924349 5.91511353031422
Mg 9.888749099433866 6.913592576552757 6.632159135739178
Mg 3.049341148556739 5.761769047051042 7.085717080435663
Mg 6.227366877368811 9.899716777514449 6.8500020542885505
Mg 5.490503127034268 4.017434551823645 7.984806776568706
Mg 8.571385844418632 4.659279110830113 8.34160423437687
Mg 6.898350406055078 6.963828531282047 6.992129138260771
Mg 4.438243214207565 8.141342797896938 8.54923880722484
Mg 3.685681574303576 5.532843735488133 9.95318595081841
Mg 6.561407676968127 6.302094439616615 9.912820725995603
