19
Energy = -14.20120104 eV
Mg 8.59090393595936 10.736035498375802 5.188317771295018
Mg 12.459023093870782 10.626767665888499 8.855511768619891
Mg 5.573140543419048 5.678037307536237 9.24824869161029
Mg 10.14853023711848 6.5428946860532315 11.008386473076177
Mg 10.559175845526548 11.263708189666405 11.096856359820272
Mg 5.356894304348873 8.536904922587317 9.95193331051983
Mg 8.272056911639705 6.776259146020122 8.60819689678234
Mg 12.18327607852953 8.851444643832012 11.333600318333538
Mg 6.610675419378576 5.8906694781276485 6.225895763533006
Mg 7.237904162508554 6.89823276820085 11.604355695127683
Mg 10.909458294796195 8.06665444195828 8.384435860100584
Mg 9.437387549309332 8.786650119915953 12.790149329352806
Mg 9.176831915257761 7.846202102720381 5.846062696000095
Mg 6.352868818008402 8.570341497083172 4.88736491195909
Mg 9.586959566042564 11.292707026903086 7.9989569740820885
Mg 6.887043031052595 9.869995439499816 7.570434136485497
Mg 8.231114007217085 9.549205531773708 10.170847423198326
Mg 11.38878337130759 9.916281577611269 6.002087354066332
Mg 4.46906946781843 7.658570297676598 7.121329387659411
