15
Energy = -9.73985719 eV
Mg 8.11855106294605 9.988290524705308 5.275680598577823
Mg 10.959389805264133 9.746676141709722 6.453859789687991
Mg 9.164143134372969 7.186515272690467 6.297119486935507
Mg 6.547319405375873 8.291267882765297 7.223673856188022
Mg 7.131107478883827 11.345539967723706 7.981083727944256
Mg 9.534732179615172 12.449758508957906 6.422430550335143
Mg 6.843110039225925 5.280811523913308 7.284743011909014
Mg 9.67194716949946 4.999963614410511 8.48000709262297
Mg 10.143949387050858 11.069187345391732 9.088516937185206
Mg 5.1995975272483275 9.64028845110732 9.522295735776899
Mg 10.675454484609135 7.937910633955352 9.015701449073637
Mg 8.077448009871098 9.038656314635272 9.944775624862727
Mg 5.88703643084406 6.7397361967808616 9.943710245430246
Mg 7.243689382670808 3.9926343911421402 10.033410939782568
Mg 8.868918420844757 6.35915714843434 11.099384872010967
