15
Energy = -10.28729731 eV
Mg 11.890351244684016 8.289567451017044 9.445877701496972
Mg 10.510715809155192 7.380508031327874 6.604094037590098
Mg 8.919053346330413 8.791318823983994 8.661379233799677
Mg 10.674178280933896 10.695179788335825 10.787416831918968
Mg 9.721810231302017 6.09933486120733 9.47412145996467
Mg 9.526426097049956 8.010306719003001 11.817981641512434
Mg 8.487708072666939 7.325803221768003 4.351885623694202
Mg 8.280399248156098 9.920526337515701 5.777384946463536
Mg 9.129220530805258 11.621934627838339 8.380687225239996
Mg 7.569155486344265 6.221516391876511 7.124667504128427
Mg 7.628803592850122 10.186602480450674 11.100588296042998
Mg 5.774531794067962 8.165734941007802 5.4921026500247745
Mg 6.061277954599147 9.54467014291925 8.225042443026608
Mg 6.9091059916794295 7.232387032762416 10.442976461046127
Mg 4.753094822269248 6.730113551968387 7.993161855889014
