13
Energy = -8.46511872 eV
Mg 4.193193808405531 8.609092737983277 5.675821013865895
Mg 6.38837008955158 8.251023144710903 9.847490606382504
Mg 6.04808628069056 3.7973364541016643 8.224981078934766
Mg 6.2781423751686605 4.574286981041336 3.0147959161985303
Mg 4.767974443362659 3.444300002087721 5.42703900566577
Mg 3.788988626079958 5.970924320723684 4.1245223916897364
Mg 9.198220699748596 8.784029835738032 8.824018109056523
Mg 7.69694614352973 4.793494872523426 5.843587750987722
Mg 9.328872895464254 7.360875445068563 6.075692251092206
Mg 6.888735112862433 9.196041872139313 6.969357006897176
Mg 5.157031839987269 6.436780762760243 7.363401044217325
Mg 8.104619933358654 5.99452770031743 8.671957315362771
Mg 6.718720063842122 7.34518818285642 4.495238821701081
