17
Energy = -12.36650749 eV
Mg 8.16052528480957 6.031418568926774 3.510672117405706
Mg 5.1668343764573965 4.982990544382308 3.6025526058719306
Mg 6.6961294422060655 8.635149042421604 3.9983783800426234
Mg 3.886652417320181 7.699454719250709 4.612470987143113
Mg 7.55962300426108 3.5360116194716804 5.151066871702551
Mg 8.958884670443869 8.131608454435257 5.853595642060011
Mg 9.98979373175386 5.238775546238105 5.774816311745898
Mg 6.373880907179949 6.328844220015906 6.223742316590905
Mg 3.3576472279910052 5.183981916704497 6.242113806673219
Mg 3.129953429018072 7.925507546690928 7.5277001727345825
Mg 5.699905941574684 9.389220749492983 6.693323990066653
Mg 5.55646845609407 3.454917372990304 7.440044897941629
Mg 10.328910769462276 6.812842520134557 8.260074766889193
Mg 8.20161945701941 4.591620215155157 8.162481876124936
Mg 4.884144288221732 5.894285850735016 8.99818613453512
Mg 7.585360689441034 7.771826146379969 8.822114815487378
Mg 4.969474659325396 8.897353719153891 9.632473059563916
