12
Energy = -7.59820083 eV
Mg 6.453242801380582 6.961003792168947 3.6380423371191255
Mg 5.51447512546359 4.033181163305771 4.504255367779011
Mg 8.35661563989538 4.516139283426974 3.7430784076252834
Mg 8.723145793515828 6.769365607054955 5.803544206229546
Mg 4.083255038869827 6.608232776492221 5.500006026992597
Mg 6.235102732310171 8.512326114443747 6.244226793923097
Mg 7.777053807902284 3.901462744274477 6.729360428867111
Mg 4.890068828374651 4.568408500466104 7.508987973136987
Mg 8.684668624402187 8.869517725371791 7.975346160010027
Mg 7.079350548587254 6.3650374568794685 8.353733090622828
Mg 4.078132307254109 7.499434265957211 8.509606844714037
Mg 6.129089586246652 9.400091404360982 9.49401319718286
