10
Energy = -5.27508216 eV
Mg 6.475374528062971 8.579397602124624 11.296777167848807
Mg 8.965523605580671 7.024974013691065 10.456959708027206
Mg 6.424745761018796 6.821217056730106 8.736006198870225
Mg 9.66136679700842 9.783968796342325 6.501242886387992
Mg 9.05345428396062 6.822294871748035 7.2998749463601005
Mg 10.982072904733142 8.66612403131794 8.912232083650256
Mg 6.788437207122316 8.846373652114226 6.447885933589727
Mg 5.19407947414744 9.664369079405297 8.91322162987824
Mg 12.01814020981725 7.663248648446576 6.024842841677992
Mg 8.201724817373506 9.892951836904821 9.175876192534714
