11
Energy = -6.44352941 eV
Mg 10.601795047245526 9.60018134634022 5.554248889557082
Mg 8.470112321691502 7.5301621123476306 6.3611942400806045
Mg 5.815597777764077 8.699973265734643 7.410054622234259
Mg 8.357704523285092 10.43982396720602 7.488276539932275
Mg 6.4952636338132 5.572947165624817 7.712173699290411
Mg 10.626292832259223 8.513042498930657 8.378392322662354
Mg 9.354858668216282 5.627212515949141 8.616304127196958
Mg 6.289344501142573 10.847091766857073 9.752280887270526
Mg 7.422494145432304 7.8847794756714 9.676482505717203
Mg 9.167540966281418 10.394580555722504 10.461880144698437
Mg 9.931266624871133 7.422476371617752 11.12098306336222
