12
Energy = -6.86249297 eV
Mg 12.538292954436793 7.325221276204059 11.82074057460376
Mg 9.509168201693077 6.929009823686344 11.818477482528587
Mg 12.307936507482838 7.530623559299246 8.774962996069476
Mg 9.222730493178098 6.674196856347151 8.625661599747389
Mg 8.941435903272778 11.619712065886864 9.343442812372224
Mg 11.375353664898245 5.05054353538507 10.297358383652977
Mg 10.33565014654806 9.368494669234613 7.529781295757936
Mg 10.752958070080824 9.641259133614382 10.609663500057295
Mg 7.281049208324942 8.42528464261781 7.219576750782124
Mg 8.040384443469538 11.277995814717483 6.445340858067007
Mg 6.066283612700374 10.855847422507603 8.632275073852789
Mg 7.751540311902706 8.818389724313699 10.360171435140673
