10
Energy = -4.48314314 eV
Mg 5.332654524111758 9.737605578515536 5.355047416132387
Mg 5.691235775306928 7.082510752753039 6.750597467148616
Mg 4.94698306720462 9.476897974447795 8.339272588545947
Mg 11.958524634974063 7.458186928952205 11.30912370295672
Mg 7.033271710271427 7.513565924665674 9.49490515923334
Mg 12.865018240321533 9.185784057965416 9.057130232602246
Mg 7.874024100198866 9.350791157623432 7.083583490173175
Mg 10.824557722433488 10.113514196589055 7.057003494988709
Mg 9.103974110852842 6.662742384543354 11.442996007597843
Mg 9.737155768577852 9.066990524997221 9.690674494441652
