12
Energy = -6.86231633 eV
Mg 9.955700461183755 9.18059773966926 6.216971262397549
Mg 7.301055466288517 7.504820929273934 5.877947707735068
Mg 9.830883130678918 6.289836366729414 7.329918444493181
Mg 6.842742406176995 10.431864421209424 6.386914545874857
Mg 5.121333610837203 8.29060919293312 7.909301581985374
Mg 9.920476743319549 11.280159274695428 8.389322488803161
Mg 8.08338216191417 8.902121843374143 8.630053082143085
Mg 6.952211797204319 5.9179644549299 8.559838029393367
Mg 11.318119417953556 8.618844008295584 8.915263173778664
Mg 9.409803878492086 6.695417067361573 10.361933749558718
Mg 9.502344293270967 9.585024887793859 11.197709868148811
Mg 6.316437006238202 7.857230187292468 10.779316439246275
