12
Energy = -7.67268633 eV
Mg 8.290860376416918 3.9029657928570813 6.000134986598763
Mg 6.617781614633467 6.106886567961547 7.535270422023316
Mg 6.617893738121447 6.10688815835432 4.465787073350885
Mg 6.290012920497032 8.703819739334802 6.0002575587514295
Mg 10.91736672184514 5.334672869930139 6.000299241366807
Mg 3.9041120175106956 7.670711609749976 4.439512072493793
Mg 4.107669281358769 4.81524223036457 3.371938949107945
Mg 3.904262194097692 7.6708393295582304 7.56050474934407
Mg 5.2972103884054995 3.724152529611596 6.000645572322686
Mg 4.106969340908792 4.815604062915943 8.628795898512474
Mg 9.275019328232425 7.801368616278175 6.000720562556463
Mg 2.6748856506197685 5.350892065731412 6.0001764862193
