16
Energy = -11.47056891 eV
Mg 7.152745724459723 5.716259300632544 2.972683354746046
Mg 7.8726738638814835 8.663253712498118 3.3143332212433347
Mg 4.199643723289108 5.103219784514386 3.4269701818522442
Mg 5.191891723809035 7.780339981474918 4.226747155469429
Mg 9.03056603121184 3.839487421407735 4.504723546599821
Mg 8.658352985204193 6.673665224018049 5.537655321427643
Mg 6.239966210195333 4.318322595166153 5.606424183148199
Mg 7.13810374063231 9.448658802118935 6.221619110441173
Mg 6.125949961271302 6.9138399745966455 7.258448255513445
Mg 3.5307672622548703 5.9367666824296785 6.330086689009661
Mg 8.727091031030072 7.796267337053849 8.680756903078775
Mg 6.075306910268311 9.229480179733946 9.2105462746607
Mg 8.23337335636818 4.761314999999991 8.290211535552674
Mg 3.871580149838862 7.092282259326499 9.274425231102835
Mg 5.195824399534874 4.379853117024174 8.783984187162085
Mg 6.756162926750314 6.346988628003756 10.360384848991888
