13
Energy = -8.12892651 eV
Mg 10.764543614832295 7.7922545637163125 7.163453089910064
Mg 9.273472093492591 5.255447064009372 6.976180112709857
Mg 9.255344563072981 10.420614311487148 7.07174982976607
Mg 8.143712822054994 8.097603101462912 5.47190157763325
Mg 8.039185886952906 7.868909969290149 8.553854097798297
Mg 7.334164949321947 2.9086841630665687 6.772691894022955
Mg 6.851577978866562 5.106550733967362 8.829885691697825
Mg 6.367432631375928 5.698387067371626 5.650797076638464
Mg 6.287608394143436 10.253122075201368 7.122800655063975
Mg 5.020264930285316 8.43127345304828 5.116361473073731
Mg 5.035362894684454 7.470978084695242 8.041424820339023
Mg 4.452305766353703 4.097185668899791 7.212065856231367
Mg 2.989171780378107 6.4507867240273775 6.044616202084288
