14
Energy = -9.36599061 eV
Mg 7.347315980116438 6.55339849348999 3.5899293636389635
Mg 4.233733103947549 6.681756495651155 4.320222636192897
Mg 9.475378474945378 4.872049533826852 4.8334224156251695
Mg 6.37476060724825 4.6645048993011295 5.723525811780366
Mg 1.731512772037928 5.963475172522232 5.695737026077302
Mg 6.382089564002222 7.762705283674046 6.209763799121962
Mg 9.369518536351135 7.967926024642419 5.430201624607535
Mg 3.158215861065235 8.536005642845575 6.61915773516205
Mg 8.549735792540607 3.3647543579593013 7.351133453529945
Mg 8.393728769110052 8.489474228867685 8.371532891103191
Mg 5.047416159455553 8.511385389766557 9.071956755224212
Mg 9.915073195483691 6.024115033485305 7.617976885720023
Mg 6.993292564000345 5.762933738264455 8.557133073305103
Mg 4.028228619694759 5.845515705702291 7.6083065289101315
