10
Energy = -4.53817817 eV
Mg 5.100064682740155 7.1228496587231644 13.413427770152147
Mg 6.706092244922722 8.260625186251694 11.027433835166832
Mg 7.540193236068385 9.688342847441783 8.517364805581
Mg 7.448104257272957 6.555913903231232 8.61833664132529
Mg 9.650014907077177 8.178987480865423 10.275030705296196
Mg 10.249312437506342 7.013968023196762 7.5396017246935845
Mg 10.629563807559144 10.008187811729883 7.990090123550229
Mg 7.84454350490934 7.95917833335901 5.8991730535039455
Mg 8.616027376459058 10.869989743364226 5.921178091521176
Mg 10.694764951701437 8.816321949375414 5.163451142467188
