15
Energy = -9.49713864 eV
Mg 7.9447017718733655 8.490677632014256 5.750872306372486
Mg 4.991485526492302 8.05062842234449 5.473609514310513
Mg 7.635207611937192 6.542482887874964 10.803849542039435
Mg 2.1162475392074547 6.449185349331679 5.364466418011833
Mg 3.81281882950106 6.412220177388273 7.79825820162819
Mg 6.254628536553606 8.364422070182687 8.220832859550974
Mg 5.378561462143953 4.793192343348882 5.5960953601456795
Mg 11.250757741486831 6.67991762218779 6.261555078582072
Mg 6.5742926479298305 5.028565700625799 8.333419646269501
Mg 9.059352569780572 6.986227930516886 8.25466631915085
Mg 8.34393344858868 5.195465186256658 5.864946198422928
Mg 4.000878474502115 6.094017800387518 3.1400528726289667
Mg 4.804122612910521 6.921559345622186 10.522745403312149
Mg 9.800319015578065 7.0659163260977325 3.736297774035219
Mg 6.890264967025903 6.587186013966939 3.4929802786574027
