14
Energy = -8.99974112 eV
Mg 6.656995621029153 6.862361077255859 11.214368439287183
Mg 11.587882827634267 9.71197475974074 9.054139980288394
Mg 7.058251682714589 6.066601983220849 6.8769359217959956
Mg 8.80851514614552 10.323404777209808 5.29288423242734
Mg 11.716023851982042 9.607568282733352 5.987696332662883
Mg 10.81531150036228 12.133427387839212 7.058382631699456
Mg 9.195286266028262 8.321009008215979 10.478253071792398
Mg 9.45675422365759 7.779494923779283 7.3301988071846305
Mg 8.612098766759383 10.50694404403913 8.439261995548186
Mg 4.784728361573335 7.330781696653971 8.727443162508399
Mg 5.933923099038434 4.620980654714243 9.339309231347961
Mg 6.2870253534266585 9.548061505186533 10.009689245332408
Mg 6.498243693340234 8.985834973631508 6.881241160907448
Mg 8.845349077740977 5.6117737697066925 9.282164257220522
