11
Energy = -6.96877431 eV
Mg 7.403575072959206 8.240597642990947 4.101986663624505
Mg 5.83987868195218 5.572535458335331 4.454798216730744
Mg 8.727270683194629 5.9721830820674215 5.62433638065327
Mg 5.056080464849737 8.191101515858481 5.925564906157922
Mg 7.979921972891404 3.290571042494714 4.487890763658205
Mg 3.8529204443962213 5.558911674468306 6.764716720852208
Mg 3.65800816762377 9.125321423860607 8.573220101864047
Mg 7.924666010533154 8.504383553395652 7.110170146354023
Mg 8.671418501786427 5.9658460961355 8.664723726370392
Mg 6.576181076107996 4.249360543784559 7.1215622901499795
Mg 5.810078923705202 6.829187966608409 8.671030083585027
