11
Energy = -5.41263562 eV
Mg 7.391490668731379 9.846813721682848 10.192938597533407
Mg 9.11460343848516 10.813352454764471 12.629301754973865
Mg 7.160608523422116 6.753928866676919 9.484327451211039
Mg 10.404216847733581 11.040080591082928 9.823787752870878
Mg 9.07522501517627 8.68212528875694 7.804358539295868
Mg 9.88169978893961 7.201453708426922 5.237404656478077
Mg 12.418190107837594 6.812795508274547 3.301145575756511
Mg 7.176090909301011 6.3972409610799845 6.259656041159622
Mg 9.887341859918457 8.305198502061975 10.95491870167981
Mg 5.679006489501885 8.660841078000194 7.799488914224027
Mg 4.613971494395454 5.8156498619264445 7.904123669559232
