13
Energy = -8.30201221 eV
Mg 7.709163425743994 9.064325945101213 6.694045134430445
Mg 7.132797734280882 6.063678491029569 6.44770222353615
Mg 5.413796026426529 7.82350021810312 8.303637717066717
Mg 10.584049068315549 9.901069855482463 7.495555803085803
Mg 12.51509589212489 10.305284829901145 9.96655950067899
Mg 9.787704225380752 9.101704568241896 11.17712579687887
Mg 8.419854070735862 7.25449451456156 9.105987651585028
Mg 7.228830360981764 10.030245664944674 9.668890690856365
Mg 10.093652619610316 6.869019514089007 6.36306760226739
Mg 7.917663289592988 11.419061004365794 12.318506608685762
Mg 11.48749770999296 7.572904542664986 9.024875763302905
Mg 8.401617240970872 11.908536300377532 7.370287398715067
Mg 9.914064205998734 11.885919644720456 10.09528597298136
