14
Energy = -9.26463827 eV
Mg 6.364595010131534 2.8101715148293187 4.849550220494005
Mg 7.168858259127398 4.4582067254699975 7.479899118884454
Mg 6.202281677116338 6.024997559679931 5.135694998754729
Mg 7.167524214648872 7.590197191081127 7.4811254770154365
Mg 9.234225927323472 3.0699715154408973 5.580374714040575
Mg 4.222341335873847 8.416658392745871 6.895042125326935
Mg 3.814451920369652 7.5547164846936585 4.11333227970752
Mg 4.602516363934412 6.022210787031764 8.70354630604127
Mg 3.816397616890415 4.4931636531770565 4.112412630467399
Mg 4.2244902458016345 3.6285704618563246 6.893514266780737
Mg 9.49666550929839 6.025663792127513 6.2402236271361025
Mg 2.4322696599606366 6.022022843268825 6.420294888859327
Mg 9.230803823679354 8.981308451582358 5.5813952049093425
Mg 6.360854490480036 9.240416681650947 4.851870196217482
