19
Energy = -15.47083745 eV
Mg 3.588581997977073 5.990185711105137 7.1573284378710245
Mg 9.364970194780852 6.83942585633435 7.62239493973402
Mg 7.554819279988556 5.801594206027809 3.1195976068876816
Mg 5.752404929365255 3.574320864794914 7.176084535259388
Mg 7.997833072012534 7.99576446576421 10.203779182088715
Mg 8.498406179232637 8.16822564651022 4.833466537754037
Mg 9.815601910128517 5.386556878586021 4.956463975951784
Mg 5.540652048067271 7.942680861919317 3.6922327349913577
Mg 6.374928850806752 10.48491607801834 4.970229419969858
Mg 7.174654384780228 9.241555205053304 7.592079798141672
Mg 6.630593898160049 6.368474143135728 6.398883525744611
Mg 7.295179148074354 5.222462391352496 9.422541027971144
Mg 4.329709330434672 8.890630594118287 6.523690999440396
Mg 4.391074830567425 4.733111646200427 9.767129432299937
Mg 5.157990227764545 7.61489058100327 9.224617812809823
Mg 7.517284127398251 3.295466770980447 4.6686528305901005
Mg 4.9066543976412715 4.894139530130325 4.387517140462354
Mg 2.7927461861976433 7.214927983756191 4.526755499106664
Mg 8.815915006622518 3.840670585209175 7.256554562925691
