17
Energy = -11.80267817 eV
Mg 12.042845199231355 10.078510312126848 9.731251469000714
Mg 11.47584139342847 7.480133723332927 11.25020868549599
Mg 10.711025136729077 10.795985697423557 7.018754049180966
Mg 9.88987948254977 9.999471815540758 11.896656461375123
Mg 9.479341523262447 8.406064074935056 9.000707323116112
Mg 9.735793269361299 5.131157486749462 10.461477253683006
Mg 9.769338401425719 12.068189378659653 9.60889227532254
Mg 9.030835355528207 8.533972087624656 5.9257995819304705
Mg 6.776371417886972 6.576154840058298 5.307474930997621
Mg 8.670069853347904 7.289223875463158 12.448366842416906
Mg 8.613132890353647 5.791477044411363 7.5826652518457625
Mg 7.732456417571036 10.954380564983769 7.65169113707891
Mg 7.026750092087545 6.300321956613276 10.176838893243067
Mg 7.142844908051579 9.506528662970025 10.65125042369224
Mg 6.318615155388135 9.723334063822158 5.276615398671083
Mg 6.457655529339696 8.154714790907711 7.914533102372859
Mg 4.9126684309025315 7.927718137086383 3.166013422934273
