12
Energy = -6.75883095 eV
Mg 6.036134557538161 5.961156135882844 5.68464488824986
Mg 8.543413503324444 4.339271532459923 6.267605468396827
Mg 4.186593437454535 8.663640759519847 5.38709567613566
Mg 7.284094897275127 8.470200461052029 4.674442602663266
Mg 6.624531733148263 5.261472790874717 8.50847586429693
Mg 8.959705337940806 7.227778762118677 7.042195036495583
Mg 4.0328882659588094 6.739898515541889 7.905851255434385
Mg 9.84195141493218 4.914770510593582 9.107087827283877
Mg 9.12563866657982 10.260125830617175 6.248332988756042
Mg 6.380383349238202 8.630174741349238 7.744029736436266
Mg 8.040409013211942 7.342667718614109 10.10186548885402
Mg 8.78593185161651 10.094039269183305 9.126328982096663
