16
Energy = -11.27165794 eV
Mg 8.364004231879758 8.199712837662732 5.461722116355001
Mg 8.609183721279683 11.177781073413529 5.381133228220212
Mg 11.104929557339979 9.754411776921039 6.154288671028813
Mg 6.2513687262790985 10.303986437116677 6.977764170157251
Mg 10.8889332155262 6.8395387270248325 7.015578367371739
Mg 5.93826566007919 7.2309218483709765 7.2856931634188475
Mg 4.2229995743890365 9.051647645739369 8.923087325704975
Mg 8.527925665122487 8.380914967931126 8.388195293959301
Mg 8.310554637487481 5.4572902047539396 8.456862746838064
Mg 11.035824507408142 6.232541210394515 9.997188686694662
Mg 9.201840276588825 11.238833650655621 8.309549540281251
Mg 11.516355576826394 9.097228497347635 9.095769219668833
Mg 6.7372132460059975 10.221010915172991 10.039305509638975
Mg 6.190955994364674 7.187801818820693 10.378331438903539
Mg 8.501205235112211 5.632845987019187 11.435536450202136
Mg 9.148494231519459 8.543586458865006 11.250048128766275
