10
Energy = -5.02535489 eV
Mg 7.227734926589341 8.495415391047654 9.960328944318292
Mg 8.44702038237079 7.774368118708456 4.92751624602747
Mg 6.277193705379171 8.57109898222434 7.082799075434212
Mg 5.491199857786157 8.304653733039055 4.166930600269429
Mg 9.285819270963467 7.876076510448247 7.726584643373389
Mg 8.459466914905923 5.620356158155552 9.68922894760285
Mg 4.655975460168825 6.045785536663903 6.128200676088009
Mg 6.7061855849714735 5.423376530538302 3.8928757948659616
Mg 7.668137269296963 5.343092618817751 6.771249838182834
Mg 5.5018830006958845 6.130348804833056 8.924462717386337
