16
Energy = -11.33570268 eV
Mg 4.948149841722884 7.777559392870093 3.1671731643140655
Mg 6.961022699247456 5.358610801176125 3.0119911323099693
Mg 6.213227524156552 2.657243469618771 4.202987373932193
Mg 7.101799755518536 7.254121790789761 5.384908992698448
Mg 3.992858483710329 7.962888534679323 5.981423970072176
Mg 5.891434687155067 10.144948547734227 5.27145459819331
Mg 4.4073870644542374 5.183223849773666 4.824875304366826
Mg 7.92845628995839 4.354925228996942 5.914433842432565
Mg 8.629047160332593 9.516651759113888 6.699638736670411
Mg 5.102318632838424 2.9827029576139052 6.9792976905878445
Mg 8.785154339797677 6.49586195626839 7.83171241203714
Mg 5.455238531226331 5.9047068693656035 7.64487249184639
Mg 5.910740246846786 8.91454199942057 8.146106947760611
Mg 7.349578268213728 3.944746108040275 8.980096029245004
Mg 8.693559667263589 8.824407223004062 9.65670063769725
Mg 6.630026807557706 6.722859511534535 10.302326675836522
