19
Energy = -13.91282909 eV
Mg 12.49513504274988 8.264481180779896 9.143677364795028
Mg 11.319745965143012 7.14911197893695 6.631218095726176
Mg 6.65309918381455 7.382225177080696 4.522922445738733
Mg 11.066930324075692 10.535159485382664 10.513253761390489
Mg 10.47728092972674 9.90582827602978 7.573897949020398
Mg 9.38282193855936 8.942176765781896 4.893344639998777
Mg 11.415917838912 7.96893468392976 12.089890388568964
Mg 10.021492246016594 6.562326369434725 9.513709759653915
Mg 6.812428543461376 10.229120054583685 3.8988593329260794
Mg 8.283174934218556 7.320868444869249 7.20232226414742
Mg 9.078042890253352 9.782153779653617 12.785670094432895
Mg 7.536741656612782 10.417661441347397 6.989193900847476
Mg 8.607469474335376 6.902101972781009 12.287529076026523
Mg 8.414925667655329 9.3096772306429 9.75740155365342
Mg 4.780172020010844 9.316027411895863 5.923795206801105
Mg 5.284035515208713 6.630356846954941 7.199621686500975
Mg 6.253388873686233 8.845318971851993 11.889272581546624
Mg 6.907166780929208 6.591454259081899 9.84388870428717
Mg 5.413652827648246 9.15087240530514 8.912849767243024
