15
Energy = -10.64082565 eV
Mg 8.063337862042635 8.995388991839503 6.121852978281012
Mg 5.6626819885686706 8.883888516801866 3.8550911688402456
Mg 5.230605747731419 5.868794600146921 3.1346878975456756
Mg 3.1263017989191475 7.375018614314119 4.887162077127826
Mg 9.37046569584602 6.098473766161635 6.528226246780731
Mg 7.37651106428596 4.153628256789053 4.92258432239661
Mg 4.01255066129719 4.523994757965509 5.532268894723846
Mg 3.75984071055201 6.601804913275561 7.710990382967774
Mg 8.92799133657805 3.277444112258376 7.409429793102279
Mg 6.292379257643058 6.700239892975811 5.829359367421812
Mg 4.7044023824556005 9.282176792063265 6.677739842166191
Mg 6.162828774519047 4.502934262830713 7.9828688391069935
Mg 9.601976631858069 8.199674447037081 8.638045726308583
Mg 8.62892005320393 5.446350934026165 9.530589885360241
Mg 6.5979808948084395 7.608962001823395 8.757877438179158
