10
Energy = -4.76107701 eV
Mg 4.730642255563767 11.03763780860802 9.497007166691994
Mg 11.027519126580446 7.043665547783347 8.38095760958406
Mg 11.141999388345841 6.065622013460804 5.4971576340400885
Mg 7.411499316492882 11.958978235770513 8.651809636365005
Mg 8.32580722763879 7.004248003789004 6.594444041429431
Mg 7.065191980839795 9.647365081856634 10.788317079962901
Mg 6.29157005315882 8.913160664840865 7.862923888126562
Mg 9.590105004701948 4.4664479907432355 7.753282642817722
Mg 9.27513357531548 9.464015792814777 8.713843753665122
Mg 8.086418406979956 6.759798191162372 9.718504595878272
