15
Energy = -10.72795468 eV
Mg 4.868632703254609 5.981842751816946 3.196975961142115
Mg 7.826601283696701 5.651808431964875 3.5457547323967886
Mg 6.088576516290261 3.402822177675089 4.498770350623025
Mg 6.580868311968757 7.937851427271967 5.158952054645426
Mg 3.5516435650007487 7.582323633284803 5.3620359884596995
Mg 3.4308954516620003 4.601133023780302 5.618013921224223
Mg 9.574693845681793 7.539925092693553 5.651977535980217
Mg 5.294066042285381 9.459366787442153 7.483195877749899
Mg 8.28001319458922 9.667442027264743 7.322617152050665
Mg 7.890175147721263 5.150584704066583 6.562538317449543
Mg 5.025963506136575 6.434204605915178 7.784569864856655
Mg 5.5090841961239185 3.437461441543355 7.44022254997496
Mg 9.505468407917991 7.087770527987291 8.613649959724961
Mg 6.852393629625192 8.286274905771895 9.75556918083297
Mg 7.268168768577784 5.326433032053049 9.552401123420902
