15
Energy = -8.97408542 eV
Mg 5.994425564627755 5.994466262551724 5.994544023814637
Mg 9.046296059661598 5.692431883905906 5.989225045496816
Mg 2.942549363564202 6.296400858565566 5.999572717624739
Mg 7.314310627679477 8.761934688159073 5.99630670785382
Mg 4.210555865012884 9.156641304536862 6.003298536697389
Mg 7.778314537693237 2.832190003525083 5.98557174443175
Mg 4.674569547046016 3.226947314499292 5.992489434825377
Mg 5.108186729045584 7.5700301918443 8.471806205226406
Mg 8.224248306928262 7.30728468660371 8.539856793522407
Mg 6.83073331516754 4.517489727494208 8.436469956737131
Mg 3.721325121952838 4.767396299943937 8.543798476664135
Mg 5.158163992479915 7.47131119698162 3.552416576038306
Mg 8.267577505670355 7.221485314660447 3.4450268074770665
Mg 6.8806374220696 4.418895363244631 3.5171290188785367
Mg 3.764568783812402 4.681557859297874 3.4489505904214215
