10
Energy = -6.51105166 eV
Mg 6.400259398386205 3.6781837947819804 4.06629646417525
Mg 4.867702462389751 4.271109581857153 6.638305355499351
Mg 7.907051655603703 7.388974847566166 7.152790278982711
Mg 6.40455870040218 5.487210663918581 8.980064353251928
Mg 7.908413404956581 4.310477690594438 6.621918855852956
Mg 4.865704622132081 7.416877383069441 7.18159672309877
Mg 6.3961055389085395 8.839156712358298 4.956104933088256
Mg 2.500937004652824 5.998443471330644 6.007829208641848
Mg 7.902296001838819 6.309616870399457 4.2227416744221165
Mg 4.860379209210285 6.313356982605304 4.185760151468153
