17
Energy = -12.37420397 eV
Mg 11.60038006766429 7.805209359940801 9.77157200074368
Mg 9.33294066016041 6.03191939532053 8.761147514580628
Mg 10.70472723334087 10.033326888764837 11.54474617830033
Mg 11.476053715802577 10.570840294193449 8.650728728521264
Mg 9.257433180112525 12.23776690999744 9.816875567497192
Mg 10.126993796435452 8.275941622197372 6.967588608302905
Mg 8.672780964351086 5.654427045195693 5.8522554719286815
Mg 8.984849888031203 7.40918031792319 11.45267201252787
Mg 7.326425981322049 4.925289306121778 10.729466973205977
Mg 6.417917326984332 5.282102959864848 7.78481436160249
Mg 9.03551755175451 11.133742958394896 6.773962935618885
Mg 8.26554454893889 9.39661827245131 9.229141289849807
Mg 6.995261906275537 8.094331115950627 6.71065559483702
Mg 6.097300463555227 7.471282647270185 9.83399058881407
Mg 6.599782811817955 12.379562989216549 8.353363127379875
Mg 6.132528125348371 10.946364794469005 5.738748579169642
Mg 5.01337678320305 9.849698003363898 8.314568418937702
