19
Energy = -13.91110741 eV
Mg 5.024810171620339 9.942955937137311 10.943674133110314
Mg 3.709549999463266 8.871235358737186 8.460403590759267
Mg 8.090542621101358 9.073994371802005 11.22601984133032
Mg 7.795640796194764 5.951823384240615 9.952086382338628
Mg 7.171024408017208 6.649404484208294 6.795351458698346
Mg 7.232438414061484 11.765018004308953 10.06537120749951
Mg 4.622772000772718 11.683697773305283 8.438934626477849
Mg 6.792913000393569 8.85178331398942 8.723028282489155
Mg 9.202301678684494 4.603244020855646 7.6169613843330914
Mg 5.639329225679145 9.412624521062176 6.153766930842336
Mg 10.883690216596346 5.068733600302316 10.053082743772025
Mg 7.313207827726633 11.817459790415754 7.100899323656423
Mg 10.033286916867342 6.519442967464452 5.512104457371131
Mg 9.666800441991747 10.540318095734975 8.757802796038925
Mg 9.792486521942253 7.585878337917976 8.779857634155647
Mg 8.725996866244333 9.218665461978865 6.159537581242827
Mg 12.854342556648847 7.230399254624693 9.342990814551394
Mg 12.174303707015767 5.305655146556939 7.239011418008172
Mg 11.666104605549021 8.720569416413781 6.9427688672466426
