15
Energy = -9.72258344 eV
Mg 4.752639540025337 7.278123608944063 7.453811558328187
Mg 5.137743384131754 10.274661933527902 7.945333200217881
Mg 5.070905489094784 8.36363668681152 10.284595934759007
Mg 7.205301755541168 6.581077670402981 9.148022847091426
Mg 7.386822077975826 8.568849088817242 6.685846248102356
Mg 6.013560830799437 11.226541336444736 10.718029736723764
Mg 7.940207295889653 8.865845732835552 11.03652694649602
Mg 9.923528599747756 6.54709976658771 10.596632318976845
Mg 8.116293030794969 10.839555822959209 8.570459019721833
Mg 9.739487858572758 6.784586187384998 7.5360069634511815
Mg 10.173048192040747 9.766031856207457 6.618041239015175
Mg 10.59227887183363 9.414795065398554 9.713437899854371
Mg 12.431810296210202 7.0077669351311025 9.047665972380923
Mg 12.96049059378089 9.76206385201988 7.9014970069750206
Mg 12.23823072692982 7.563980145821486 6.070005439272966
