15
Energy = -9.5069324 eV
Mg 9.386188489022855 10.756241101251 14.3186767955459
Mg 10.293910147485432 8.372951868665323 9.50469328629294
Mg 7.172214296855439 11.97466146761666 9.839641372528302
Mg 11.532217119146203 7.256822300902449 5.446289002906236
Mg 12.632158750652662 6.789071268970747 8.120166825061222
Mg 5.71148405098216 9.273895495631386 10.328820517617599
Mg 9.601098564780614 11.1547456187569 8.238736368189715
Mg 6.910585290196581 10.89671410522436 12.642971639155402
Mg 12.131521137198316 9.708460077230798 7.284455806247122
Mg 9.749298469120182 5.75144007336408 7.572197581653967
Mg 8.301570528751947 8.246673637120837 11.688035512700434
Mg 7.451358072917198 7.2615387729507015 8.905181252553485
Mg 6.724737576442498 10.063028227914588 7.623396523068443
Mg 9.820506068142379 10.80631111731702 11.206508108171139
Mg 9.026085956074914 8.603627579893763 6.583945931134132
