18
Energy = -13.13483608 eV
Mg 9.808877885196363 2.308785551860862 6.235983760407698
Mg 11.730927498874667 9.156250735100873 9.197123358878665
Mg 6.12758586060022 10.357454511296407 7.917305662191304
Mg 8.55835318656456 12.295897014342316 7.260130998856621
Mg 11.184089348086331 10.793346005673683 6.715291017656495
Mg 9.284107859361326 9.716917522405787 11.503933246556407
Mg 7.229802649394313 7.287164007232907 6.917169211013515
Mg 7.668775895590278 12.122460815602082 10.131007030316594
Mg 5.942806896019992 9.990345457604217 11.237697878038695
Mg 10.607300909698154 11.863972274962357 9.52925750620926
Mg 7.2392764973674115 5.479253290545711 9.356017149380895
Mg 9.890618258305366 6.789502383004924 10.044648347171995
Mg 8.696026943964801 9.24552283332374 8.694620376271535
Mg 7.370937845649493 7.3959192760500585 11.667004805656351
Mg 5.33944707536853 7.791576803022534 9.292791030780577
Mg 9.503811454404032 5.194816572400834 7.407748815594725
Mg 10.6715308354675 7.792214059089763 6.584954323786267
Mg 8.517057432362936 9.832839832670741 5.654321355874875
