18
Energy = -12.6263581 eV
Mg 8.763125822225687 6.842510020052657 10.95157180516442
Mg 8.609488238278242 10.338353747194306 5.967615120416384
Mg 11.33756606679274 12.087470377190325 9.922905300194344
Mg 10.681454934481156 9.178607273495611 10.71161386010933
Mg 9.353078160344273 11.5719960032442 12.111725762811945
Mg 8.316426666131512 5.437251558794337 7.799268718968155
Mg 8.93439916738751 8.82045965383849 13.229640309186742
Mg 7.214120115165609 9.531078476076727 10.914913041653474
Mg 5.665368431636121 9.33511530688486 7.2174427229209055
Mg 8.354524069926693 8.41077622519402 8.260895419946126
Mg 11.066551686298638 6.984981078662194 8.823605463529526
Mg 9.769400506602324 7.412186970358281 5.799429206494669
Mg 8.592760542194025 11.404627750585455 9.017565303886464
Mg 7.771651211093212 5.309109858160207 4.773335401049578
Mg 6.065319441673313 6.881032589501306 9.468717514321028
Mg 6.969482697784776 8.236517985643983 4.747202349295985
Mg 5.615769634885551 6.3968460664992115 6.612366243376624
Mg 11.052063908748577 9.953630360274179 7.8027377583243975
