14
Energy = -8.86851074 eV
Mg 13.843727111942911 11.03194664145177 11.925943867740534
Mg 7.067725106929049 5.480664669272559 8.173516219626288
Mg 11.604146135034961 8.493991048956383 8.82796622859688
Mg 9.113942356228655 7.101983740658592 10.14270597594023
Mg 7.844759555115148 9.5819748969207 11.215902538859448
Mg 12.36107343230145 11.384236841286935 9.364296676622502
Mg 6.077203453631006 7.531943005373623 10.165764061743246
Mg 11.04745054756646 9.631972128711883 11.497773882490211
Mg 4.7060599520828195 7.4334282619278245 7.553885654157123
Mg 9.805190340523875 6.540104655654381 7.366794260874884
Mg 9.413411837763666 9.497804058575147 6.798160494621243
Mg 7.187122811963586 7.693181475979719 6.132696832774223
Mg 9.439032574114051 11.13813837580718 9.2729449186115
Mg 6.827727771667553 9.871916795252949 8.31848579348895
