11
Energy = -6.55707816 eV
Mg 8.851432498477823 8.842514864157415 4.949033472094221
Mg 7.404116261126037 9.424741752117823 7.648327840571306
Mg 10.31146198204725 7.233068574417995 6.893816935779505
Mg 7.393121930325134 6.636466628557979 6.52554731508356
Mg 10.278843316621803 10.208695665248344 7.313995588555725
Mg 8.831362296502949 5.90229042815571 9.197126743933264
Mg 10.747746298357852 8.264477961997867 9.725632341844998
Mg 5.933859704330061 10.02658676220937 10.325647985267059
Mg 5.989117242950383 7.205695068526118 9.093791491175029
Mg 8.887231542501516 10.761756518559393 9.889382928589827
Mg 8.025972816415528 8.147971665707582 11.091963246761228
