14
Energy = -9.02723195 eV
Mg 7.81205028276459 11.189498744141142 6.635931308156039
Mg 6.514287418629822 11.819800145217487 9.352291107123492
Mg 7.473259970301459 8.614304224407972 4.901066911035051
Mg 9.72529066694004 8.615943641175978 7.072423430928465
Mg 6.615458269995234 8.984070092645341 8.001313880255012
Mg 9.225600594285822 10.293878602812262 9.49745596610202
Mg 6.941628218428171 9.42452387260308 11.24845779080599
Mg 11.446194595242162 7.841653041678119 9.705319809180958
Mg 5.770957836888189 6.762863427735145 9.734180214244363
Mg 9.62175115744136 6.474668915069514 4.855244921298344
Mg 7.546169828201785 6.188717270816579 7.007106173846205
Mg 9.821468099416341 8.770650028064608 12.146844260309871
Mg 8.697107670379301 7.067811795069118 9.757015138219318
Mg 10.664701689704984 5.679590736632548 7.589969933462995
