10
Energy = -5.05233303 eV
Mg 8.147480322459986 6.066433210857486 7.318285334331256
Mg 9.481664866680676 8.38799024153436 6.1409204869537035
Mg 6.7224514161099025 3.921184632145751 9.00578701068186
Mg 9.744050998253094 7.968833172372933 9.274663445852383
Mg 11.322992112399483 10.331730564843566 7.617912332862281
Mg 8.686570004789886 11.35176718767962 6.47426478487042
Mg 7.720905129737686 9.420655749200783 11.137444853463533
Mg 7.0409079083147885 6.684622341178732 10.17708939676747
Mg 9.144529572673607 11.32525089723436 9.442252143864957
Mg 7.094118081103065 9.001497547089215 8.126912372371473
