14
Energy = -9.40351844 eV
Mg 5.782918650175239 7.321931698782476 4.3009833545103096
Mg 7.896151735326852 5.576143040017776 5.72657468318882
Mg 2.991485003075184 5.811556133396185 4.633506587332428
Mg 7.286239125973621 8.929194991694438 6.556959197621396
Mg 4.206896481210568 8.119158816588323 6.68009922715241
Mg 6.16429433166497 3.1126132378078775 5.588116665914888
Mg 3.1347331098793316 2.94971389965941 5.801850211960923
Mg 6.1653106446281685 7.358784980543132 8.9897346645763
Mg 8.995181728378912 6.910575798117174 8.206045244480386
Mg 7.219792785717735 4.372112650535035 8.601863726518937
Mg 4.738263468998198 5.273891877786324 7.043338756626684
Mg 4.391757681791793 6.163617018395338 1.8621797889913
Mg 6.8900374117406775 4.763150968850343 2.981423276353948
Mg 4.1960862077559655 3.396702428456527 3.086472320539212
