19
Energy = -13.7515604 eV
Mg 11.541263394934465 9.912370637568499 10.876043462354833
Mg 7.717149499281787 5.509044154714526 9.299589869639483
Mg 9.096567845443579 9.28424080959054 12.676635922795374
Mg 10.320437869338415 7.1233818029204174 5.355301223272912
Mg 8.188207042736858 8.007916315812702 7.74811492315481
Mg 9.040721392565894 9.799272247794068 5.6391086210149
Mg 9.923220190417714 7.2263652561294265 10.547712162657483
Mg 9.017605195361458 10.471077748283346 9.238560039621689
Mg 5.947977861340608 9.157906534551664 5.734034958126019
Mg 5.3626707727477125 6.947519293328983 7.726567308553411
Mg 6.8929710988786965 10.940608146645383 11.371637115376352
Mg 11.221335440703402 8.683180349503905 8.02238808513072
Mg 6.936145429970395 7.966631600992664 10.865530242512515
Mg 10.461789086580344 5.674293863517629 7.927866358789764
Mg 5.933758857861237 9.95658652993489 8.720017932057438
Mg 9.727408310128412 12.000608221059863 11.903828159544403
Mg 5.235050917685453 6.434664400495754 4.690996895294399
Mg 7.837076974829812 7.601072959681942 3.7744374907269376
Mg 7.8289008329638206 5.533517141243588 6.111887243145536
