12
Energy = -7.33145943 eV
Mg 9.767984572049059 8.92197723931526 9.990119245740358
Mg 7.918878127623814 6.6334618026705385 8.075231036212404
Mg 7.818488297139587 11.310431866234657 9.664904044377893
Mg 11.111425781523222 6.3443799131083916 8.76001392659249
Mg 6.823795452998826 8.330938581781886 10.607747673905932
Mg 11.932403459297484 9.1629671492361 7.8810137249222665
Mg 8.87421152766191 6.0639991519838246 10.768644097707305
Mg 7.497380222616708 7.837220419587939 5.459761530109455
Mg 9.05128146017677 9.846469152340267 7.225258207503319
Mg 10.403472029270187 7.2545692957763785 6.032772601103079
Mg 4.922087724652483 10.688020980262406 10.21088192971312
Mg 6.085464594952237 9.283030216109019 7.757968436595015
