19
Energy = -15.35097489 eV
Mg 5.595366968202561 8.334016369129708 3.512479581871303
Mg 4.143082509948966 5.738503593145866 4.487802680099731
Mg 6.764949290146265 5.637420479707378 2.9967285117340925
Mg 8.448905770996614 7.879874429674904 4.3907913682904995
Mg 6.417239042489777 3.594331140872209 5.1922103547917935
Mg 3.559716448717164 8.44685427656004 5.691332976192431
Mg 6.409870555898725 9.6644929982121 6.097228441949846
Mg 9.183583929343843 4.956471296073781 4.612526876716645
Mg 8.626565624368045 3.6726419943670434 7.251211611439113
Mg 6.499339350359768 6.499409221856029 6.502631578409549
Mg 9.634042200212466 6.629590035676031 7.0900789965681135
Mg 9.308258472400246 9.54472744302126 6.684933382687208
Mg 3.6859097247194073 3.461057823041597 6.32512003688299
Mg 3.536058652870108 6.115110026151862 7.614722722318863
Mg 5.816761400051329 3.9627563777909045 8.318394848058414
Mg 4.63767789437426 8.927508123136963 8.434634570236744
Mg 8.224838893611267 5.551190536616572 9.533573824665746
Mg 7.59002842098936 8.410890020422485 8.808217647209277
Mg 5.4147431794306025 6.470092143675163 9.95231831900968
