18
Energy = -14.2791358 eV
Mg 8.610544111750572 3.884657719077504 7.564648087181672
Mg 6.054584116537124 5.999894922863641 6.055026110659649
Mg 6.055824331319636 4.335647505163075 3.2650674712893197
Mg 6.052527171980135 9.27475558061352 4.429418991364141
Mg 7.792511658595453 6.868452228322062 8.43564736896994
Mg 4.317376673749213 6.865692837477889 3.672984491102598
Mg 3.500723713248212 3.8801497997623655 4.545539418075761
Mg 3.6454189697913826 8.820218276830914 6.054163531581473
Mg 3.500531528632617 3.881870300948422 7.56421627103492
Mg 4.3156298357361145 6.866656271108311 8.43565663902266
Mg 8.46086438455728 8.822690542144015 6.054120712478834
Mg 2.4194474179925116 6.17043588388063 6.053339908695924
Mg 7.790740119063391 6.867458905476905 3.672965670681063
Mg 6.055852032421048 4.338005673796371 8.844631154338837
Mg 8.610307608012606 3.8829217448383764 4.545086834974015
Mg 9.689473207267492 6.175114534272346 6.0533157240675175
Mg 6.052547334450448 9.274511210567505 7.679730420956039
Mg 6.056421681420209 2.7721919593811726 6.055767090051078
