12
Energy = -7.23903672 eV
Mg 6.1383617255714125 7.849828106257776 3.3105129496030625
Mg 5.420702110231619 5.7642241625595325 5.355926126219903
Mg 7.454962402489495 4.396499955366223 7.098661017085822
Mg 8.349015114449191 6.704670306893507 5.28511965533716
Mg 8.057870550416366 9.724588702285516 4.279521688735702
Mg 5.943151904408029 8.656889592676778 6.450689981400003
Mg 9.001352997581012 9.115526354042359 7.069355533653717
Mg 9.533939396494342 6.321730743183109 8.090017074673955
Mg 5.057133977135176 6.320911553499359 8.250161297951959
Mg 7.439315782661974 5.2228741323726995 10.067380011898717
Mg 7.164491787021024 8.288374686603563 9.243972680742418
Mg 5.24875999320091 6.978479059420012 11.280350513868475
