16
Energy = -10.73139204 eV
Mg 6.724361837451962 12.242662749188403 10.351067558199645
Mg 4.365940364619432 11.008257377488867 9.072903579987578
Mg 8.52144583276832 10.169913121722834 9.272795472257307
Mg 6.7196227845121825 11.259496811567798 7.097583111314051
Mg 9.676900106314497 10.846349346097872 6.674225782891747
Mg 6.11909602189662 9.1105810987231 10.639104611626408
Mg 11.203789005888767 8.943733628214014 8.908244057874994
Mg 9.201232214710553 7.9832648530986035 11.151083466193606
Mg 10.911481630192638 8.049244393088912 6.060961444142253
Mg 5.195956084900869 8.544091175780272 7.561345341817956
Mg 12.099159637281169 6.8882201497599596 11.035334358296932
Mg 7.776530333909977 8.51571154986339 6.158833187740518
Mg 7.475758115365387 6.999582593170552 8.837288702205806
Mg 12.103547101092285 6.140741541099414 8.110194111263612
Mg 9.839819589615606 5.238876475429215 9.858725265007418
Mg 9.293136821654741 5.634785809490799 6.839258448151655
