19
Energy = -14.75344553 eV
Mg 5.643586927491006 4.98689846676865 3.3205815867553823
Mg 6.262596804957891 8.050792377298606 3.758130978605271
Mg 9.324606189504168 8.386311966267819 4.58229835280926
Mg 8.525852326934334 5.88037321254546 3.249322017704797
Mg 3.638023673898126 6.4784403961562145 4.768123419759379
Mg 7.242086603016226 10.017741259213283 6.027133820192301
Mg 7.712612417474782 3.4951271725960984 4.900943013122821
Mg 4.762190125950911 3.993368768467952 6.415007988566525
Mg 4.489405957103869 9.130578702569267 6.176645498646539
Mg 9.315790144636576 8.526360485668786 7.592539098488255
Mg 1.6355803077493736 8.198629787589159 6.210798397590511
Mg 9.539321234152975 5.678187765901519 6.260021427790231
Mg 7.6102010788428345 3.621755176788548 7.789796786673136
Mg 6.537838374509182 6.499588088311662 6.445450526893052
Mg 3.54139158887687 6.686931149673459 7.866787072096223
Mg 6.148999833745814 8.447257420728683 8.792644829200407
Mg 8.430008156896067 6.2859349386600645 9.198616910566246
Mg 5.490225253202972 5.267731893079164 9.354575412411485
Mg 7.6496830010561725 3.8679909717156065 10.790582862128327
