16
Energy = -11.52311922 eV
Mg 6.992779558724222 7.439715812242579 3.932383153078156
Mg 7.826886175305827 4.012381673609559 4.692315431374849
Mg 4.96821069068527 4.513252881946331 3.987039585316626
Mg 5.433604633484329 9.69475209627325 5.513605021655616
Mg 8.441134888230609 9.471749543289498 5.529230213396404
Mg 3.7908630158136476 7.238449428177017 4.791080169082507
Mg 5.727517417604418 2.729703729008388 6.429087464396212
Mg 6.225630658247768 6.038206728145949 6.385343110284866
Mg 3.3940222540482887 4.795477170689821 6.629032899856461
Mg 9.18538252667847 6.56726118700435 6.19109594379212
Mg 9.683986328297335 8.709285847581784 8.196786235916047
Mg 4.561171704585187 7.875440787430091 7.946256116681832
Mg 6.831547745533249 9.762371030331254 8.188265940784873
Mg 8.146568852613171 3.876787022455122 7.753771106454074
Mg 7.486264656153635 6.867598632685445 8.988833826644248
Mg 5.332551709408904 4.435689244543461 8.873996596699293
