13
Energy = -7.3210013 eV
Mg 9.834502531176847 8.257250177973871 6.921577587134487
Mg 8.042136322520095 8.822805185386233 4.568732156865958
Mg 9.852667582731925 5.249812651651608 8.274811407607066
Mg 8.171543240175797 5.9548475921476225 5.811770645168245
Mg 7.4439479396761685 10.051876561988323 7.298674963082202
Mg 7.548071334811959 7.234350056520488 8.652074385717636
Mg 6.070470501037228 3.7820074335395546 5.301521097675467
Mg 4.953084888511719 8.821012084432521 8.479886906181397
Mg 5.168855422512085 9.156251436711328 5.495000885128814
Mg 7.034652795503922 4.114253224368711 8.166164927946989
Mg 5.092926662834187 5.79725993362452 9.792556598716429
Mg 5.963425435838852 6.74864230597094 3.8691868871973107
Mg 5.145037350625933 6.30103837407352 6.7723074086977
