13
Energy = -7.76980928 eV
Mg 1.6779554160139116 8.140861921951828 6.2242462887657375
Mg 4.66671554265226 3.588860352883597 1.914200887261316
Mg 6.918222612355406 4.546104719386621 5.159755128623476
Mg 1.6779554160139136 4.424435402893986 1.4902044086818735
Mg 2.6093429170947884 2.6730591480645236 3.8305162324632693
Mg 6.544524200582353 5.836854937949783 2.4036209167584204
Mg 5.434692088668107 1.8970578945642353 4.424054770374223
Mg 4.83125912967193 6.755604111910297 4.763131702277591
Mg 3.9953543438852295 4.164338369397372 6.0600256384136975
Mg 3.716089570436877 6.540009395308437 1.8630103789290802
Mg 2.039834582170097 5.69595866696694 4.196087876011547
Mg 8.515672674433434 2.027893578109719 5.194270594068801
Mg 7.640856118513034 2.9401303270681907 2.5145034596657014
