12
Energy = -7.67439393 eV
Mg 4.297485757689547 10.005223755468588 3.638771624541039
Mg 6.736505040334819 8.336547666851702 4.0135128230828485
Mg 7.173116156537906 3.457690152790937 5.097992104262817
Mg 5.400870139307091 5.857468191883267 5.475978651645789
Mg 8.488984821609362 6.238963473454104 5.2699449021742
Mg 3.5862789461414457 8.584564974156935 6.140540135537652
Mg 8.748495090890867 4.219387318446864 7.583611099459785
Mg 5.731676235684144 3.7752247920503588 7.78630768364938
Mg 9.523946082478844 7.1188887227496815 8.030122795050561
Mg 6.771535598445308 8.006576845010995 7.173675593782264
Mg 4.415952926353345 6.458132457115438 8.274478651561854
Mg 7.125153204527098 5.94133165002076 9.515063935251586
