10
Energy = -5.80470172 eV
Mg 8.55056957657621 4.764116811801729 8.132393705880713
Mg 6.652465052762622 6.966625670450589 9.07454396077812
Mg 7.555577790568138 9.14509275578721 10.96359685388683
Mg 9.681532377224196 7.044823226875284 9.974585039569718
Mg 6.789566826236473 9.74835792637306 7.930393057636955
Mg 10.470185490056906 9.601028667829112 11.400558662759975
Mg 8.936187379241229 7.646003894551416 6.976480834561304
Mg 8.895550731173776 11.360553099026717 9.390515480137411
Mg 11.009245326544908 9.319810651478273 8.442874483144639
Mg 9.189166897560426 10.603696422456826 6.401268068853319
