15
Energy = -10.26207361 eV
Mg 12.25557937163601 7.981525853322289 9.152451712318758
Mg 11.93174672834355 9.827650277090221 11.529238872082239
Mg 12.08582202134188 10.938171533358362 8.668676882998831
Mg 11.357541552774302 9.065074793860495 6.371900855238179
Mg 9.304001662417354 7.685975707584193 8.1792439441033
Mg 9.238739504542004 9.998185225006402 12.85710947310426
Mg 9.867937113479215 11.796350154448714 10.51089965333176
Mg 9.131350347922176 10.857779928550649 7.719585412298728
Mg 9.889911863297854 7.590493949662084 11.088030743800292
Mg 8.421135364866174 8.684667276109458 5.411709918120722
Mg 7.183167499263077 6.498740333574169 10.014698012995193
Mg 7.666771114766373 9.658672604197017 10.15343574865486
Mg 6.299814858447431 9.982714923545798 7.207590012101935
Mg 4.9128866290813695 8.333452432380527 9.327036256944933
Mg 6.436058185785233 6.943211769566885 7.076213548009413
