17
Energy = -13.1754608 eV
Mg 11.10390781397665 9.38413551474583 6.897600604499972
Mg 11.411874169426595 6.400452527713698 7.492162373806651
Mg 12.436414634048557 8.444315327746395 9.537528566306529
Mg 11.44586487178361 11.334241321824841 9.22486696480068
Mg 8.90926857466877 7.391186642770229 6.043336039368298
Mg 8.768064697472827 12.026087363841624 10.550879910363141
Mg 8.730201592885011 5.058755703514793 8.103889264215002
Mg 10.206982256832843 9.464653130548937 11.366144639465436
Mg 8.93335923752894 11.496286937905552 7.490920013933345
Mg 8.780362456735542 8.743726095653376 8.770579116736675
Mg 7.12243949858454 9.531044058834429 11.200488844586568
Mg 10.175357277189264 6.551566047456526 10.34706128317431
Mg 6.231112853342227 11.463278689972306 8.93251599479002
Mg 7.10171011396567 6.619289247059402 10.171141757106827
Mg 6.206885915697651 6.53972108002414 7.195972073236097
Mg 6.732353112002306 9.499191050646147 6.648352856359648
Mg 5.061253799801204 8.638258300643013 9.122335549554283
