18
Energy = -12.73026413 eV
Mg 10.774995815868264 9.523355766366556 10.151995450461746
Mg 10.203700871409223 6.719677607672367 11.728177989823616
Mg 9.163113670924867 6.101833575822971 6.675552377654214
Mg 11.908070355506476 7.1134997842225625 5.683741580158433
Mg 7.854198610845032 10.348381450169446 9.457798672015455
Mg 9.897509950718439 9.517943927140529 7.3089910764454915
Mg 7.000938067124584 6.728010209191811 12.012787094214557
Mg 11.878769841391263 9.973248329360251 4.960852782924784
Mg 4.991812277903792 11.091581899550803 10.199988195087046
Mg 8.641126322041861 9.250905914071012 12.290366354939737
Mg 5.5876225613029336 9.33531315848888 12.574303395481373
Mg 8.395042052678962 7.311436473141902 9.384858568807116
Mg 7.079283309586668 8.535702686501235 6.957016299802128
Mg 5.52194391848889 8.11872818477129 9.686634313549042
Mg 9.273597523936756 8.301235614326886 4.624077595140943
Mg 7.218327393727431 11.901406186160262 12.12562498666304
Mg 11.355855415559045 6.708593171683746 8.758206172593972
Mg 12.848713816012616 9.181782603854687 7.734556513697865
