13
Energy = -8.41514572 eV
Mg 7.156259888076261 4.305142776959569 3.031467340786534
Mg 7.9319257760696615 7.167886654254535 3.585412237974248
Mg 5.240714848958855 5.985007185337246 4.868967200262716
Mg 9.212994807640529 4.91482846143203 5.029938557383649
Mg 5.937981651667664 8.8367367396689 5.158010425592381
Mg 6.542325262692451 3.4664730216752795 5.861475383197062
Mg 8.11349797247792 7.5887301921540695 6.680985214871378
Mg 3.638139069978094 7.611953233352086 6.80240257610532
Mg 5.310265533558256 5.364700583842069 7.840518979374149
Mg 5.791710218602789 9.443125895269567 8.201466237301146
Mg 8.229812326488455 4.962388016207916 7.964429574733001
Mg 4.165719334885215 7.551696420793204 9.771396100512712
Mg 7.189289970300146 7.26196748044983 9.66416683330229
