13
Energy = -8.04896154 eV
Mg 7.661289630139064 4.32070758977557 9.057336248766495
Mg 5.180607383923606 4.20366647450474 7.326668112285509
Mg 9.968469264678996 5.609345585560387 7.576331366251935
Mg 5.34076393177117 6.345095557564334 9.548916868586137
Mg 7.937450066232136 3.8384031495759263 6.139364493395681
Mg 4.331850614323335 7.127538505540217 6.844612622165826
Mg 7.4442588374491265 7.233425975364562 7.770650431688772
Mg 8.642996630260978 6.733537299386008 5.092082402753495
Mg 5.463132656991798 9.650457712223186 8.177576847739388
Mg 5.866933701624041 5.602307499719266 4.681630317864428
Mg 9.22058764554744 9.45673000769612 6.465946292009316
Mg 6.285115467415099 8.868068621607328 5.273419559417624
Mg 7.059367721912436 11.504431571040794 6.5547470940482215
