16
Energy = -11.47855157 eV
Mg 4.624455818386616 7.718981461288967 7.734718677579801
Mg 7.431331080825557 4.4585872048948625 3.9661032418881907
Mg 6.498450575763833 7.588297723090508 10.127091167854216
Mg 7.146970912475596 9.431001385382215 7.933277794845282
Mg 4.421421816731284 4.173478672116558 4.24641645377266
Mg 9.333066672804359 7.524510090116673 8.812295809410044
Mg 9.413664649532057 8.690832430377089 6.016102750738731
Mg 7.808766214407622 5.028762480097383 9.158301829384893
Mg 8.92239980543876 5.7153827958398695 6.397377901328795
Mg 6.53304036900771 7.822137519062913 5.460100024009871
Mg 4.766429299324386 5.205610896025639 9.466191141669462
Mg 8.700079289041716 7.174721619298194 3.4106435413109795
Mg 3.0273764590145467 4.8665939058215635 6.949373531291062
Mg 6.072722902456147 4.969338402564645 6.708136704467894
Mg 5.709112829365261 6.612774251182325 2.7425634981922524
Mg 3.5907113054247577 7.018989162841813 4.87130593225635
