14
Energy = -9.29312829 eV
Mg 7.724419065723808 8.047294961491566 5.795465293032789
Mg 10.354349650957102 9.26689946919354 6.917016962555433
Mg 7.52516040577485 10.76332798110072 6.991128918302116
Mg 6.462417349234835 5.978435866525914 7.498655768843143
Mg 9.794925280049195 6.08364798369358 7.034270849736276
Mg 5.176940998942984 8.751523886016125 7.28672558373157
Mg 12.336411307639247 10.3551923132032 8.961465815495684
Mg 12.037240654236113 7.384151260417808 8.694683766817043
Mg 6.325476481123818 10.235558331018426 9.662972832189158
Mg 9.383408405744543 10.770479366506882 9.590627087585036
Mg 8.503037089607314 7.830169901220868 8.997559306937505
Mg 5.563197519895634 7.3949752996810325 10.007001646332618
Mg 11.113573211882636 8.782995356364966 11.201003098753924
Mg 8.081851012614132 8.73775645699171 11.743831503113267
