12
Energy = -7.02962883 eV
Mg 8.922052455916445 8.829692361999129 8.463329489651734
Mg 5.811897325870783 8.482650727333056 7.72982370449607
Mg 10.611518376317669 7.123268075700367 6.5679920339289914
Mg 7.768320167131832 6.1126466608745185 7.840886476644151
Mg 7.908285872541843 8.127164164457904 5.517300052639789
Mg 6.913270400598186 7.774569991113379 10.512928461423483
Mg 5.043650649026883 8.814612647650236 4.817447966820214
Mg 8.765390225769238 5.100076307631642 5.1909601844634805
Mg 5.054362230021171 5.774368917940581 9.10045437877062
Mg 6.101900815290252 6.0012694481778315 4.201748177143429
Mg 4.03422204756726 6.363562508954078 6.361433204267544
Mg 6.018589377066591 4.080590310224892 6.540524447385382
