12
Energy = -6.43370455 eV
Mg 8.974628952992678 3.6981731508567592 9.111311930581623
Mg 9.919592277067949 6.427280954837991 8.112667448092793
Mg 11.452092816528017 12.010899538561095 6.68698025801274
Mg 8.443376590875985 11.518774144339814 7.332369942923602
Mg 8.80838015771217 5.953744747759175 11.224728544931034
Mg 10.720729909600557 9.113976119286551 7.328068693593098
Mg 9.854104080542287 8.674418578961161 10.338502169478485
Mg 10.477425588180177 11.560955311666408 9.589364837048521
Mg 6.765265795081142 5.8920592027497785 8.977144610609223
Mg 7.6603116601534005 8.628511588168225 7.94711554147436
Mg 7.5796720536238285 10.903975455128707 10.165592163338655
Mg 6.767041380299032 8.173072843053268 10.963165843148875
