19
Energy = -14.2814961 eV
Mg 5.9963582230400005 6.001279418185281 6.8627916624351375
Mg 3.2585459165195867 5.719850231548291 8.074034336164218
Mg 4.648155786356195 2.9871725039582766 7.362490394266332
Mg 7.613905984887322 3.76934312493685 8.067496228335658
Mg 9.288990048002752 6.338259245410794 7.361152274708416
Mg 7.128362818338737 8.51511208121168 8.069353024284132
Mg 4.0688374932372735 8.675619286638339 7.363234519258748
Mg 4.251415672316026 5.822864637334334 4.217762613704127
Mg 6.71988402588203 7.606166431310044 4.224027326753526
Mg 7.030831820207099 4.576165013144031 4.224424297497172
Mg 3.8114107052373525 9.032742111794647 4.470387407847529
Mg 1.9174489635345455 7.103649885751523 5.7986097288965075
Mg 2.2255539691832955 4.092892006993261 5.797201392195967
Mg 4.471908251739068 2.589412920151493 4.4666232159209445
Mg 7.089474973041035 1.9118416551052717 5.797854239204377
Mg 9.543279166577147 3.6860615462482866 5.7986068469704914
Mg 9.723806330347854 6.382758051215144 4.471038270945253
Mg 8.999161496561065 8.986839211613935 5.798189792764242
Mg 6.2357388947765635 10.225041177233171 5.797792967632175
