19
Energy = -14.61883701 eV
Mg 6.630233516989088 6.183428197508782 3.7645388043560093
Mg 9.281427940832595 7.4971959961157 3.790025260714493
Mg 3.9212606661696863 5.012985181697775 5.081282665892956
Mg 6.6284475307216955 3.410593295449878 4.96620153572392
Mg 6.104078413074416 6.316305315167019 6.802704861959634
Mg 4.3231046586397746 8.0507348317045 4.331404558115222
Mg 9.00183905283157 5.170287690779615 5.718222327171836
Mg 11.78511762050312 9.209416741648003 4.6071945950175
Mg 7.076353165542423 9.049911497518227 5.197812676926308
Mg 2.564043342320107 7.524571748510294 6.611041011637123
Mg 4.623304404441616 9.668995886651087 6.933933733133046
Mg 9.560420999186599 8.036984668363026 6.742136299848919
Mg 3.2110846950716274 5.055118641551189 8.115070020482714
Mg 4.4452834137753054 7.62328679423511 9.146398261543327
Mg 7.818445959702999 3.249727464363757 7.796495680727115
Mg 7.163970260398496 8.835773020228716 8.360673430915298
Mg 4.909662614468105 2.80595936004907 7.260051685191625
Mg 5.8789278968607706 4.779964730068674 9.541302135527134
Mg 8.577211965375268 6.022977055295314 8.73772857202139
