11
Energy = -6.72040711 eV
Mg 7.488907350413374 8.009659378751417 7.358993849788347
Mg 8.026352801743846 5.034700745352526 7.670157567764655
Mg 3.375928820530621 3.8263294065511797 6.310861668554728
Mg 4.148383893658188 6.479512201277185 4.819101938639616
Mg 6.292792315521757 4.34967861877262 5.2702206384884
Mg 6.5014130539690616 8.48234082861767 4.5314999953750785
Mg 8.6099968960876 6.353435393656259 4.9957392727946734
Mg 5.694948167591459 2.9176998773697997 8.048778433973235
Mg 4.553334482119406 8.80766038346751 6.811083718810755
Mg 5.154920583639924 6.030215945948818 7.668784160650338
Mg 6.449623016324961 6.005368601835212 2.8113803018977035
