13
Energy = -8.61206815
Mg 4.53473794666152 3.502561733010461 6.3702603690679656
Mg 6.077673066217636 5.096444965788646 4.292633041794581
Mg 5.263001672826542 6.256988752562118 7.337397975060426
Mg 5.292212400098055 8.019418572706037 4.775364774120621
Mg 1.9750203107151865 5.1106382334732015 7.153184642562277
Mg 7.419112728062045 8.315921924035774 6.889503579753622
Mg 7.843761872625596 6.195782806978775 8.970622208532138
Mg 8.201758367541146 7.289348744080457 4.062835942759402
Mg 7.443884413424062 4.073160672831698 6.831413967103312
Mg 9.082034385676206 4.430640334889273 4.247990069208048
Mg 2.7255544447500983 5.568067546092521 4.29372948380075
Mg 9.690088834813043 6.244865508333687 6.600613913035698
Mg 2.4615886499527937 7.906589298581569 6.184879126565092
