14
Energy = -8.89060738 eV
Mg 7.961871366579235 4.354760526139143 7.2675475869503465
Mg 9.954889192878875 6.4754994358014635 6.303602072552135
Mg 9.07509616291584 9.146090542223371 5.376942065122029
Mg 10.014802233278987 11.466992157836135 7.415119538879852
Mg 5.861969402305315 8.698832087082137 9.437576749682854
Mg 6.33097764379179 10.331311645142147 12.010569453433098
Mg 8.317450157757541 11.25552273965693 9.9335184544557
Mg 6.958973023468466 7.371705849537419 6.813653174234245
Mg 9.305269020437423 8.7031411021719 8.540991299082828
Mg 8.142079151485596 7.972148875007964 11.259320805595006
Mg 6.562533353923728 5.75905518199631 9.584032912686613
Mg 7.0658470466736345 10.450973960900873 7.282096792224041
Mg 11.783851974977043 9.00501675444223 6.5394576507816025
Mg 9.575102683436388 5.825525079510076 9.358357825938576
