19
Energy = -14.45276462 eV
Mg 10.091457484758363 6.77067397514261 11.561873434623847
Mg 8.732916516529828 5.00779473813256 9.621135556176458
Mg 10.89191098772096 6.806878339236845 8.440140131116346
Mg 11.659874646234908 8.97569933619882 10.694489916629053
Mg 5.87707719246157 5.6170577135159965 9.191777056797479
Mg 7.139940797044077 6.884525294939407 11.539206509288162
Mg 8.036727242167204 6.0212350765495835 6.832309059687986
Mg 8.543680564357611 9.577968983622165 11.275063518403922
Mg 11.971342234033795 9.59142483559717 7.821256530287206
Mg 5.679558439489708 8.799834860420432 9.672089451226194
Mg 5.02748991857217 7.17144611258739 6.967086193656543
Mg 9.885260559513346 8.64696481819175 5.811603163697156
Mg 10.382741711338285 11.464114353329524 9.741216151218158
Mg 8.421694661790617 8.536119227133263 8.447379945861444
Mg 6.9746421381929835 8.227193573108371 5.014196388869109
Mg 7.5395540683844535 11.413802046574057 8.64272778107469
Mg 5.384534115303302 10.103132081769235 6.93125287682963
Mg 10.171717209226284 11.698681878565083 6.807586040177263
Mg 7.757459386884175 11.038660878704917 5.448493963479599
