13
Energy = -8.39508158 eV
Mg 6.539056381699815 5.678021348895337 5.4710413193662255
Mg 9.237175858784708 7.0729380711720955 5.155315104912297
Mg 8.97490917131175 4.613452056954512 7.042053708887409
Mg 7.008737717088761 8.59165499188622 6.437535143805181
Mg 9.511019886542531 10.411336472731827 6.945435915105007
Mg 4.593896069660604 7.163740639658214 7.340716416239504
Mg 6.7721315768650525 11.024102992553152 8.659033966732968
Mg 9.519832524907367 7.488423741285032 8.04342560200807
Mg 9.345354747059478 12.396213476346702 9.113244776797197
Mg 6.236991577077615 4.846098604170665 8.38117215843119
Mg 6.72947263846398 7.765745286400042 9.386697487936456
Mg 9.145521972119063 9.712476019615714 10.302555636134699
Mg 8.678731841968379 5.5286282618793345 10.014604727192518
