12
Energy = -7.00673172 eV
Mg 5.4513824969156195 6.5084392065092835 10.021826547240002
Mg 7.0515387130753755 9.368986025108471 10.029322897001956
Mg 12.564497753332233 8.637657286738495 7.872890887913005
Mg 8.925392487153047 11.692207771339705 9.407455360828443
Mg 10.729798493309026 10.965948293326752 6.980149180260604
Mg 11.859095263788161 10.852720992801366 9.79978047686465
Mg 7.817572253660475 10.168592749312044 7.059808188907341
Mg 7.712246574349123 7.230005350736364 7.876608224993792
Mg 8.382507533844942 6.281502375808811 10.791344122763865
Mg 9.98993195280778 8.541383002826429 9.423632672868138
Mg 10.046149851359992 8.06541674966871 6.249975003094074
Mg 6.421895002481926 7.660201672946744 12.572301198004473
