15
Energy = -9.885956 eV
Mg 10.652252726987497 12.076111934174836 9.023726539477533
Mg 8.759341006015934 11.049566076378436 10.998978590403098
Mg 8.21278610495275 9.034657500876811 5.58427134818298
Mg 8.71027426279925 8.071822051349761 11.437343696124383
Mg 6.656219107477121 4.803732596538619 8.157507408133396
Mg 9.248558944303541 5.772558369832484 9.165459162201667
Mg 8.230131856496088 6.017073693443912 6.020260890119227
Mg 5.832757462390754 7.58824048102154 7.457199781983221
Mg 7.948232501286315 11.436840118891956 7.92120343217464
Mg 10.697615552388154 10.508927790434145 6.558352591110462
Mg 11.140648975410155 9.22183278856464 9.578457875412987
Mg 6.290778158249243 6.560922008521475 10.456042388798735
Mg 10.725098162517888 7.507833304464557 6.811112066557262
Mg 6.233867678045412 9.590460499808486 10.136126723319581
Mg 8.45769334989567 8.555676634913477 8.490213355216213
