16
Energy = -11.28444536 eV
Mg 7.456696929249256 4.518183299070817 9.21552416618197
Mg 10.957143400755387 10.433235442264392 10.357953667531405
Mg 8.119418007244033 11.436270341959451 10.795146907132619
Mg 6.738286866446784 5.697495256350419 6.487863227978078
Mg 8.781404758596938 8.393509599247341 9.463820890247954
Mg 6.2525157442459305 9.02347567022845 11.433764422455672
Mg 10.376053473408604 10.21284842070505 5.337169042838914
Mg 12.105198787966076 11.271933798339685 7.661591061552388
Mg 8.138899657544297 8.452652008049567 6.4609557321718825
Mg 9.030228442749618 9.178907202851555 12.552776481407008
Mg 6.368946510542217 10.119802067012555 8.493317470497209
Mg 9.079440900077335 11.332014352031761 7.933672431537994
Mg 5.84524400384364 7.165715750545602 9.03671072334547
Mg 11.23814897173532 8.421801053652882 7.656705418656948
Mg 7.756841642903457 6.424078548085267 11.570149593957328
Mg 9.562235343699804 5.885435163274367 7.587926801988579
