11
Energy = -6.82926122 eV
Mg 1.0277124589623388 6.4428482533849625 0.6690082367784953
Mg 4.034184971354306 3.288194066864061 0.825361995744699
Mg 1.0277124589623388 3.425015340419613 1.0449801585372394
Mg 2.5103005242128567 0.87900014056502 1.8499720129664219
Mg 5.559550960424375 0.9994668285792729 2.1110794656720824
Mg 2.6950286099578795 5.13341278247718 2.9399049837152353
Mg 5.371056467802113 3.6693847214735777 3.5827033195490015
Mg 1.1203657870158363 2.7854580339290833 4.014708354696653
Mg 1.287916529104254 6.784216693078649 4.368174459003607
Mg 3.8838690449131605 1.2706913975406815 4.661767437306491
Mg 3.2762006735513984 4.0665915725577 5.726238062292079
