13
Energy = -7.94157961 eV
Mg 8.506627613385337 8.100355733340232 6.679534362856949
Mg 7.362163002207639 7.3996864711228385 9.39242554772964
Mg 9.51558935471671 7.973296084192895 11.628334620994004
Mg 9.50088012071802 11.09499055392962 6.693135918377134
Mg 6.509742188642425 7.7966752438585685 12.485424915847489
Mg 10.650750299978338 9.166219581477508 4.509013969139801
Mg 10.26035325657874 6.76421045931815 8.866836468293446
Mg 9.879014390953884 9.955761175116741 9.426332557841233
Mg 7.431801019742488 10.329704186706527 11.267881177911638
Mg 10.897331198082295 6.414230908999338 5.800866887470728
Mg 4.865523619929776 8.964447582708429 10.196843785417533
Mg 6.896868592772676 10.196996490667757 8.126998772107289
Mg 11.818783593405298 9.00745880526773 7.222603644244837
