11
Energy = -6.09007386 eV
Mg 7.519888344003394 7.968074841006277 10.247735509666867
Mg 8.855023575684822 5.194781333527541 9.58285944151989
Mg 8.940420991191777 10.618267670130912 9.306331336443284
Mg 10.47840631735135 7.871292607158889 9.248662955700883
Mg 8.147379579433824 6.970581998872376 7.3280909522918
Mg 7.426529455658808 9.080121743341769 4.992238762095359
Mg 7.998451274425376 11.701978554215314 6.41213785309866
Mg 9.77018143872455 9.438041412828715 11.88683341518555
Mg 10.034055154209833 9.36864747565729 6.659669799884971
Mg 9.737990727286947 6.494613146980995 12.079136412852725
Mg 6.391672675465044 9.492688854788979 7.892853637575631
