14
Energy = -9.18998029 eV
Mg 9.665123575708442 9.755898119234208 4.813324175468755
Mg 7.684545596547269 7.598478636576616 5.218553565099085
Mg 6.853765361091333 10.631661017657075 5.630486738559006
Mg 10.290694675389371 7.440903504130925 7.04941181855052
Mg 9.136846717991482 10.150371650838846 7.77618458585637
Mg 5.795760591494569 8.378608680975852 7.368052562530771
Mg 7.699734956863291 6.086386723739151 8.026732530328884
Mg 6.467333807606385 11.031582618472854 8.63909330421214
Mg 11.02348559693646 8.794614314104495 9.682684087213971
Mg 10.30650367996241 5.9223947889450645 9.856182577471111
Mg 7.72539026385911 5.636144326569586 11.272231714927594
Mg 7.255068942800922 8.349880111598837 9.994904967550326
Mg 8.918115819571328 10.623959490535933 10.83633812555373
Mg 9.517783373877698 7.9392689763203785 12.175972206378189
