14
Energy = -8.85635073 eV
Mg 6.516224230228091 5.005741293330902 6.9212038540464045
Mg 7.682364965797927 12.640785859691164 8.847775724543357
Mg 9.377482844118347 10.122689969777383 9.29999419520801
Mg 12.321183209199319 9.843577064554653 9.042884925560582
Mg 7.694815936238289 10.279788470319467 6.6542927753217835
Mg 7.291800040110747 7.760386896621514 8.228757883532323
Mg 9.572591919771789 5.494100967396755 7.041465996512138
Mg 10.32000701599336 8.478749129802983 6.805360367980818
Mg 7.873898876917239 8.081918532427123 11.157250406086268
Mg 7.853984431757526 7.342273158434779 5.33659202080007
Mg 7.797949057707693 11.258576212299468 11.67940493964362
Mg 10.420061526988507 7.1769413297546105 9.478556796632597
Mg 6.073883972651378 10.233857591553567 9.493147433540392
Mg 8.014862459337312 5.24562851272089 9.645203439286831
