14
Energy = -8.59768028 eV
Mg 14.366612516183768 10.484168460618058 7.44383384344586
Mg 9.867674712909363 7.6802521432612165 6.777080350103165
Mg 6.4661127290417975 11.38495199746927 6.821146321852351
Mg 9.001730446453475 7.543363635148315 12.95536468060996
Mg 11.349845906612789 9.966491585122375 8.15047069718943
Mg 8.729143580341665 11.33633016341653 8.96489661936067
Mg 7.926601692632985 10.089852612829159 11.649472125105284
Mg 6.663440474568786 9.197145122992511 8.847089721900076
Mg 6.721510171933495 7.171395049314362 11.120267471622801
Mg 7.024023565884852 8.430526303281031 5.930958851694984
Mg 9.528592188488583 8.244651632402443 9.77127690845612
Mg 9.166588474912063 10.54779113082476 6.050571250732755
Mg 7.6390135382865525 6.299917246192996 8.186610914117193
Mg 8.89687386862148 5.187385053330379 10.904560737140917
