10
Energy = -4.70187665 eV
Mg 9.012194467533652 6.566385357070875 5.686354160903336
Mg 12.217813755640602 8.142318857843835 9.76221613727017
Mg 6.9752512535571185 6.027129766847587 7.941772612489081
Mg 9.427440843235377 7.854815176164973 8.349327562671762
Mg 6.089087007509878 7.311836622628969 5.386061955752384
Mg 5.5277130917599795 8.84638187208678 7.972628758977643
Mg 8.047321494181006 9.458626832378412 6.110948653728647
Mg 9.633867031035493 9.314718918073277 11.012748153959219
Mg 7.0056631723714595 7.876636670851326 10.371683645918429
Mg 7.788776354120321 10.548222434348066 8.926015925165583
