14
Energy = -9.41381273 eV
Mg 6.697053133258078 4.139150511580789 3.0663113942687596
Mg 6.800175156692496 6.963037604202677 4.338637139948758
Mg 4.086134352315312 5.7066254259443525 3.039159255630655
Mg 8.567668869418087 4.523119375865155 5.3994795785183545
Mg 9.159884158877155 7.43822132107826 6.159403701590343
Mg 3.7919430930615032 7.47875489878824 5.446768515130477
Mg 5.412184184455531 4.694979945964727 5.825549613462843
Mg 3.480762228573352 9.232623741899342 7.865761665210841
Mg 5.091813753503447 6.428385340124818 8.227937176195475
Mg 7.2678259505425675 4.339506523628924 8.16994608620825
Mg 6.486778526851339 8.695023633521679 6.742653976204931
Mg 10.203140456693022 5.182560539880894 7.942044406896835
Mg 8.101568063377446 7.162405702113243 9.025672546268273
Mg 5.853068072381098 9.01560543540733 9.750674944465215
