11
Energy = -6.43055046 eV
Mg 10.919712170810081 7.119388575381577 8.766099900432362
Mg 8.729086841775185 5.1686658186958985 9.640373679183107
Mg 8.052133686832024 12.59828971904492 7.355892690664729
Mg 10.942874548582058 12.492200187032667 8.726779435213354
Mg 10.568501037420617 6.7591033600257 11.71719582499183
Mg 8.520592238771574 11.485586757206244 10.169572727501498
Mg 6.564681708292619 9.88627190070285 8.1197350577643
Mg 8.024790910755636 7.190580723860964 7.281506319593845
Mg 8.277563039817858 8.314078636214106 10.126315193567354
Mg 9.599303512922807 9.80046667465469 7.66932327409558
Mg 11.097958085427765 9.738371678267201 10.47715106081914
