17
Energy = -11.35457615 eV
Mg 10.18506257402789 7.335567768604572 2.015723918211703
Mg 9.202825938535918 6.723223250073052 7.3826323230717055
Mg 4.348796261411022 9.160456410561443 9.824049350030057
Mg 7.731099729241471 6.294236463110118 10.02095126463275
Mg 10.832883114006448 6.597424253840571 9.934299890082144
Mg 4.70890839165731 6.240553186578772 10.001704837524047
Mg 11.651700911524708 9.482388157612334 9.72839145184948
Mg 6.688435576671695 10.784661786600495 11.004936504223018
Mg 6.235033046422205 7.786996651279739 7.871023548566779
Mg 11.177578994504083 10.303322184340278 6.860321257112073
Mg 8.96445933470056 8.807700461015601 11.219341672896046
Mg 12.14775580502237 7.458178958729675 7.447331214572463
Mg 6.164667523719529 7.984091576630426 11.993430516408456
Mg 8.320542615254125 9.424524243122267 6.381382887047294
Mg 6.050731098839193 10.793499495499049 8.062222760239644
Mg 10.614618910495746 7.992734394631158 4.9887864275353895
Mg 9.074633754410472 10.840815173906016 8.962149139227803
