18
Energy = -13.17148266 eV
Mg 11.403098233548247 11.68181531029393 7.191844698762322
Mg 11.555787400068809 11.403952165621082 10.189206615367493
Mg 11.384159118910198 8.849300181971788 8.463119615128702
Mg 9.123170266166058 12.767922685777847 8.836699185512872
Mg 9.946534595156615 8.94430851778368 11.132815389921301
Mg 9.606067427653638 6.5438150416026915 9.312571338449173
Mg 11.071825068515698 9.329947465115687 5.411686253961036
Mg 10.868289707320606 6.525636741629035 6.496479121594204
Mg 8.983753561519192 11.840257023683966 11.699994186767084
Mg 8.43636589076124 7.891487507948633 5.1440121074722684
Mg 7.24917752700572 9.579839261364487 12.533886605199381
Mg 8.58025814566609 10.421084410174549 6.906277541211141
Mg 8.08112595064959 5.431885343258021 6.847723496799782
Mg 7.9575729552946095 6.715913113112746 11.915593263762299
Mg 7.145497238373548 10.516238640761765 9.576238548470599
Mg 5.52529126103895 8.082325860012022 10.565463425286286
Mg 6.676834181348827 5.525032084243171 9.4625105292552
Mg 6.803934258179193 8.113669189113567 7.754717394709381
