17
Energy = -11.35952969 eV
Mg 9.933947355559809 6.1818086827255305 6.659003201085673
Mg 8.745731996409372 9.162724679593268 6.479828033214883
Mg 7.662890800318003 7.477908645409166 3.975674085002152
Mg 10.927419446777964 5.261000700879963 9.349129328763087
Mg 5.2011117169194145 8.527213897573718 2.619341647543497
Mg 8.974980013377827 7.7001568976666706 9.2686100586658
Mg 7.586675567496164 4.48051448480422 5.224756192849805
Mg 5.786802776186813 9.543574629552207 5.511280416220519
Mg 4.911327851331614 6.163731341277982 4.621024338353031
Mg 6.933445861242332 6.945111201670048 6.935312719795403
Mg 6.30481326787331 9.394876321013896 8.677778089705523
Mg 8.104005197758864 4.349931839165042 8.387279961776834
Mg 2.9798438253466006 8.613587650148206 4.554381294843118
Mg 8.696528993348965 5.3447990481314 11.292204994497773
Mg 3.9510892657100225 7.6971298217692175 7.238675322217458
Mg 6.22892159659438 6.397755431884187 9.915853770718886
Mg 5.141331033266371 4.714428984840635 7.4163925367850725
