14
Energy = -9.05009702 eV
Mg 14.170922070124728 8.759594752647155 6.7663246744411785
Mg 8.229796218885513 9.111549060863881 11.138705694258432
Mg 12.429359380560006 7.226855037485421 8.645760398755963
Mg 9.930313965538001 6.7073249979617895 10.451015580925274
Mg 10.902503733986224 9.625435580069583 9.84016684580642
Mg 9.139206724912864 11.982315404222472 10.967422045853686
Mg 7.256997117919151 7.235873208579008 8.964073236338628
Mg 6.151022413720346 11.500973175562386 10.797067028869657
Mg 11.041707052694433 9.216953322099714 6.701505157688696
Mg 5.181329213611479 8.640496523152336 10.997724358581863
Mg 9.83364636088977 6.517655084747166 7.343793107002263
Mg 7.883024066113099 8.648465284505644 6.3503514945857376
Mg 8.624848767622167 10.754961209571148 8.27630257142438
Mg 5.6070159468740695 9.767034718172852 8.285182584059294
