16
Energy = -11.34018238 eV
Mg 5.49055509854076 3.422770994457194 7.383021579765953
Mg 3.9987080882721036 2.513796103257652 4.890535398569518
Mg 3.407296078060119 5.272267556888549 6.033198075131519
Mg 3.440354980296251 7.983185411355991 7.30666880568594
Mg 5.681944616043097 7.365627573004049 5.214130957220986
Mg 4.02674204656604 5.564701607755075 9.029779085082696
Mg 6.123843724797855 4.523845362430216 4.374440724141722
Mg 6.931584438072363 4.870643605818358 9.568842376655883
Mg 9.389824214902337 7.143559147815451 8.687742087280727
Mg 10.67474930612144 6.722045039231544 5.9659611391687
Mg 8.77997798779153 8.990879200922667 6.40385838694345
Mg 6.013957128873487 10.13727023420785 6.518317178274153
Mg 7.379069602017409 9.65150952820693 3.849129139202437
Mg 6.3630329159885894 7.642078978011279 8.303835538606032
Mg 8.484263091381115 6.849428812166947 3.90283476834068
Mg 7.8791460631330485 5.411440225327655 6.632754140786418
