14
Energy = -8.79963313 eV
Mg 4.850805474806626 8.890834428480257 6.574995533654957
Mg 9.883533930872394 8.109648127973164 10.030395784942383
Mg 8.496658386194254 6.013320023946079 8.413918854794128
Mg 9.12800339185617 11.067153264297394 8.479276580983578
Mg 12.759391622284738 8.769767901687981 11.225700340607442
Mg 5.488516602040979 6.251483095589706 7.975649738452593
Mg 7.312826426083036 7.286869185357837 5.780910511888581
Mg 7.513488289391233 10.309845468654059 6.030080822166804
Mg 7.0843688207590105 8.778104775879964 8.842734363000847
Mg 9.91917682593816 8.369867313821644 6.9520433066855185
Mg 10.979997396231902 11.216702158930676 10.900239592589333
Mg 7.992703869796846 10.259579461885455 11.27844098908429
Mg 12.107706129806568 9.85180650859455 8.430460430844255
Mg 10.261873786313584 9.098322224307413 12.962638596846155
