17
Energy = -12.13733015 eV
Mg 9.297244602874004 8.79896741898484 10.051216455352549
Mg 11.854469078028039 7.333819922183934 10.98371080723834
Mg 4.092320547047372 11.293795977173454 7.853646892552471
Mg 11.930352106163774 9.26873840693011 8.655565998397682
Mg 8.111563437335343 9.71181117885881 5.046048522414486
Mg 6.819053180435898 11.973691836872995 6.568979683825366
Mg 4.415137045246696 8.398855070016094 8.423360293195422
Mg 6.69405956235933 7.265456426570638 10.103482002876843
Mg 10.115796252941575 7.8271591557778235 6.605962923780365
Mg 9.279314483531683 10.715272930929975 7.728897418959276
Mg 5.15310112435924 9.62058741051657 5.685754609886997
Mg 11.206644280290094 4.5156703248637315 10.492764138107624
Mg 6.686800402339502 10.259616252474551 9.247337400810013
Mg 7.159895089607847 7.789692763616515 7.165769697927377
Mg 9.073847237654801 6.198438787442403 11.687558939478231
Mg 9.062806030979337 5.85330975715534 8.659279760260501
Mg 12.173011859601159 6.3005327004271265 8.166080775731501
