16
Energy = -10.50230813 eV
Mg 9.006792588916138 10.454983195916162 12.093193430144572
Mg 9.786112486855608 7.569355900254323 11.660817556643915
Mg 9.927548964024183 9.407580277539187 9.293004849453672
Mg 10.272685561358973 6.4307868519657605 8.735712048080783
Mg 7.030780900789978 8.20549544291198 12.69955410753778
Mg 8.14428583240005 11.80912845607122 9.534262470565803
Mg 11.154652506924714 8.541119567846897 6.614301231749523
Mg 10.101800097619464 5.733920836727726 5.714598858962566
Mg 6.042713835177405 10.75779824106355 11.41863643041863
Mg 7.422363235592141 6.948757875138626 9.889730962534717
Mg 11.61862517073934 7.25152733361814 3.6723484324532887
Mg 8.706976320504488 10.471758325487349 6.709709278259391
Mg 7.981091058790808 7.4844277998421935 6.961803273751419
Mg 4.69819565097181 8.13567665554807 10.79407744647707
Mg 6.433006268714476 9.500555492715247 8.608876650416502
Mg 9.019742087315729 8.51305480595109 4.321449415044272
