13
Energy = -7.47630553 eV
Mg 5.554096901613161 10.086121664492193 8.073105613808583
Mg 6.8872684914590225 9.413651776619922 10.809184745407187
Mg 8.231794007495033 11.393083766872952 8.942634651680574
Mg 5.739491255798144 7.166837983730882 9.117754663080222
Mg 6.382189850505622 7.7539903153664875 6.209434591284273
Mg 7.952256274465044 10.356022071511205 6.1031630232915495
Mg 8.368931669120336 8.420679757447505 8.36725226560159
Mg 10.996114024036345 9.677758943974707 7.622062699419797
Mg 10.355245790969606 9.091666982965613 10.531555430207824
Mg 9.847815832871657 7.431314610892078 5.9339661511837125
Mg 8.78371979759622 6.488569214224892 10.637581457078744
Mg 8.50456456791766 5.453875852577494 7.798553925570177
Mg 11.180891254185154 6.759115488247537 8.667044159703433
