15
Energy = -10.25607809 eV
Mg 8.320291534327032 7.456796083619669 5.1984386196061845
Mg 10.247155532094581 9.759063350877764 5.93385296369098
Mg 10.819016428668712 6.958455360590713 6.922545231163815
Mg 5.798665116036684 6.8515437481474395 6.670866882143727
Mg 7.20595128304137 9.792938277245185 6.993596677797011
Mg 8.212146591689459 5.066348040920025 7.094543533199037
Mg 9.453421021746799 11.816230010200252 7.938218843470974
Mg 8.575403400384728 7.647996860834412 8.780440056288215
Mg 5.48263304321995 8.39334945369532 9.175420581193565
Mg 11.275385869262658 9.393000800135301 8.79802983817615
Mg 6.211790974849122 5.445393020563706 9.413413387810902
Mg 7.685946946815033 10.364834084628464 10.031341055294035
Mg 10.4331091406075 11.53255302768779 10.73290507728659
Mg 9.855588212529803 8.74624025464868 11.482627607908324
Mg 7.110761215583653 7.46252393706236 11.521025955827696
