14
Energy = -9.30288871 eV
Mg 6.482699643533933 3.6151286928901203 4.769948757993111
Mg 9.270395214375153 4.301259973369954 3.8526499909354035
Mg 4.38559535952328 5.841422237828811 3.954465427459396
Mg 7.301166147545192 6.631108005884838 4.197208550685545
Mg 5.168363536827452 8.827334651262829 5.17335858308562
Mg 3.875562259248352 3.657359815248562 6.0885976875396794
Mg 6.46666449399988 10.90443321344779 6.996411199832143
Mg 8.50936194993435 5.1355346767312575 6.7019744606955935
Mg 5.391778992467301 6.146093194850944 6.837875039878347
Mg 7.808439634832008 8.158792777640238 6.866405261913253
Mg 6.338293534123302 3.4346044705574283 7.9345828684879365
Mg 5.075918411969644 8.807243691518181 8.530886568394468
Mg 7.208813102673808 6.28685559266215 9.40475746570989
Mg 7.740863376259929 9.276744663419468 9.714793794703054
