17
Energy = -12.34589832 eV
Mg 7.894307861956937 7.2200730272826 3.948341904640407
Mg 6.0804895089583 5.736183937274553 6.086072266609342
Mg 6.085410956484541 8.950503212869895 6.081117784314198
Mg 6.083141968317492 5.102944465094907 9.24897242348866
Mg 8.427480993172457 4.0883180755222375 4.566941347422213
Mg 4.271348011614705 7.225897592921768 8.222299743793723
Mg 3.1306920008132324 9.105597997130175 6.07788544260276
Mg 3.741945244281225 4.091974929854921 7.609207349380794
Mg 4.275671172922136 7.21878008357595 3.941909417688663
Mg 3.741593955508329 4.087124346585651 4.564233282926443
Mg 8.42457880982015 4.0932348595235615 7.610251931106903
Mg 2.3029696415447325 6.265220253150475 6.082531142882935
Mg 7.895034245944612 7.227004330297798 8.21891952224094
Mg 6.08558545119572 5.089882705834443 2.924939568600575
Mg 9.042256423113527 9.10416570939623 6.080169773848452
Mg 9.869655472990289 6.266746196010475 6.085496459341634
Mg 6.084917714074084 2.5634277103868297 6.087790071824255
