13
Energy = -8.36291886 eV
Mg 6.960393040442116 7.049809210820314 5.246355237632335
Mg 9.58639487972445 8.119266812761596 6.6691583323847565
Mg 5.821472104431174 4.625983909396901 6.488989284392876
Mg 8.84361624536104 4.960693281852361 6.454724771967677
Mg 9.59494111833243 11.149121615282063 7.087990633952505
Mg 4.62670400628454 7.3218716752143 7.214063513414621
Mg 6.9682820631006015 9.585219525914303 7.146023904306818
Mg 7.363994895905156 6.712285184408413 8.510022008645105
Mg 10.830015378452545 9.466196271346494 9.282832753249041
Mg 10.355265898227572 6.470500266725014 9.007185193186896
Mg 8.170057894310352 10.952395570281869 9.758573129103658
Mg 5.8409596453348005 8.992530484982016 9.818993345841784
Mg 8.589659537966925 8.145882898888186 10.866844599796254
