12
Energy = -7.08231487 eV
Mg 8.18485328485585 9.973119087504976 11.16812704535722
Mg 12.222817264854232 9.78606175341075 9.442007251020584
Mg 9.329397831271477 12.067960039389304 13.465348166527006
Mg 8.505599656778893 9.746415087913366 6.152671321858026
Mg 10.188189168348211 12.066667109911132 10.284098263028271
Mg 11.107283520819207 9.859304086323265 12.33630331021256
Mg 13.17632440035711 7.628041936877433 11.6711989527387
Mg 7.762827343969849 8.273070901752298 8.716587013441863
Mg 10.209377543350882 7.672790295705221 10.338691926038182
Mg 10.746286886790271 11.395275946310703 7.3966481184547295
Mg 7.7761122645707275 11.44738858556482 8.519199581675597
Mg 10.695795606120903 8.171546940237223 7.387992622543388
