14
Energy = -8.91734548 eV
Mg 8.152769409985456 7.91716853951982 5.168727045356745
Mg 6.404344668300971 10.286509369508046 5.032927151940197
Mg 9.089086032551196 10.79494919654772 6.136026704438433
Mg 10.330472406103484 8.266072488781244 7.2378178532352315
Mg 5.503906968513175 8.194343624530736 6.905969594902401
Mg 7.8083625910001055 6.451681716461442 7.788721809422794
Mg 6.439561192760094 11.072309469502423 7.874010491683646
Mg 9.116952891723532 10.475910496245756 9.139515186225392
Mg 10.48581345560783 5.854038425680661 9.05317245364741
Mg 6.5964608745809805 8.65691874528752 9.6885201120471
Mg 11.422285094780603 8.732370452252063 10.017889455437963
Mg 7.836674723634531 6.1312865517783335 10.792067515488192
Mg 8.773117752483714 9.00976336513872 11.756261779955782
Mg 10.526297308235733 6.64278292902705 11.894478216480124
