11
Energy = -5.82705665 eV
Mg 7.980518562960938 10.999820136355453 9.410399720407083
Mg 9.971816502192347 8.644087826861803 9.280108215396785
Mg 10.836954843662586 11.363587581942065 8.196830091644536
Mg 10.314913374073587 9.216772081970603 6.145616304662386
Mg 8.471387280511422 11.592677353261923 6.382628683860967
Mg 9.396491022803422 6.5602887124516265 7.004400022882475
Mg 9.028060957187408 5.890635783971436 10.010063527708374
Mg 6.996683555976071 8.373343378760463 10.352643495389119
Mg 7.318708039417176 8.902464280080235 7.243242380160737
Mg 6.515571716549251 6.133286766502601 8.066028826091317
Mg 6.219968301434343 5.37411025461059 10.959112888564894
