10
Energy = -6.52274266 eV
Mg 9.005222660129919 8.10841914688218 5.470868144149445
Mg 10.147961481365193 7.444802526892135 8.200450995116773
Mg 8.06232892087466 9.630574527778071 8.021861709355472
Mg 6.74976568566792 6.421378004622493 4.360960240641411
Mg 5.175030641720985 8.978525549499443 8.641899693093135
Mg 7.375204353903238 7.009985158342114 9.389419540004472
Mg 6.039562263920823 9.029508549950794 5.735938274364393
Mg 6.45723267064107 4.239362548984329 8.74615083652096
Mg 5.30089904911719 6.3948596649784415 7.038097236045743
Mg 8.334068556795087 5.456951222440455 6.773530871659458
