10
Energy = -4.79398338 eV
Mg 7.374640726849986 5.974175030427076 10.175509418223793
Mg 8.595678680386019 8.026613432903504 8.56108231693774
Mg 5.449605711982901 7.420940466633267 8.0610082285512
Mg 8.006668747133434 9.44558104679562 4.019859731091607
Mg 6.9279559065754235 9.781176471900901 6.789430785858319
Mg 9.458573618523832 7.4758786322402555 5.742733364009532
Mg 6.386352480858456 7.213280692024712 5.004630471652473
Mg 7.829624066401116 5.2518799806714425 7.076089985259181
Mg 5.301802937389156 4.32785328476911 8.731319076071179
Mg 4.776486648484201 5.02257898427002 5.990621033627925
