15
Energy = -9.46407414 eV
Mg 11.408798097069967 4.400882804690057 4.6686582701717185
Mg 8.017853874779572 5.913674328539595 8.675540615306181
Mg 9.2238329859622 10.32476895397118 11.10533419669449
Mg 10.135377225439584 6.5926958471182395 6.494302771587553
Mg 7.2174939488854974 8.107934407355335 10.623182936973173
Mg 9.975633712808179 8.515166323441287 8.747390573695645
Mg 11.690094676402097 12.057323802311835 10.61653762312878
Mg 7.421462057680526 7.719881739408761 6.198659398041242
Mg 12.133956133963071 9.148983513873 10.997062203307854
Mg 9.938221517087724 6.793521086964102 11.053569237420906
Mg 12.403072537318586 10.467100510821284 8.126557569747337
Mg 9.808755730195761 9.791490102125081 6.159539214641672
Mg 5.409397549338918 7.612162755744298 8.357864894818848
Mg 9.763192002654705 11.909148899888747 8.352894296525387
Mg 7.29460361138865 10.116609562192691 8.266055793613912
