13
Energy = -7.97023752 eV
Mg 8.5259449003756 8.640161970842591 5.1503945273514145
Mg 7.792399195948366 5.6642973446720974 5.293364310594708
Mg 5.656977301270384 7.779368961784629 5.956419581935172
Mg 10.614549138693851 6.677191864264582 5.918000282081767
Mg 6.948848646777341 10.43626796131299 6.900317043906571
Mg 9.59017866047222 4.022428421013712 6.945638560467575
Mg 9.616651300527684 9.210461644090037 8.052326699590065
Mg 4.790352186569951 9.080179816914098 8.604584512362988
Mg 10.07966080624426 6.281252517270886 8.922673784751249
Mg 7.171977869281685 6.860963610212133 8.277990196796596
Mg 7.083703177945633 10.678592824181564 9.852187321707001
Mg 8.509296904833224 8.08106689566047 10.700178336507127
Mg 5.5817677963887045 8.55007405310887 11.388232727276918
