16
Energy = -10.75257138 eV
Mg 9.942299134720813 14.026292766297297 10.802519936651349
Mg 9.0858827233613 12.379638929797048 8.25731488243527
Mg 9.333036958780955 7.977089396404336 7.6307881469198735
Mg 5.306182489666959 5.411559493982981 7.267944489188416
Mg 6.6080537686257435 7.8842570639491045 6.190529275490266
Mg 9.466323325272342 5.8254206127089985 9.861464123313874
Mg 7.877660218634958 11.821912279080264 11.055240801185017
Mg 10.86776724090487 11.087610060149608 10.45410654150393
Mg 11.55476418052566 8.26372109001294 9.697013911075496
Mg 6.978838210258474 4.2179937291231395 9.48121402408871
Mg 8.260330770960218 5.220156767376199 6.970935043329795
Mg 11.243126121198666 10.348261205190033 7.494641780711166
Mg 7.006984422894745 10.123908848937603 8.603669053355157
Mg 6.601623342986618 7.224141189181965 9.338697661749576
Mg 8.587617156090685 10.449532155943812 5.988939199841344
Mg 8.718957658744658 8.888768297287925 10.715811407079443
