12
Energy = -7.64661553 eV
Mg 7.8398521334634035 8.586563533285382 2.9585263270876343
Mg 7.234567594215992 5.8107401374008365 4.237953608879592
Mg 5.494396691807207 8.142930475182407 4.941125289576957
Mg 4.34658731718344 5.317670218799105 5.105382539411565
Mg 8.705710823868827 8.340141322181415 5.811851391786238
Mg 9.417264383036715 5.413243360233793 6.366301282159672
Mg 6.635419110033767 4.432215339683813 6.9287019116305695
Mg 6.440972433288652 9.418895032196446 7.576447593258528
Mg 3.5630414454001933 3.8765751230266376 7.969308744838905
Mg 7.778919870979894 6.859394890546998 8.451595963851025
Mg 4.797474028403966 6.90929733141446 7.669148786667833
Mg 5.745794168318717 4.892333236049766 9.983656560852253
