11
Energy = -6.23316787 eV
Mg 8.982232809750286 10.598715945456133 9.833251797319795
Mg 7.752768104703822 7.063356487193064 6.354419385618908
Mg 9.59918677336082 9.628555726550736 6.938166045392002
Mg 6.568397993127905 9.369105586903215 8.198347024486191
Mg 11.644357086352853 8.949602462609752 9.153292358769379
Mg 10.985354400508168 6.923719046602703 6.854611749276415
Mg 8.919472178002195 7.6006837208775995 9.30068934376779
Mg 9.813166092395962 7.954849641794756 4.2346600911350425
Mg 6.683061627708657 8.921143688935995 11.335347805268754
Mg 3.9564219597112853 8.439885870217593 10.019164388641906
Mg 6.0116454605727165 6.466376924819797 8.897293138832646
