25
Energy = -20.86665355 eV
Mg 9.6415878852522 3.7504813464110023 3.950430760139684
Mg 7.010303266018886 4.551667831045611 2.8284933965842844
Mg 8.888371821578755 6.835321261859103 4.0055641062436305
Mg 5.862236125472308 7.0293127295099564 3.7557198939978274
Mg 3.021343325991492 6.688537342257819 5.080022223245247
Mg 4.3877230741398865 9.640081937813745 4.835593864257942
Mg 7.543107892266104 9.336815097508136 4.984996612628131
Mg 4.859301310343146 4.36081442281165 5.0763972074915715
Mg 10.81513887450912 5.359078227018893 6.052664875104923
Mg 1.7390398563237064 9.268697127443858 6.086385128847797
Mg 7.265441775665887 2.1766841999126285 4.649286896062465
Mg 9.219309162361256 7.858697255719242 7.051530736717648
Mg 5.592200659476419 7.528363966419218 6.749838162311394
Mg 7.516157703377513 5.253983152565783 6.323174428031515
Mg 5.864604914262835 11.671476437780044 6.4264158625970875
Mg 6.0748649723967345 2.5157970468201154 7.28774134352155
Mg 3.9032673674321536 10.138736527156762 8.067033746653282
Mg 9.18044667097514 2.781840322585866 7.067728352011319
Mg 2.516256031505019 7.289792278328508 8.100621148416717
Mg 7.069145011263289 9.689649620968694 8.342429506385507
Mg 9.968776254127619 5.214431614976904 8.840632082709607
Mg 4.857924488562695 5.06644979133385 8.319585574860989
Mg 7.468169522067679 6.739324569299848 9.215253571792159
Mg 4.802679904533242 7.929618438962877 9.84066450476462
Mg 7.433323720561798 3.825069043955882 9.562517605088455
