23
Energy = -18.72835208 eV
Mg 8.140493066683607 6.0898166125159685 2.52128937707391
Mg 5.424258958155958 5.617986067054464 3.70999484666267
Mg 6.861478912007007 8.405036784803947 4.156945022036599
Mg 9.540909939562772 6.6774272766499605 5.153669396611369
Mg 4.0000810473649535 7.890254689582427 5.291592155672543
Mg 8.074587232182088 4.092202962893814 4.742390309549272
Mg 5.390179059893585 3.605351231836447 6.00188048320419
Mg 7.579655470082216 11.410818414339328 4.620636097930382
Mg 2.8357989621307453 5.175207669312441 5.381031795153783
Mg 6.62215890694698 6.474108629362978 6.494961091020203
Mg 4.754151890282306 10.815821149858131 5.324725510881136
Mg 9.761791564462822 9.624016363418011 5.417590598084863
Mg 7.963771690705252 2.151290299801457 7.28883299722302
Mg 4.063698271741738 9.38419230189004 7.968925573560818
Mg 6.974574369619458 9.567926182636294 7.037523583247083
Mg 9.195774227076926 4.851524795402765 7.538099629715161
Mg 9.208205220125752 7.819637366282853 8.01742495629103
Mg 3.037088738259791 3.508401963984456 7.97420995301325
Mg 3.798925644230122 6.438969139385386 8.01083860945079
Mg 6.167740006715306 4.590539953327418 8.847382443828543
Mg 5.2871732987697415 1.6114694339851932 8.363826707328974
Mg 6.284627021002771 7.724823214654619 9.367614311123038
Mg 8.552673158316532 5.992974153339861 10.28841120765596
