29
Energy = -24.3576825 eV
Mg 9.991691302649327 13.882341579111763 10.4017829120986
Mg 9.44916939198009 12.861843759686888 7.532533113526844
Mg 11.687424183411466 11.655981523671107 9.39220832990454
Mg 8.283307524310203 12.832906076929266 12.584928122216285
Mg 10.844010847639055 11.746710618570207 12.248473170728797
Mg 7.565247663493093 12.40287836783451 9.79346526558577
Mg 11.674356347747267 11.289517092676704 6.4826445908328445
Mg 6.795307648787011 11.735885042214402 7.0458393350894335
Mg 9.30648698331224 9.584698130499147 8.267809409542238
Mg 11.274374437357455 9.150142681728761 10.958764610375209
Mg 8.299388616848788 9.879264265328933 11.43947159634707
Mg 8.91528440561384 10.661291185637642 5.335864040652125
Mg 12.480108297778692 8.952255482059194 8.09403608820231
Mg 11.281835580322902 8.788064808088482 5.313622595425174
Mg 6.390074137064923 9.029346840740347 6.266240452415353
Mg 11.56207842774837 6.598185931321795 9.754687096028938
Mg 8.661562426351221 7.5713566192448125 5.3017196028906985
Mg 10.937966620892208 6.4371236198740025 6.992019209981481
Mg 7.73427809250234 7.01471611043433 8.38652297044622
Mg 6.2095084361345165 9.86337686898805 9.219280029007844
Mg 4.552750675614146 7.821499850996255 8.190083633906406
Mg 9.101159064338992 6.9854581393565 11.240948171151883
Mg 5.900741440482569 5.92392353808935 6.3012044967227325
Mg 9.584238701319766 4.580456740410111 9.046775363499265
Mg 8.68186218623273 4.8104305399150356 6.172712033527192
Mg 6.041431492449127 7.465830747044651 10.959616367828286
Mg 7.2110403424040594 4.73197081251946 10.843192136422893
Mg 4.774917366060674 5.244917498020066 9.319226624242242
Mg 6.908829211000954 3.6718676610761665 8.167032090736416
