23
Energy = -18.48445339 eV
Mg 6.0812969262990855 5.431514833136699 1.4961157210691856
Mg 7.5765396844046915 9.536281453265476 3.996535061643145
Mg 5.225290331635625 7.673824576911223 3.3187143061499578
Mg 7.196859691908123 4.118185453823044 4.009096180435924
Mg 8.284621863000785 6.70379473201236 3.196446507699682
Mg 4.1882859901496 4.912334504530512 3.791254536569698
Mg 9.363514438872043 5.2353715110024694 5.918943297784395
Mg 5.128962894711261 2.2093790020448556 5.057856822915518
Mg 9.884695890557515 8.128417328425412 5.403422134686609
Mg 5.222266608809257 9.52386569406991 5.8590738267372995
Mg 3.4091173170552684 7.095451792405756 5.856237888405374
Mg 8.037738269021816 9.874527031894875 6.94116715703567
Mg 4.43895313803223 4.441721636230103 6.90393213559309
Mg 6.606519095980765 6.643492926399434 6.055144320957374
Mg 7.306162409764034 3.2543968463797244 6.9920383364077265
Mg 3.202911578656672 9.211830563182533 8.04197482325614
Mg 9.318805792735077 4.4543113525495786 8.947407877007363
Mg 8.970529965218594 7.324584948877756 8.240749889183789
Mg 3.6588351871768876 6.4715121380830025 8.988806268893637
Mg 6.114559500233989 8.345949542602352 8.684594272708747
Mg 6.4021360123420905 5.218375311185147 9.118982171445596
Mg 8.378750990911167 6.502422276666356 11.182594336682506
Mg 5.50264642252292 7.18845454432092 11.498912126731724
