22
Energy = -17.36050987 eV
Mg 8.199801211380448 6.6099405408791885 3.494335759672349
Mg 10.736885707959122 11.628835408765436 8.386534573273792
Mg 6.45969727992077 9.432908957347491 10.02421987829473
Mg 3.9044291800535076 7.853248700845251 9.97381710756659
Mg 7.06130364951704 6.2022431903629345 6.228668977126885
Mg 9.194230445134888 10.325464080059458 10.540386261520238
Mg 9.096942783684797 5.103111978192588 8.44753948687564
Mg 6.041534312104088 6.7325883464646274 12.14561470313005
Mg 8.899088592653621 7.29453293188897 10.800737176182022
Mg 7.546847922158157 9.18593559239589 13.023181339307161
Mg 9.856737694774674 5.057180209077348 5.579480785795718
Mg 8.932771052286789 8.3545215272794 7.8513353624885545
Mg 12.196433713522362 9.534007148185308 6.820258259264848
Mg 10.424561387376137 7.990343035260272 4.97009308808975
Mg 11.589428849479768 6.597919858284249 7.47985129738481
Mg 11.582965622578593 8.828865411732263 9.635680832318696
Mg 5.4619950870683995 8.614613767513543 7.358871891606208
Mg 7.673396221695191 11.179943155423153 7.8049073774450735
Mg 9.776624049835494 10.939377416069695 5.682423393750784
Mg 7.458702368830078 9.040197483595538 5.132842507317204
Mg 4.498852170212647 9.203799257250036 12.587392043593955
Mg 6.467802453421585 6.3703633771510715 9.152109480814557
