27
Energy = -23.24428989 eV
Mg 5.652348800453036 2.8878851845302385 4.9826667390059995
Mg 4.997513936540234 2.9294225375816043 7.896068216820831
Mg 2.8130818639183373 3.8055774739155206 6.189225334371939
Mg 3.5029253102993065 5.630755290839321 8.486493739549264
Mg 2.898424801178785 6.920068409942121 5.639612361583517
Mg 4.669263378931913 8.389338576698403 7.695264925111087
Mg 7.877451554270692 3.689334417145034 7.1048713033050115
Mg 8.056582413056578 7.44639095873622 10.697351631572321
Mg 6.348879732126097 9.851642606204793 9.76739855795291
Mg 4.741277160369832 5.745891233557767 0.7113118553090911
Mg 10.82070350198529 7.483308039118206 9.069311396074353
Mg 5.317723040001077 8.968462802736193 4.818275576908549
Mg 9.484571367260326 4.914532924485208 9.3783195424625
Mg 6.395379435642177 3.7338812336303713 2.184805141707045
Mg 5.791072392756578 5.879646442138465 6.0501116361322484
Mg 8.267846333187746 4.842121831451618 4.3483190887182674
Mg 6.384568291601266 6.812509351998488 2.905548901957664
Mg 10.405679229490342 9.075653540343366 6.578252510478601
Mg 7.153937561109185 10.224250828322738 6.796467117184626
Mg 4.881070096434303 7.408429827722334 10.63897163137269
Mg 3.3900124361251067 7.690343015948891 2.747510599206092
Mg 10.152671427180428 5.82438058132283 6.467675015883391
Mg 7.766743118562918 7.381370383316683 7.70323495311678
Mg 8.351242944514016 7.92654526966987 4.754730981826362
Mg 9.223961550868026 10.035993600845124 9.09528621066804
Mg 6.390194036314256 5.219075926021028 9.27943459813984
Mg 3.8112953608437423 4.829608786799307 3.559901508603387
