27
Energy = -23.45350752 eV
Mg 8.710066449534738 6.9483446218406835 3.018052214840596
Mg 5.5659551978733335 7.254048983329792 3.920283009384083
Mg 9.268367308836877 4.216627951911356 4.416986373992449
Mg 10.880553446179203 6.819442035202702 5.338272635763935
Mg 6.6835965807765465 4.702669341156003 2.9369130661864626
Mg 6.287768497625659 3.7107181367421744 5.693908732066537
Mg 10.33088378979424 9.395371183400847 3.925992634063934
Mg 11.414755505842633 4.179687386691944 6.617775828019158
Mg 2.52990539672217 7.568479379662984 4.8398240185650385
Mg 7.430054485182937 9.556982490012274 4.325098783616935
Mg 4.408061768960047 9.862283978451469 4.987854103304781
Mg 7.80124141461569 6.520373155741438 6.061214150303639
Mg 3.881477098021314 4.827641054690688 4.340901475211141
Mg 3.083267653322503 8.912753101202298 7.542904419417454
Mg 1.8931049848755361 5.95151364264871 7.309779881662112
Mg 4.9347687783859016 6.341100618648605 6.908375138140756
Mg 6.3347047505990055 9.115809023130614 7.196142147138672
Mg 9.48647881981347 9.154009110445305 6.795156822520953
Mg 3.4143787261512695 3.3557659433805562 7.040355020126871
Mg 10.093008920091606 6.3198070562893625 8.278446215360463
Mg 8.686686048522619 3.519490183109958 7.483019856328951
Mg 2.222354165572526 7.422503469905198 10.008335135251409
Mg 5.139929600480134 7.9230151048071376 9.769927824587512
Mg 8.149770726659098 8.39583287613884 9.43578364930454
Mg 3.913191918737119 4.9745789470424695 9.627643038384264
Mg 5.880917882505733 2.9156384454462465 8.616428858706655
Mg 7.086556724337833 5.647319418990561 9.076431607769633
