24
Energy = -19.10172263 eV
Mg 6.7225491179137435 5.044584559811792 10.350918750139831
Mg 5.469838826261182 8.516235533175902 5.231706624401172
Mg 10.940776042250572 8.00525823650577 7.467156252515353
Mg 6.821459783436247 10.704095605538889 9.36241080378152
Mg 5.634438543612122 11.286736651060835 6.352566484593879
Mg 9.649802731154306 9.792922323694503 11.765815179616682
Mg 9.460156284227189 4.4873221806189125 11.272889849951813
Mg 10.496426552119068 10.518510713584451 5.720686709752273
Mg 4.582939354764172 9.068268878452331 8.069518205201303
Mg 11.192167011729945 13.068888720632668 7.648195255815643
Mg 8.807943833567187 7.675794494680201 9.67813195168166
Mg 11.874856573916867 11.772327677784073 10.517156631615148
Mg 7.762820831689247 10.520163404924855 4.379351159950741
Mg 7.969645404734615 6.93912562767781 12.465728267343362
Mg 8.916842003880687 5.028954430400452 8.20024226866273
Mg 11.552307517034683 5.810373148422386 9.573732567302931
Mg 12.733384598465841 10.536097504165708 7.886545522455854
Mg 8.351353436679673 12.418704556625455 6.755262475714747
Mg 7.964552950192536 8.965640574025791 6.996932667863675
Mg 12.202327088464523 8.780442601766552 10.308884445623294
Mg 5.804489439960023 8.015095308738394 10.554901377338702
Mg 10.903661182053266 6.952193391315178 12.261684374497014
Mg 6.2024971145822425 6.565343999720638 7.807580001127106
Mg 9.753110182039803 10.56197330414358 8.821386130083052
