25
Energy = -20.27877188 eV
Mg 11.747296461829741 7.551919793201459 5.035105512146977
Mg 8.36530735266757 12.548592887246539 9.936626503343149
Mg 10.869911762668947 12.592591930371656 11.650852588350817
Mg 13.662867913898147 7.635578804993256 10.223847995899177
Mg 8.357133388077099 11.46846722477614 12.952128314654347
Mg 11.050470030449668 10.549568872721732 13.831344341496273
Mg 10.698231437161413 6.7796333878182224 10.205312803865697
Mg 8.928492729644354 8.744591030851188 5.109341273122788
Mg 11.324085174363931 11.724864879853689 8.70290107590347
Mg 8.746711616261553 8.377840070353235 12.711863845904288
Mg 6.744546542424492 10.070595006697502 10.755836349800978
Mg 10.711810975856556 8.676885742269308 7.947520943870844
Mg 12.720033322075897 6.441490053520397 7.636228551062347
Mg 7.976305716248555 7.880026745131337 9.0728358577922
Mg 6.082895495030484 10.05088391122042 5.712266331379287
Mg 8.510714049390904 10.629378828532547 7.551456024349612
Mg 12.968295727412398 10.446212633671786 11.081941222629581
Mg 13.52342683671695 9.629274883849073 7.9930520980733535
Mg 6.717654709877662 7.202671381937992 6.394825078765939
Mg 11.342223637071976 10.531968546991196 5.786180486326988
Mg 9.60019857606641 6.199316340632783 6.837207403920903
Mg 11.919054503711301 8.005356794288128 12.667513121878924
Mg 5.182441274379893 8.892629630550626 8.308752688527369
Mg 9.9374384317359 9.863145804608196 10.570426750732032
Mg 5.846229169653886 11.762378543579306 8.312214918367909
