29
Energy = -24.8987454 eV
Mg 12.120132870667035 7.440064878702203 9.937729817480085
Mg 10.512584899296746 7.574329297316994 12.422330831969955
Mg 11.049131743753618 6.213913628361075 7.368120511100795
Mg 10.694965820345194 4.849326835668847 10.137958940872522
Mg 8.689884477871672 5.73084805638954 4.981150431971391
Mg 10.799934218940157 10.093172781154239 10.62544339677649
Mg 9.246544899914262 4.850938080434663 12.794927455391841
Mg 10.929292369699489 8.058758056476403 4.897286138177457
Mg 11.445502141238828 9.247672989048956 7.733825024999921
Mg 9.045579796506773 3.9910622142824987 7.675156050326535
Mg 8.645747416314407 10.013510876534514 12.721608659804101
Mg 8.78518287094279 7.370194264984662 9.75179183345747
Mg 7.538843328153301 4.495998005193463 10.32195791748802
Mg 8.5377515913205 7.99655036090435 6.826019239999486
Mg 7.360385932964271 7.209700912550157 12.595404260999336
Mg 8.39790962057734 10.123014016759955 8.62557110218627
Mg 9.924612068750319 10.818891307332175 5.7399219480418395
Mg 10.65398464177511 12.19440528916615 8.370694609640374
Mg 6.574122069160458 5.704099650752143 7.6236614757434875
Mg 8.25146052189151 12.343922057354234 10.52242405593401
Mg 8.267617994707802 8.848546754037738 3.7837736123202
Mg 6.309898052831151 9.579663988543667 10.879445452970703
Mg 5.548749070257867 6.691432711273722 10.309968758983345
Mg 5.992366394600952 7.4960078529117675 5.178068898840126
Mg 5.538621674030733 8.575930054756256 8.067085846658879
Mg 7.996969264680331 12.94147030213638 7.218522342033253
Mg 7.902191861966609 12.146774344342887 3.9699040947515525
Mg 5.720439736705645 11.63206969644683 8.65067159754569
Mg 6.438019883289396 10.422055863800479 5.937384137983637
