26
Energy = -21.19897659 eV
Mg 5.988556575718355 6.5186317669197935 3.4607156384416027
Mg 3.0559326024731868 7.23919992629882 3.604186190116021
Mg 4.935533635214208 8.885557165535126 5.343970411664915
Mg 7.869963679670131 8.999735161130065 3.931119720861969
Mg 8.651550348031913 5.445508242521264 4.146247018000787
Mg 6.369454540989413 3.599235591526375 4.447568301529658
Mg 3.4938338135951867 4.171734670083849 3.6797797344322687
Mg 0.7601588837014249 5.475689032296188 4.3140388149353806
Mg 3.809250701983125 8.845123667254128 8.209665385568927
Mg 6.840429281092485 11.424519179038178 5.525609088652194
Mg 9.239872684998597 2.308872146136078 4.737642994876313
Mg 4.102666727766499 2.038235444650468 5.784908918999737
Mg 2.038896064934386 4.024708733077514 6.575159198185888
Mg 4.695417471111321 5.781948640948091 6.108441863978291
Mg 7.61948072428396 4.53450519140538 7.241841662948643
Mg 7.438429989281358 7.321730574968166 6.321343759481567
Mg 2.93103333140653 5.997331229805874 8.68902757775009
Mg 1.8949067889118352 7.5450086150555915 6.32433996361728
Mg 5.952937210416284 6.657070028524176 8.767025590100664
Mg 6.680276756881928 9.723588803281775 8.098536147726072
Mg 9.233963334056998 10.142876956345855 6.573560677371909
Mg 10.421092258929548 7.608969756054101 5.435446660536022
Mg 10.725460471632172 4.592333151006062 6.130033140031622
Mg 6.85563433419895 1.6181432645622678 6.917521428310185
Mg 4.873420333491727 3.5583873647141315 8.252736767825187
Mg 9.742397812129264 2.1619060537608394 7.600083700957285
