26
Energy = -21.50077044 eV
Mg 7.54239475584735 9.228097951896101 14.721149075519044
Mg 8.347204032015858 11.918513890781854 6.995781187226998
Mg 9.320269133686875 10.951990729582786 13.039462481800284
Mg 11.46509165062914 10.951145939160602 8.389764132284848
Mg 7.419034024248554 8.564866164644801 3.095936226126459
Mg 6.5228138884060645 10.210560615324122 11.908712823719455
Mg 10.253189988058478 9.185826964342821 3.306334629780364
Mg 9.18186202115243 9.065555810670048 7.869282589590455
Mg 6.728338002318395 7.177693960925433 7.840836911964881
Mg 6.755050709098865 7.057932465646819 12.749747657477817
Mg 11.679773787505543 8.732562787746419 5.895163973924498
Mg 11.650679995296434 6.569148710411927 11.241931322897562
Mg 9.893046492469933 7.926630923319373 13.281954387269945
Mg 8.477154602563646 8.266274086566506 10.56906332962449
Mg 6.650182922878819 9.509640384468295 5.8593778418600975
Mg 10.86855181514708 11.550196508080107 5.324616201811892
Mg 8.890232595183637 11.372642188282123 10.105181934680182
Mg 9.098194655369122 5.275319940991584 11.81573757209319
Mg 8.187518629910231 11.320429956420922 4.020825037273713
Mg 5.189059966960663 7.93332013487286 10.28694504840179
Mg 6.4193692671914295 10.170759810838462 8.850848143214545
Mg 12.002855584865541 7.946296212903172 8.766876987344023
Mg 6.757309605026861 5.308496697258919 10.067324779986658
Mg 8.915433933423138 7.286944516775489 5.448848614835727
Mg 11.313569655447164 9.680009489010313 11.126772633229816
Mg 9.531549746428402 6.02033960254176 8.72312573656284
