22
Energy = -16.67455234 eV
Mg 4.806555596977936 9.486536924948599 5.958220217164171
Mg 11.974698937633747 9.123859040690222 6.763984126224931
Mg 9.941804935797812 7.233728818061363 5.83996728215017
Mg 11.854592062222828 6.092208913001064 10.8780319838339
Mg 5.715670973673496 7.483332141505944 11.961571807553575
Mg 5.45901014515326 10.362404034174443 11.37267834856348
Mg 7.328303305893187 8.425430910696628 4.137062814190208
Mg 9.861657014538464 7.3889710367749615 8.855044745021976
Mg 7.997842230949643 9.288289507242158 10.063179707894045
Mg 4.8048471683989105 8.448929058981584 9.087785658924732
Mg 7.165472146846557 7.950164104133999 7.167089805491179
Mg 9.979840031042894 9.741181191857455 4.2142266685452405
Mg 7.812948019492425 9.093593039343098 13.172500077631177
Mg 10.887017936389277 10.465991306513931 9.370207538108499
Mg 6.205036782332812 10.86250651292727 8.20971226057931
Mg 7.092961111128549 11.107683315903676 4.998511345172658
Mg 6.960821666228145 6.220232697708427 9.516626915290617
Mg 12.463670874296955 6.266772820726831 7.719826630275319
Mg 13.090526040918324 8.415352422002192 9.640272704261577
Mg 10.688534443061162 8.738448067229717 11.799776026806292
Mg 9.062918833012885 10.077763150762625 7.117796152507412
Mg 8.82630415368853 6.569634126437237 11.825072313880781
