23
Energy = -19.25475836 eV
Mg 9.088688862624005 5.6578932274221945 2.375346006558396
Mg 6.621239784344867 7.131308344462317 1.497721149850521
Mg 3.9551182397200324 6.689707567530553 3.063786109581324
Mg 6.424064598013345 5.149297032611354 4.117069377350726
Mg 8.801638804042401 8.64744295409774 2.9671427323947093
Mg 8.968958831219293 3.6366559967680323 4.910757079760001
Mg 8.910189309204396 6.610865681360481 5.373258763631787
Mg 3.8773684347893 5.21489809702003 5.718597971974808
Mg 6.038876869235436 8.180662501216005 4.6216359306181936
Mg 8.199935285293613 9.451571463856432 6.206677734554401
Mg 3.075868403892946 8.142931561058765 5.544809466748013
Mg 5.222776398713847 9.400882175700943 7.300912169417553
Mg 6.34140259868689 3.3597807200822425 6.539992611576099
Mg 3.9520956319726066 3.8491836619062325 8.359677843425505
Mg 6.3575534756713745 6.484062929890305 7.252867750759151
Mg 7.688316289930401 9.529710061432722 9.086392109944038
Mg 8.868558508015601 4.622040169101779 7.789659365224802
Mg 9.624790732152098 7.538583491829907 8.095406197523321
Mg 3.3998589574245717 6.830219654958576 8.24768859369716
Mg 5.216132444938683 8.208849910350121 10.182487831400119
Mg 6.666804918010212 3.5084057191146476 9.522586791497671
Mg 7.598549043974243 6.361652844265966 10.057951703051609
Mg 4.704293170660147 5.39647382649234 10.770654301989936
