20
Energy = -14.37668674 eV
Mg 13.635223250174002 8.05299623101411 9.638600825364364
Mg 5.34152839432419 9.71237794773554 7.15452854126506
Mg 11.971998425594531 9.969035241378968 7.931670239768362
Mg 5.885014276516139 6.071325894169033 10.60525598608205
Mg 10.729889737713005 8.52237767212944 10.494094697961666
Mg 8.8501790123408 5.923750750110964 10.233140535806752
Mg 7.3494469836971446 12.00893102838939 6.930687920365667
Mg 8.087498715778967 9.157229371943034 5.820086894323877
Mg 4.5052178162454 8.801893406164442 10.00071579578606
Mg 4.0844361823686395 6.916662802802919 7.525366961484578
Mg 10.137366100030299 11.50482237483038 6.111582246560415
Mg 11.761930355742116 5.802967237544175 9.468091290966672
Mg 7.069804317051379 7.43735680757269 8.1127763399148
Mg 6.3777737985594545 11.150393173232155 9.739556998434804
Mg 11.1774100277026 8.908204245298391 5.156838664179623
Mg 2.8788398712458023 6.267842524741115 10.147022715777942
Mg 9.940997930810354 7.420702354369028 7.561287074728924
Mg 12.930879417964894 7.165952111040905 6.86570746307396
Mg 7.550221550404569 8.678758347032757 11.048883016371162
Mg 9.031349959808104 10.21906970254529 8.727615492818098
