20
Energy = -15.64981292 eV
Mg 12.521557546438938 12.404450630100262 6.28791841564149
Mg 13.728192221306282 11.39540475046827 8.912855479564136
Mg 12.193623736123127 11.95069921286908 11.426715806842676
Mg 9.129472411891978 12.100169537271793 11.474209157608122
Mg 10.715008345205693 12.37658058329915 8.866333730366797
Mg 10.83153944460153 9.875391705728235 12.930690546833477
Mg 11.702908664647769 9.60537804548972 7.401600728753348
Mg 7.964066911446317 9.4870080941181 12.535058587487194
Mg 12.335304461564867 9.04460553253642 10.411466733398242
Mg 7.677999336399251 12.281894970333434 8.584876901971011
Mg 6.341081429553629 9.803915214283665 9.84558847784789
Mg 9.381267326420916 9.623586402823577 9.545182833664505
Mg 10.118804327855049 7.249374442312057 11.67918068569801
Mg 9.478108003109398 11.366744945337185 6.2554553582524255
Mg 6.992748916009835 7.059731631032577 11.192668502100252
Mg 6.853582250914824 10.036391611137601 6.860192736029754
Mg 9.294762195709605 8.335531538112516 6.13868833180492
Mg 7.474383148892158 7.33750989340526 8.25605758075224
Mg 10.63053903731487 6.982710908581378 8.615830391023641
Mg 8.821240517998433 5.067028454973805 9.967601643001476
