29
Energy = -25.41350583 eV
Mg 9.924550448658263 4.73005404439822 9.13654903360463
Mg 13.342734148614237 7.661155645964536 13.021786249105554
Mg 8.541871603679708 13.27047650398645 8.280518084311126
Mg 7.1591701127102185 11.993255431468704 11.386785733709937
Mg 10.313800875850482 7.996591372866967 13.193967526215992
Mg 9.267782179123332 7.651169021341534 8.67830863781314
Mg 8.615175751735721 5.954292869851276 11.653908397999704
Mg 6.962149191922503 5.398944735371641 8.83096981003648
Mg 6.294242689953591 8.33609178096831 8.350609016121455
Mg 8.093023647645728 8.917758404050465 11.317891355578466
Mg 5.660255055154169 6.739642020333158 11.10205727528961
Mg 11.50542226410079 8.785963336738547 10.450878651516495
Mg 11.696767099810627 5.738467080246059 11.436190088667354
Mg 12.227594117027046 10.439249003753865 12.965740171182572
Mg 13.700311705067802 9.40432458741707 8.41446072247174
Mg 14.792342563916929 9.685061656484098 11.346998440752067
Mg 11.117375655569937 13.215040523839042 12.381956534664125
Mg 9.862995199608235 11.183115962293746 10.185944888149622
Mg 5.183255117040309 9.713488488876408 10.955101482426159
Mg 12.205018953497836 6.591648975494242 8.391259831765993
Mg 6.130111063482292 11.399865340789356 8.542136558901891
Mg 9.281760962112232 10.908304839077264 13.26099459022694
Mg 8.7685937486194 14.505231074875958 11.050348650802526
Mg 11.230565133022582 14.20992058662186 9.36914156315763
Mg 8.666523804141736 10.288433720014032 7.436792132840865
Mg 12.915450132417451 11.766161941925388 10.228106792123556
Mg 11.436783553917001 11.675916865978348 7.627784951718699
Mg 11.200882666752852 8.91002566504983 6.725155850121806
Mg 14.43484592404768 6.891970126130259 10.327939877045601
