21
Energy = -17.24253965 eV
Mg 2.5409389058491807 3.81714382643446 7.633621547591794
Mg 4.950420272554409 1.1419387854943797 3.8623148175292066
Mg 4.048056809829011 5.701263203912063 2.995145036682657
Mg 0.5196076665736129 3.557224793302098 5.365591976250383
Mg 2.410810742811715 5.785045710567246 0.43802299849109183
Mg 4.476559980469474 3.629496155437855 0.6773553081222052
Mg 7.635789334406353 0.6277433814925832 4.517494083500757
Mg 6.428540692114215 3.770828618766011 3.030823775460988
Mg 3.498385357363318 0.6849817319140804 1.1512050541520489
Mg 2.6267348989966846 1.3582006641990314 5.864917477265845
Mg 6.444093265153266 1.4075187314829458 1.2265516877546807
Mg 1.524696859742658 2.790076594653734 0.23486601267430726
Mg 7.173314877731779 5.088405700993869 0.4639505413555581
Mg 4.611282685625159 3.772223452550356 5.434651958993076
Mg 7.1099534328079566 2.910503834848278 2.5689246956552445
Mg 2.499431985078674 5.974388448650542 5.612639543805599
Mg 0.8878498495218566 5.665707032923268 3.110916419739845
Mg 2.5145175097519434 6.909268167239963 3.6397567871116228
Mg 2.5451493917145407 2.9024040062129 3.141651189294253
Mg 0.5041703391273432 0.2025688909814453 1.6171259243671117
Mg 7.1099534328079566 6.7261226282575945 4.198323594799126
