28
Energy = -24.42731539 eV
Mg 9.830197714016098 10.85930734729527 5.184693835684796
Mg 7.981672018005828 12.16186552858048 7.271360896774683
Mg 6.779853097967916 11.168760351137397 4.705013274074575
Mg 7.693245541546631 8.475694802445918 3.578848565231471
Mg 9.869388647736445 10.197814979694213 8.758581657708726
Mg 10.798998712518594 8.199972237226955 3.8423474580637507
Mg 11.558380542297533 8.775118182045762 6.674073376892091
Mg 4.976414337066183 11.404838188156035 7.10966344908989
Mg 6.876037922302479 9.71377087977806 8.81314358533004
Mg 4.289831492818031 11.128845871519662 10.071866373365294
Mg 5.517266276726528 8.645583294346244 5.866298345556531
Mg 9.211678146493666 5.756599779380249 3.306045294966128
Mg 7.063592842850853 6.010815087338615 5.459758011363075
Mg 8.504539364792171 8.452850998780667 6.56436504889605
Mg 4.076855462075571 8.44186667119353 8.497886189257896
Mg 4.483436376184388 5.973288081889592 6.922036957312798
Mg 10.361416368790856 6.001168147565308 6.10923877724611
Mg 7.241836933834593 6.592067154424924 8.627315668729189
Mg 10.433205259639402 7.171990837048752 8.950547520326682
Mg 8.493471990872536 8.317141196797738 10.999851242068198
Mg 8.65762052075653 3.464826022069173 5.5022374228276165
Mg 5.338637019879576 8.392369498892528 11.211096421986717
Mg 6.408232731170739 3.73236829717016 7.524165079992882
Mg 4.716746616907219 5.522785652210969 9.916858085726606
Mg 9.369636133429609 4.12720652487924 8.380081566701142
Mg 9.388029328097225 5.419653226721736 11.095001837421506
Mg 7.092987685163329 3.5961748409628846 10.451110556030217
Mg 6.739267439912996 6.004906897942483 12.204782895373134
