25
Energy = -20.54838842 eV
Mg 8.82724905910785 2.8210406457730723 8.56167271691638
Mg 4.638558007600624 2.788607653069486 5.8729121470172165
Mg 6.322967687972427 5.205420001947446 1.860822342567041
Mg 4.354190710172931 8.874450766547465 6.105534267209834
Mg 6.163706630090196 11.02484516108677 10.496678611530285
Mg 7.704010667537876 8.460647632104404 10.337365949555835
Mg 7.80162056250064 2.658731494523436 5.832776311077806
Mg 5.864377372432655 7.136653215537547 8.220479501422226
Mg 6.77859481801382 10.105522734023525 7.722263508902588
Mg 3.789985416134728 10.524608393348187 8.685066311708454
Mg 7.279512616124302 8.930228153825889 4.954534701299338
Mg 6.037544625120611 4.104581376898571 8.088696792401965
Mg 8.79005703974146 7.772756974839374 7.328278835254664
Mg 3.8548227664580503 4.56732729010631 3.594853004325018
Mg 3.8216161281164798 5.711462987225012 6.369549322357013
Mg 6.834101160083614 5.728257874167644 5.530967222484214
Mg 5.03484001915072 7.331403898609582 3.6367159932497284
Mg 9.954081639840211 7.266252161059957 4.625563303091466
Mg 9.69938576033857 4.9385567682128935 6.593680162555207
Mg 8.861423267244893 4.598667463939953 3.5067363215759877
Mg 4.634299390302397 8.476199153716466 10.829602106732345
Mg 8.321563669640275 5.607092249212709 9.376126904569608
Mg 6.281161048543088 2.7356894657454425 3.3710945640144603
Mg 2.790401544583526 7.637668255972132 8.550783232641566
Mg 8.05973344211044 7.493133277469879 2.447050914502286
