27
Energy = -22.60257841 eV
Mg 7.371583306547368 7.9624273692656455 0.9976256099355382
Mg 7.942067329276874 5.12845027660456 2.1297845245623472
Mg 5.095248479196951 6.882504344473045 2.637979970735081
Mg 9.611724588481335 7.511345627164568 2.859322780141325
Mg 5.5036802727855685 3.931337091752032 3.3682876680906753
Mg 7.106249896166223 9.484908325682326 3.5895492203311865
Mg 8.084944286721484 3.682514914534253 5.036783191386269
Mg 3.52521035217678 5.528724766781528 4.967855778832017
Mg 7.238767590531277 6.604696983944919 4.7704744515838575
Mg 4.758412098865732 8.328071614103331 5.377967990825608
Mg 9.43864684250012 8.68863282998224 5.574816197072872
Mg 4.332144943895552 2.2148931306731083 5.488502354112296
Mg 5.791492515044215 4.715379268116032 6.663954251479053
Mg 5.199308571505012 1.9789432031541534 8.439793726515523
Mg 7.028673791995709 10.20533649126062 6.568662009572261
Mg 9.228530890759368 5.911369077981814 7.018195147881931
Mg 6.6006713336083696 7.393614080115252 7.722103547322006
Mg 9.146696076412647 8.676485107836507 8.608716225951087
Mg 4.4144807831087185 9.540066562555722 8.200545149571754
Mg 7.931134567470701 3.4658777267701213 8.295581914482508
Mg 3.60854027192854 6.647603841004965 7.948614905536373
Mg 3.0204190191799123 3.7591363936768234 7.808232184772566
Mg 5.304409020878133 4.704225534973383 9.759331225394861
Mg 6.842214200508353 10.389211319255569 9.685597069963547
Mg 8.074057653203102 8.526029051551165 11.517142684747935
Mg 8.051692092271287 5.978923629453872 9.989830873817533
Mg 5.271557241764221 7.681849454116839 10.497307362166378
