27
Energy = -22.92799509 eV
Mg 6.431614232322279 3.822034605550899 9.135610425749434
Mg 3.721344517353378 7.150161755887112 7.754578975641666
Mg 6.107310106098454 6.812746405722508 9.553249051960874
Mg 3.7735989364054814 5.038318432441381 10.031064471397046
Mg 8.273357649127574 9.006303690607494 9.468907774657435
Mg 8.852802595217486 5.687189582375754 8.652764008325967
Mg 10.350758269053218 8.281090172750948 7.4902127358083135
Mg 2.8489954745612267 4.148573306091469 7.274160507689175
Mg 5.578394167974131 9.698791905605004 7.935199230818012
Mg 3.736625291824977 2.1142577700327205 9.42090661433637
Mg 8.466286572092418 10.628287094115558 7.051066552688375
Mg 11.30480792458394 10.126295152982454 5.407708274300531
Mg 3.6517487226305523 9.13337391087448 5.57018227400864
Mg 8.219137316143623 3.50823185326909 6.566000400949799
Mg 5.055010393748603 4.882896260072609 2.8235419207539363
Mg 7.788890690202788 5.354105211454651 4.133342184848707
Mg 6.44967753642658 2.5866860418176447 4.162195723747882
Mg 7.265863821056259 7.472368546537319 6.753302224043348
Mg 10.14025369179007 5.753127658282129 5.893852904292708
Mg 8.901119665305705 8.464936692080048 4.541230048209663
Mg 3.520452252674582 3.0595961831475535 4.5548452828258705
Mg 5.6802746715712376 7.522058509689332 4.10390575407682
Mg 5.30154837749464 2.046712143764061 6.840231844672455
Mg 6.372341807516537 10.446151207591614 4.986680816078413
Mg 9.105082892453899 11.602986031132886 4.191526866267045
Mg 3.0277931323454483 6.094467285859711 4.879059682692246
Mg 5.588406514790521 5.071749813029163 6.338170671924539
