25
Energy = -20.51090158 eV
Mg 8.517450366035924 9.751534525273724 11.065259886281975
Mg 5.759963859245258 10.403441161758863 9.631710661902405
Mg 12.715938268168808 9.724574124636934 8.700732757033983
Mg 8.057190713673654 11.68905042945084 8.195211687621896
Mg 7.077541528422503 6.740832283493444 3.139579529445492
Mg 7.9993624219620205 4.82510768570547 5.4474063943829725
Mg 11.517743783386425 7.652574460665975 6.822318006224348
Mg 5.424068912931339 11.238876938577679 6.729868636329566
Mg 7.927702740431139 10.877490370932744 5.210929784827535
Mg 10.468789809728793 7.100863788212666 12.798359652378062
Mg 6.022094900590956 7.559143907046036 10.41190872897286
Mg 6.717485215725914 5.557008478268971 8.149648910559645
Mg 9.688402782298141 9.699814302016048 13.905298229465835
Mg 7.547887483782607 7.580918601033392 13.015995686556552
Mg 8.519862497859258 5.887985729380715 10.6418919995257
Mg 8.594959657249396 7.847530527625843 5.5721675612469665
Mg 10.970922419016679 7.512137221953574 9.822454991785056
Mg 9.713556282132211 5.538653716475452 7.81516844514433
Mg 5.301357651488864 6.067248794433802 5.368899156847282
Mg 10.639968271445559 11.569960984504977 9.687903125462974
Mg 5.706122042869403 9.04256008423922 4.479174306028644
Mg 5.572813758190391 8.292571011611411 7.433935051325641
Mg 8.457968765607308 8.540946921690601 8.407214510128311
Mg 11.765963813464218 9.7435642677231 11.732087491472006
Mg 10.419993967514381 10.448286256598626 6.809148516882359
