28
Energy = -24.71619339 eV
Mg 7.4342333998821735 6.560274061741093 1.687291002785328
Mg 6.1807333826639335 9.18788615645088 2.4131980258312518
Mg 4.475188101230964 6.599762781679103 2.610573145300427
Mg 9.004317151174698 8.629156802970858 3.1278999232742595
Mg 9.27497034149561 5.672796892140115 4.023796594298162
Mg 8.288068111545961 3.363701540073043 5.58827989512333
Mg 6.4423154827997555 4.295519507281238 3.337478299851982
Mg 4.2071273865325125 8.970550098140002 4.623622498031974
Mg 3.5065350020013573 4.046449121881792 4.107181258636434
Mg 2.2789936968704967 6.619842771090162 4.815907991969767
Mg 6.583498812789646 6.951217356756148 4.992091627525956
Mg 7.185895855207383 10.009870852897146 5.226276688071729
Mg 4.259633503752664 7.072729969788292 7.111850429215743
Mg 9.414947093879691 7.999434354402173 6.088875694965592
Mg 7.253865941866773 6.464781818016453 7.896400561722963
Mg 5.566910399716762 4.2939118959530305 6.357165614542128
Mg 5.151943787347935 9.906267355634357 7.376336336469337
Mg 10.00661274806988 5.144835900222822 7.201158887786453
Mg 2.524043441480793 4.461464114714731 7.061426265483822
Mg 7.903455498434286 9.481332291406257 8.37505405393177
Mg 5.387859199884897 8.102215402738668 9.83883877251481
Mg 3.390589768590585 5.806257952068629 9.767226576053996
Mg 4.614225858349553 3.2255294425317405 9.059778241595211
Mg 10.344974837707397 7.654626809691034 8.976343789245963
Mg 7.626174778932534 3.4246800811477054 8.568861788564762
Mg 9.384201507838432 5.144335118157366 10.238011115699534
Mg 6.311955821504584 5.260936391363624 10.70537337008901
Mg 8.120075629799858 7.772979700411383 10.947048092768636
