26
Energy = -21.77113306 eV
Mg 10.723915975511934 7.0548769484379275 7.171407425304425
Mg 1.405720228031459 8.95515637931841 6.74540708065063
Mg 8.616870296486782 6.857951180190208 9.542505900847411
Mg 8.495588638839946 5.507943696923053 3.0660633571605795
Mg 9.680328735420998 4.277247992792695 8.278963522681044
Mg 3.5856102287712703 8.743328700501278 4.616969202475392
Mg 6.296651133114006 8.641049800001001 8.822898946855874
Mg 6.249894226469125 7.201001443354909 3.8675560583671995
Mg 6.185687423861881 4.157268419839473 4.5194833985329605
Mg 4.037297931483352 10.23366357075465 7.383396545818911
Mg 8.916978370224173 9.345155066552316 7.66562567319928
Mg 12.066389725711849 4.2060076450975625 6.45559176564065
Mg 7.722017842401124 4.0124766609161675 10.461225636616986
Mg 9.200312187023485 3.592584404717181 5.3241592490051275
Mg 5.738521413242492 5.611390396284567 8.992444148550112
Mg 6.976180198143219 3.1801208151051066 7.4205778375795415
Mg 3.207322151247888 7.792114438849465 8.939732105600514
Mg 4.866225915222197 6.944722132473468 6.531968162112477
Mg 6.6005314105994595 9.517317628036572 5.856122377907545
Mg 4.217008263330742 3.8744695782790286 6.701166086910765
Mg 1.9151450996034292 5.982819523842245 6.735798303928698
Mg 9.135834412085783 8.276146783428322 4.726805724028765
Mg 3.4790382292254387 5.6029248814326404 4.095059684572243
Mg 0.9192574095139538 7.312104461069534 4.288612482333621
Mg 11.06206325853004 5.99614532802775 4.317659375789047
Mg 7.747691988565486 6.172094816435637 6.5208826401912034
