29
Energy = -25.52976661 eV
Mg 12.963087890184918 4.985094733948487 9.209615321193256
Mg 6.960243521666625 10.21573322065278 9.825489645474315
Mg 11.808009148216998 7.242093999199366 7.668502213039085
Mg 10.48034869284001 6.270785288409045 10.429466130600996
Mg 8.342728453636637 8.762077102157996 14.575306559298584
Mg 6.306572245836861 9.981155340293727 12.756103434288153
Mg 9.544371613429247 12.9106801032903 6.325282461430971
Mg 8.061130766693344 7.703207569653666 11.583609096029303
Mg 12.360636024886356 11.222571404458877 12.273662602376142
Mg 13.71204554911706 9.58450873304205 7.14240379274001
Mg 12.196249008048888 13.477902479449591 10.37150403265748
Mg 12.48557342808353 12.31556821850104 7.4268587037622495
Mg 11.139133142011755 8.089019054376658 13.090120430299304
Mg 9.075905214891296 8.38600171177175 8.716955525608086
Mg 10.787994064894928 9.938313848156255 6.579714726658782
Mg 7.2728359243721705 12.987298854146534 8.415343554965139
Mg 9.405319298260595 10.347767630921826 11.821778599378913
Mg 7.896848138300492 11.855000560398116 14.390154339700056
Mg 14.011293727034639 11.080729814840918 9.76721102911277
Mg 14.494796875682507 7.691378613887876 9.398305225753136
Mg 7.327560970817427 12.729852793353677 11.48665855626729
Mg 10.617290042061686 10.66679941284429 14.643738805423226
Mg 14.350522053619615 8.962886413648327 12.14984644601513
Mg 7.79605981497542 10.486030795227464 6.989762556152749
Mg 13.23563419504075 6.2847765937989735 11.86348592882319
Mg 9.447662660745808 14.432094673964883 9.964422916531149
Mg 10.040437580464934 11.481907078185547 9.206719558631084
Mg 10.154762505227975 13.261839599112301 12.682597271931238
Mg 11.735907172152215 9.096527844241313 10.107875771043725
