29
Energy = -25.72107056 eV
Mg 3.7232413925753107 6.9804180128484425 2.7740904037187493
Mg 5.378190100387065 9.375599951090178 2.5768532799817363
Mg 9.571180090866351 6.437600504968442 4.132892671921436
Mg 5.707850294533316 2.0530422766181844 5.5366997414800645
Mg 6.804873304601895 6.594356531052708 2.807860873442814
Mg 7.893575939794495 9.131966857407063 4.16263063927183
Mg 2.8527230509076293 9.319274539275552 4.331659471999057
Mg 4.904470233692899 4.766873830422125 4.404961200620777
Mg 7.908195227079874 3.9144019067066638 4.3111250441495255
Mg 8.203635400485043 10.582093185645723 6.793698430101356
Mg 11.636118425579676 6.878935323044749 6.433629847404699
Mg 2.530887404204845 6.502285194757366 5.609367798600086
Mg 3.7801909902862967 3.9467042548827447 7.121564513306508
Mg 5.4485854956461175 10.628155580041327 5.394660795221483
Mg 6.721839558845545 4.962530241962883 6.983979838338587
Mg 5.519660216701813 7.545587568296582 5.560363797435135
Mg 8.403445700285705 1.9249499277793523 6.705033088612438
Mg 8.407156662213522 7.455964960271772 6.724148064518847
Mg 9.894481992450729 4.456630045392513 6.641608637629722
Mg 2.8762250954160664 6.34509720719667 8.579856434333784
Mg 3.3524581923506145 9.104638175378668 7.249901291221923
Mg 5.9435170556022285 2.00066288744827 8.470046484626447
Mg 5.765964708881366 10.514325848007882 8.432775330737718
Mg 10.131825082913942 6.275149453488699 9.059009480349099
Mg 5.326680662199693 4.608818782800273 9.803636444072636
Mg 8.35118648970129 3.70666094353666 9.281099198726093
Mg 8.283314965998528 8.907779824785191 9.361788912949258
Mg 5.66884321694534 7.46916310315861 8.669367030861373
Mg 7.678319844538672 6.278969877421514 10.754328050053143
