20
Energy = -15.34365289 eV
Mg 13.501818272138937 9.136510394382855 11.22504023540272
Mg 12.902929129071948 8.528450599322955 8.315150832885436
Mg 12.085564202662235 6.606044821104098 10.504230379122351
Mg 10.712875830805295 8.611667992276963 12.30316680777867
Mg 10.797141070585084 9.041928994681955 6.259035204118281
Mg 10.55604428945903 6.49397314280649 7.889214127733486
Mg 10.426874961651812 9.840039825334102 9.52662280366945
Mg 9.05658869349378 6.549120302095107 10.623486341209114
Mg 8.2304807672525 9.599498424225855 4.830990675479277
Mg 8.96820812011639 6.694952321770509 5.383151518578762
Mg 9.059319328578615 11.336325596786958 7.006515249065618
Mg 7.351745184252949 5.71521805432049 7.925823025442292
Mg 7.855339389995815 9.152383516767765 11.620794136398542
Mg 8.083014256439741 8.510548819399162 8.271857374147777
Mg 6.092505156676949 6.804281130371584 10.622496145223643
Mg 6.110372947525068 7.579416699080348 5.555075295286637
Mg 7.591818083518062 11.39207193912978 9.68329433631438
Mg 4.712490785226504 7.633313512391859 8.095361266054146
Mg 5.281819021013987 9.710733151714765 10.206822899259265
Mg 6.034529715948927 10.294045080197169 7.109341375204113
