21
Energy = -17.28924907 eV
Mg 5.9679587343485405 3.9746904233912184 9.86364436752037
Mg 6.3545716958478815 4.7821435274783655 2.5981369274621438
Mg 4.761453162871312 6.831684222469113 4.198632564881888
Mg 7.83370520070774 7.016193331086735 4.077138647969171
Mg 8.385161291294315 4.032361086772195 4.6629762691432965
Mg 5.437570755295511 4.053999609890057 5.407085865040695
Mg 6.107699605870753 9.535167212105595 4.489498807882539
Mg 8.53371715069013 9.041481618391247 6.282430769209368
Mg 3.6594174527493224 8.95802235373472 6.115510328549632
Mg 9.611023939285067 6.103116513148559 6.441498431986405
Mg 6.476816734047211 6.739676521035588 6.83331194486957
Mg 6.004897194338625 10.326401566806664 7.375186872346345
Mg 3.491007621655801 5.982505258719253 6.861844984822734
Mg 4.753945478891615 3.5142559643294886 8.276921653881354
Mg 7.684638237493735 3.926691741696747 7.622258585394401
Mg 10.520173913190407 8.229716071688408 8.404132228085901
Mg 7.58490298677023 8.393088701570077 9.182174593448417
Mg 9.245095905213368 5.765974082290478 9.473983064500267
Mg 4.544589603849194 8.093585979683612 8.888220660656597
Mg 6.282795957056583 5.661516932911431 9.85310098777546
Mg 3.2588573785331216 5.53772728080024 9.863644367520369
