27
Energy = -21.92722863 eV
Mg 10.68370282916069 7.526206245763933 2.899649395882563
Mg 6.163813882806491 10.840740318299721 8.720696728013081
Mg 12.574443575813515 7.567709617122951 5.328262732472514
Mg 5.193566923242958 7.976020892630731 8.038657483600119
Mg 9.763985559126825 8.998188317063248 13.0501973490155
Mg 6.023226663662957 11.465278721663227 11.814508934169222
Mg 4.5947671831216255 9.014492843848268 10.73795818875697
Mg 10.476804067925924 7.285821088551131 10.36459407376537
Mg 11.185175855045163 5.046755804424 4.646375798650966
Mg 8.461535838607178 5.528821642977374 3.396206402813473
Mg 6.570097344400723 6.665805021114971 5.587583096392629
Mg 8.714674086283907 4.672487490157929 6.311636661760774
Mg 6.8816504175469575 9.611487119010176 6.087653048312918
Mg 10.359492430247517 12.0150156095352 12.789951957482538
Mg 11.179265162493563 10.264834376681867 10.54136092100392
Mg 7.865778372307401 11.088116883588413 14.201198291570543
Mg 9.206203818210323 10.061223359987505 7.9599840967964965
Mg 7.884678031844051 13.738056104119671 12.733087906806167
Mg 8.631862883979386 12.14250034990635 10.254970233266624
Mg 11.99833404426903 8.746113529118555 8.124069033765053
Mg 7.820820989543715 8.435712730786753 3.338874757426613
Mg 6.583704952376863 8.638248645647455 13.145943202351154
Mg 11.147849999241698 5.910902050106163 7.6664733940138285
Mg 9.586112629400281 7.9245578735016 5.781258450256474
Mg 6.405797738182142 6.618061267736863 10.680151533386768
Mg 8.179404239097595 7.002642317720032 8.328197967861854
Mg 8.005871362465124 9.212110203478018 10.58225060605238
