23
Energy = -18.44667364 eV
Mg 14.046548402618615 12.057728295042534 10.276875267283073
Mg 9.486064368901536 6.210441453629851 7.39307535573058
Mg 10.620059475875477 10.662384143345479 9.750989196387817
Mg 6.200955423887813 7.457357036344441 11.047965424135013
Mg 10.460077239419125 10.435434633496854 13.30208372980591
Mg 11.502408752933391 7.530016276124714 9.262288747923312
Mg 11.918974953084245 12.72104531846704 12.169407387026602
Mg 10.501321841026718 9.03725505309092 6.828036802626277
Mg 8.139589675797037 11.137245336550743 7.939362802900802
Mg 8.729363409934246 12.292583140631079 11.347461124978784
Mg 5.4723943647560676 8.861440905597485 8.401739584732972
Mg 11.23023130837811 13.598555653584869 9.410534736156675
Mg 10.133780773698346 7.831630182281863 12.024616683926112
Mg 7.600572869610308 8.421724267280949 6.399330492645481
Mg 7.741625272094364 9.608251274816878 12.665761499374334
Mg 6.258562256869746 10.859748600509842 10.494251826229453
Mg 13.12891697563816 9.933412356972834 8.185826102201986
Mg 13.599714935987384 13.006467377829713 7.538334634835052
Mg 6.5663943958015585 6.102176344033734 8.224149144478243
Mg 10.898859082284938 11.956322683772516 6.8221530168305335
Mg 8.678789037121678 5.709770600760027 10.287317411446892
Mg 8.493171517196185 8.594208671062248 9.451155530200161
Mg 12.771723999633714 9.491364188481505 11.385296499742202
