29
Energy = -25.20816174 eV
Mg 4.014536547977885 10.370269871174239 8.652111450245169
Mg 12.203559477763536 11.215908740612907 14.250570637347202
Mg 10.47621561510561 5.7425840047690055 7.372509743395502
Mg 8.580564868775094 11.884063691175058 8.322537122692886
Mg 7.837929289581725 6.462809019848579 9.012173005751176
Mg 11.58681294275516 12.694737430750857 8.495795816594619
Mg 7.353881093701703 12.74766090307096 11.183919605638
Mg 10.651240800998721 7.865917020547758 5.128564822994017
Mg 9.565364986807422 12.393366607937484 13.299896409890673
Mg 6.915994148083771 9.716489568188765 9.87351943763182
Mg 12.465187454599718 9.135125686289696 12.120270085170127
Mg 9.515998422815978 8.853892395287449 8.298018885810718
Mg 8.045593661714939 6.694500021455931 6.017093462593324
Mg 12.556549788091166 9.972523738396477 9.234843679097757
Mg 9.844729782665903 10.509278612139745 10.84413705696535
Mg 5.981051054911472 8.3890875433095 7.294935148940714
Mg 12.665793099728562 7.731890791614778 7.265382352269441
Mg 11.29480444081497 7.115499206355754 10.06463595457172
Mg 9.87349495842404 9.38621201974697 13.95960209778209
Mg 5.3306261186962915 12.99861598423739 8.9876624550155
Mg 7.21021769637649 10.272186594279574 12.906509162078166
Mg 4.707708585218637 11.270362668845031 11.430725082982427
Mg 12.402738102322308 12.189307688724936 11.449453720844772
Mg 11.00176068415048 6.7252664531339565 13.054386130419882
Mg 5.971129837885721 11.378305482204782 6.5745909147605754
Mg 8.340277333042238 9.80141414865695 5.598275634358032
Mg 11.249184063679436 10.56310967260179 6.4712695775199185
Mg 10.00132754669039 13.846900666327015 10.687526533741734
Mg 8.59266056693439 7.808509234747773 11.599312136191477
