23
Energy = -18.74385321 eV
Mg 9.63797723737821 6.115575659911324 3.4818768444307255
Mg 9.039670907734234 3.2644969088528195 4.0941731878090994
Mg 7.6243424703444695 8.106401426775774 4.584216711115895
Mg 6.522266646128662 1.8759094831015402 4.130722097075144
Mg 4.850244762408676 8.064345662533796 3.5747503272174947
Mg 6.514398146478708 5.251006822645716 3.9222646624132103
Mg 10.361888381334868 8.202666953138769 5.617267757931948
Mg 2.983493034791974 8.260419293573948 5.890910388002013
Mg 3.324694735999766 5.745651985231796 4.419565596973359
Mg 5.614148662118496 9.705570991125681 6.1384815003197115
Mg 4.696023676329277 3.5088260757929826 5.839278070379193
Mg 8.540289208556405 10.569171441016765 6.40008116490671
Mg 7.535252477334099 2.9175875475035467 6.843640478109743
Mg 3.2498035498405935 5.67375204417609 7.594038040979996
Mg 8.913235625093415 5.529954566520706 6.334731465414453
Mg 5.954745875479452 6.476174824593903 6.709878283504057
Mg 6.703545792340872 10.634319641373988 8.83363338050957
Mg 4.413271272320416 8.563115575647906 8.647467680989816
Mg 5.310034256980774 3.5082848904475417 8.706262912823757
Mg 8.282079977362411 8.048276006389191 7.926574970607211
Mg 7.700865135612822 5.298896920303156 9.14967646871207
Mg 4.905619778984946 6.017368835882514 10.142668036923451
Mg 6.834449324633132 8.174567379046135 10.530180908437583
