26
Energy = -22.02553737 eV
Mg 12.360601807307747 11.444599082539236 8.386790452238138
Mg 7.359253357808464 9.743751123265673 5.534516139330194
Mg 10.57514864152787 6.678432281964094 7.759564421558921
Mg 8.076595265963968 7.19401635288203 9.633848877601803
Mg 12.562696278110163 11.177932874020845 11.252071607996925
Mg 9.555185575772624 9.466891831061968 11.079319413591389
Mg 6.43148162501548 9.401577183726339 8.396101621881543
Mg 12.157820676974326 8.645952104484552 12.729827913853017
Mg 9.829724087224369 8.030027259098302 4.994965433488834
Mg 10.541895658176443 13.558874097551188 7.17640642762768
Mg 8.113692418305474 7.265324912571544 12.79407418267679
Mg 12.388557226903485 8.623675361758373 9.48388423990589
Mg 10.307971163355448 11.532297433247978 13.239593805488559
Mg 12.191340714789028 9.143856796166945 6.385162779289824
Mg 9.84952050261701 8.996967411325178 14.66338991228422
Mg 10.79494954886032 6.461163472468933 10.852511640367899
Mg 7.8967705063809985 12.077143338073446 7.587933635344618
Mg 7.668338072098184 7.0337397518421145 6.7085449840090785
Mg 12.783236275412873 12.14184618334435 5.5176773151288065
Mg 9.615423656146673 9.632896937218717 8.105979307121718
Mg 7.5184741065340805 10.337424341254591 13.369370309877484
Mg 10.772232930141566 6.2551939685468705 13.821891359756332
Mg 7.078074643125478 11.537866618748904 10.52561636591867
Mg 9.938759670441815 12.405390793773593 10.007548069454057
Mg 6.00739623244449 8.789790095996 11.290838066593837
Mg 9.958506064100606 11.136956602453113 5.379227151866916
