26
Energy = -22.14711402 eV
Mg 8.327888156108962 8.516910504583388 4.7218123841011455
Mg 4.3694643579794645 9.192092696071885 10.70611445312901
Mg 9.192227634136183 7.583615950237857 7.569039963235159
Mg 10.32772542984992 4.680832800521346 3.840097692189837
Mg 11.091191374997946 7.225357572160548 5.154684625267635
Mg 5.038338741777869 4.41274895425599 5.208352250757152
Mg 10.939761199097479 4.896584638114984 6.972938704484814
Mg 7.279214816579746 5.284332197786147 8.613846919991646
Mg 5.666064149598687 7.256728166815608 6.7459972196024225
Mg 2.8691889127679198 8.742536723882179 5.768969726672368
Mg 6.9166369784327255 8.312512379595397 9.420885953747954
Mg 7.975189138794785 5.50376994141578 5.634644303038264
Mg 4.533394478629566 6.324423919505909 9.653157358311002
Mg 2.979649712546044 6.235171492201062 3.9824034931173133
Mg 5.627115578675919 9.877225880586039 4.9055299510856925
Mg 7.673733587189439 3.110771159202727 3.694898086236024
Mg 3.657357961948537 8.910568679278038 2.871654390885641
Mg 7.715155533760846 10.138765282502126 7.1465505154288005
Mg 5.9512402014469385 6.945781435268505 3.686348750275548
Mg 2.809855973774677 5.828785977442376 6.957374065030524
Mg 4.660201875046586 3.739329087525687 8.141371791274587
Mg 9.414958460728316 2.9958628737207142 8.63923283747831
Mg 4.737242127658308 10.09071196464588 7.829116962511401
Mg 7.0091113588282195 2.5855377329828833 6.721869732357256
Mg 9.784934529738976 2.3499726697150165 5.7344504811523365
Mg 2.4437642682871874 8.249675858363478 8.669263927019706
