20
Energy = -15.86892043 eV
Mg 1.827874104174563 4.07222742946121 8.127717652231743
Mg 2.9725552472116217 1.3104659342321434 0.010347658196008993
Mg 5.91294707527522 1.277863888601533 0.8078106009801835
Mg 8.27284597165218 2.0426704776520923 0.9782357432681331
Mg 1.893427210235187 5.408214813212568 2.5005123527245665
Mg 4.466813073948875 3.9391252290544863 1.2118969388668646
Mg 4.027260627349462 7.87861603610513 2.3890169472932494
Mg 7.550680524829417 4.978554868948449 1.1412310300307589
Mg 1.1661793372155949 7.652989488809144 1.4341436555573495
Mg 2.4255692345866207 2.2846534225712083 3.000427780813479
Mg 1.6273437747278274 7.208661187953217 4.348581247155024
Mg 7.945176149413184 3.563863488415001 3.7360795236835926
Mg 4.45424961158505 5.1033538184355915 4.037715265524652
Mg 5.5692666305459655 2.29709856959479 3.6255711439074356
Mg 7.6582312603679865 0.6061212556674289 3.578818220439955
Mg 6.582531196092049 7.208661187953217 4.819084950568839
Mg 1.7189713702505756 4.7940072789407315 5.4605147892448045
Mg 3.9269532463921575 0.38820956989656097 5.2902701952659665
Mg 4.040347032118094 3.1448280321362203 6.255994523781215
Mg 1.1758439542272514 1.731788589424616 5.814912282398227
