22
Energy = -17.58255994 eV
Mg 12.42530004413892 11.750615281524459 6.852074212708187
Mg 6.990664034325157 6.005721297701564 6.858107296883726
Mg 10.065301141397894 6.985070050520654 6.7283766709500235
Mg 12.367212074937141 8.85650256203832 7.868908174659574
Mg 9.376825319097293 9.373062029905931 8.817250823245292
Mg 6.793659863277385 11.129695855583957 8.142423904039639
Mg 8.420175153149767 12.540321391995086 10.295729766455922
Mg 5.513654256798351 7.451232930000899 11.787480658923393
Mg 7.283951381210193 5.004026136811797 11.929909311275406
Mg 7.55857552945593 8.813516610169051 6.12774536768611
Mg 7.846339549233462 11.59785456908015 5.234528803193347
Mg 11.525849175163295 6.475213019257443 9.376234142163437
Mg 10.350844900615751 9.849608309247854 5.745816752032043
Mg 9.754659805608913 10.583846629795985 12.161951137508092
Mg 9.571089757342353 12.42852949834781 7.4546813367710065
Mg 8.963290822735193 7.74468026411946 11.37505548362986
Mg 5.460290870336366 5.305840603136112 9.608963940059038
Mg 11.924275784742742 8.878369391266705 10.993394145350694
Mg 11.408589016744113 11.55429726960917 9.69332499872603
Mg 8.71780135525846 5.730372118187437 9.21121329783271
Mg 6.929128273584376 10.14321024312704 11.14624334004357
Mg 6.615582732317031 8.157591476118357 8.958559490614435
