22
Energy = -17.82568972 eV
Mg 5.013093272248825 6.372069107887256 3.287479391706933
Mg 7.64379460676713 4.610393177148994 3.215170029473395
Mg 7.882383550762822 7.503623691333561 3.5210282131049935
Mg 2.5870374040105926 8.067453389521052 4.286983664371517
Mg 5.366728649151228 9.222034900820514 4.082669046565584
Mg 9.412299620599976 5.6223727871794535 5.490826168969582
Mg 5.049898248174429 3.593122764898601 4.32659896054256
Mg 8.290630988753671 10.45965420018577 3.655447265770834
Mg 7.81528756434978 2.988423578977432 5.635765763292096
Mg 6.420952641930407 6.512249507513215 6.080863659710841
Mg 10.02382467174046 8.62431355172708 5.407487610152001
Mg 7.223238349858722 9.571221037996477 6.374914493926748
Mg 3.4061956172457486 5.737419046431548 5.934961470042832
Mg 4.092313717682899 8.617561697360987 6.841426697549819
Mg 5.291630208627281 3.7337237317230483 7.265118133154561
Mg 8.843809895493392 7.587356240436466 8.015402368173548
Mg 7.951589010267544 4.723177076981164 8.13679663300355
Mg 4.657017824398741 6.255604332857043 8.755163619798806
Mg 6.211927035752706 8.764358361880868 9.025255441675402
Mg 5.47150466162387 3.5747337846952476 10.347331672226565
Mg 7.291165518830501 6.4672592310996935 10.516342558802288
Mg 7.05367694173017 4.39187480134606 12.796967137986922
