22
Energy = -17.32260894 eV
Mg 9.45254640040504 12.504812232687867 7.2878441046926445
Mg 9.185523597690695 9.814510489873296 5.37985496874488
Mg 10.907036322822552 9.972657406791196 7.961751351305971
Mg 12.50675798127879 9.92137103565798 10.673071998294063
Mg 11.424513707766097 7.2968301761358445 9.106563438523333
Mg 11.209193410987266 7.580579464457695 6.0753097636588045
Mg 10.613141193745488 12.153221041111863 10.039457933908068
Mg 6.860577508120677 11.414259925685094 6.6515214536339355
Mg 8.754312549841051 6.8798312542248725 4.835321998453455
Mg 6.203931388573282 8.629810149775556 5.979222144961888
Mg 8.305746859851652 8.37073559675029 8.195803445989519
Mg 9.461410011811907 5.514171602304694 7.6730437502514155
Mg 7.649507915028274 11.315478011773436 9.562362089136814
Mg 9.411082561828271 9.417235241602755 10.922769594814461
Mg 6.631455978392098 5.777976435482773 6.663838949925581
Mg 5.026918056098009 10.248476212388118 8.682853942980492
Mg 11.446895285871811 7.555620989292044 12.193667890771744
Mg 6.4896673752105665 8.405609359739262 10.702745571579072
Mg 9.101025909788214 6.401341526587453 10.76516236265301
Mg 4.658379586342393 7.373903659676031 8.400926099127782
Mg 6.635845482307951 5.439807443788954 9.651753955609342
Mg 4.1433148638032025 4.35874670096815 8.025262027829665
