28
Energy = -24.44822149 eV
Mg 7.8860947731722435 10.3707920297557 10.392075615466938
Mg 5.29957472333499 8.893528115072705 11.049524818562467
Mg 5.795349885874536 9.909859169506136 8.290410600944336
Mg 7.4067105896628025 7.2846633445541435 9.697764210524243
Mg 8.468729239901966 11.246326769741568 7.483650891151608
Mg 5.184244405921024 5.828857342393497 11.367241673890906
Mg 4.103777725547824 7.225661293162888 8.807430194603507
Mg 4.848992822469067 8.203324172993444 5.945796143943457
Mg 6.139780592060007 10.988409987145548 5.561291095068987
Mg 8.19655224350489 8.233367297584413 6.775913962766889
Mg 10.944449188996728 10.05025789564049 6.298052279309195
Mg 6.965912668998491 4.030567649105423 9.800771943059582
Mg 6.465992823005847 5.719325074929385 7.091088188214225
Mg 3.9410326759431427 4.226139510628478 9.219265378383964
Mg 3.335897490930573 5.373168281515078 6.4873079858871225
Mg 5.893319439715788 9.187489207679702 3.223627996158593
Mg 9.538881846790977 5.559344383762542 8.646599727192564
Mg 8.656745154385804 10.222806838649948 4.219683202880177
Mg 10.147035177246119 8.898705674527932 9.093253643800097
Mg 5.386169789233271 2.72970655924737 7.103844479785368
Mg 4.671899068581637 6.078600722295897 3.790853017215381
Mg 7.571269122045022 6.920466748734957 4.119163850263619
Mg 8.358209191980286 3.0891669574635774 7.309910560549777
Mg 10.505497243179969 7.912103627947639 4.292648430309087
Mg 11.497031253042557 7.207394143918503 7.037315619133187
Mg 4.039072556151352 3.2734413061479346 4.4587655175544105
Mg 6.953611355404911 3.8379043717457773 4.6473358059841114
Mg 9.5827196738274 5.291581324267477 5.6520436772784794
