21
Energy = -16.47813759 eV
Mg 7.094385480201465 8.071986673408928 2.941792352756684
Mg 5.911674264227783 5.229635962391455 2.3981893819142255
Mg 8.808276369805103 5.606831036184979 3.3167214881540255
Mg 4.362755653871445 7.328137540566367 3.9287581766807502
Mg 8.975259439655357 8.24504271836889 5.299178599262039
Mg 6.106729849639219 9.302758661226772 5.600489959942667
Mg 6.777536564020106 5.935865146527547 5.487102488163346
Mg 4.223839041984149 4.52861668969997 5.211360658251695
Mg 9.78456714664877 5.464520182515208 6.18620278556975
Mg 4.062096252142287 7.296180301439305 6.8425205312509645
Mg 10.484543002247383 8.008230019440383 7.784955521430326
Mg 7.211394537170278 7.326672503192015 7.9756009488473865
Mg 5.049066172716993 9.856679689430123 8.38683258111911
Mg 8.129107209054057 10.127048216735814 8.08172442107048
Mg 4.775997554717747 4.66987913665524 8.218034798016514
Mg 9.783851933283286 5.333673477774687 9.09966444887012
Mg 7.624525293308677 3.856083629987174 7.702783010900105
Mg 4.246226182389666 7.204193822804815 9.755546027913853
Mg 9.157339411165367 8.041801826969369 10.506020892831096
Mg 6.483707953042678 8.869554922745017 10.875581085548278
Mg 6.867724779637918 5.617211932866121 10.321543932436763
