28
Energy = -23.31364472 eV
Mg 2.0907738456248297 7.8425989755451795 7.151669023183838
Mg 7.393903164322806 8.933493028936674 5.8670125102612385
Mg 12.422364765738664 8.620926618357881 9.795192015736607
Mg 9.221767749097966 9.268348736735597 13.68598864635698
Mg 4.434200026066817 9.851394544953019 10.229194374888685
Mg 9.930189015666143 9.424372999536343 7.953529950517733
Mg 9.805764277575342 7.118832492346145 5.889045841651512
Mg 12.852153282828173 10.228887542573922 6.730636685787487
Mg 6.290607475066065 9.865647378609951 12.62787845595249
Mg 6.453895365119509 12.015689232897582 10.583229966704563
Mg 7.48832758515304 7.157122251637997 13.032238780438272
Mg 8.678507097474224 11.80544347850089 12.462129115186196
Mg 10.952665208295397 12.361496154608293 6.802464447911524
Mg 8.641703614034647 8.98241628060095 10.569892036143802
Mg 10.627378893710398 7.174029320250941 11.940882638535689
Mg 9.223855712380935 11.967998506646168 9.539356637690572
Mg 6.870583394305864 10.043464578139034 8.51977008852738
Mg 5.865212349382454 7.405503253526393 10.60727603463053
Mg 7.728757264857052 7.078162900204615 8.16457930058005
Mg 10.498258810981108 6.452486149723537 8.963282523341109
Mg 12.510831596651297 7.381777195938152 7.11924279525033
Mg 8.329824343365436 5.662516301334778 10.740814155033522
Mg 8.114459177935597 11.852229616204655 6.716751391858605
Mg 12.23985878117534 11.565234475796128 9.297313026565723
Mg 11.140962029823724 10.329713823833417 11.731787249286466
Mg 4.955721088322554 8.023543084474873 7.774788585596393
Mg 12.09069764435674 8.398212921798985 4.530212214607238
Mg 9.939433032594714 10.241921831652125 4.9833352040749395
