25
Energy = -20.40832205 eV
Mg 5.735765756268249 3.994671967199177 3.567116225537337
Mg 3.0635075655374693 2.4971961031657264 3.9755721377656057
Mg 5.762200186984496 7.15323696702046 3.491288130091382
Mg 8.264481875061936 8.693161058007792 3.3353868872923185
Mg 3.1725131947408927 5.565358115761381 3.8729383204845185
Mg 5.153962857067101 1.2598579290643028 5.466634361308307
Mg 8.32673774108344 5.69368686627888 4.102849248773803
Mg 7.198715593655046 3.5312776021835917 6.14482540926313
Mg 6.452347177322613 9.512180759801453 5.725788361513282
Mg 9.406890468023581 10.583352017727872 5.2916345629917005
Mg 10.264773424662552 7.697505012232822 5.329169756874465
Mg 3.754925261648917 7.9784464894616365 5.499795581188588
Mg 9.174883938967575 11.888783939518932 7.914687429721436
Mg 9.450259000721505 5.357017043569326 6.971981971435305
Mg 6.479419354317246 6.565491834468356 6.650440223343927
Mg 4.19880595726346 9.672741647090486 7.890875846241873
Mg 4.185080459837687 4.267319681419372 6.468284148433039
Mg 6.734001198176363 10.798060185663212 9.035634164842213
Mg 3.5270560387814074 6.787972962606875 8.215942108400524
Mg 5.4985943239994315 1.9464024908492805 8.36787655577594
Mg 8.648467723493384 8.650724346304049 7.7496624327601875
Mg 8.275560985885214 6.2344118571416125 9.563385660016898
Mg 8.22042976775928 3.3239003559550366 8.98869816291655
Mg 5.620865872680197 4.874235046140929 9.214798080264654
Mg 5.936060877377779 7.979314322685267 9.671040834080848
