23
Energy = -18.47286502 eV
Mg 5.02509648221321 10.641300204991195 2.2401780772607744
Mg 4.910326471507163 7.6702442271478235 2.303054523115384
Mg 4.9923251332929075 4.713072089464372 3.08664200890219
Mg 7.639543833533547 9.31689745523086 2.49859289491017
Mg 7.240390549281813 6.545527368271837 4.084680112826522
Mg 9.00072454937479 8.76396836535119 5.24384309360549
Mg 3.98318744677885 6.6428336259833936 5.244768465919421
Mg 7.1238955181476555 3.7449855953567552 5.132867948440078
Mg 9.545188518704924 5.789959528994022 6.052980257008645
Mg 4.062399756438241 3.681505777955091 5.657134104811564
Mg 5.74939481194681 9.115673153925371 4.991289078398213
Mg 6.612741860822916 6.275456700328665 7.068199327283253
Mg 9.14964829498839 3.044069699767893 7.252707269080625
Mg 5.930242388785899 3.1435375330346775 7.849823580465379
Mg 3.629528634560448 5.468037544885249 8.084091812291264
Mg 9.575979949287277 8.089972058508124 8.026561815478452
Mg 7.182296592317838 9.80621519339023 7.510619613222904
Mg 8.933440327677651 5.477707089267014 9.16066487021192
Mg 4.439592309611438 8.46233627517989 7.7375286556875675
Mg 3.9183037743246585 7.375128066660389 10.42345877919977
Mg 7.968079080767004 2.8114871752368025 9.970643906907311
Mg 6.93682628996548 7.849995475569062 9.724249923401853
Mg 5.950847425670716 5.07008979550018 10.155419881569674
