21
Energy = -15.57168586 eV
Mg 7.732425219153967 5.530749737997796 5.187606928221744
Mg 8.013046876352513 6.824850839882274 10.355827246231895
Mg 6.398006810864353 8.30995028847801 12.527708193853352
Mg 7.902693175748661 12.562978861619483 11.58110674834512
Mg 7.26837590955009 4.493124411527691 8.302689460896383
Mg 9.032108173484866 8.248030864600986 5.60485510186205
Mg 5.235884031285845 11.158699212467882 11.846188405813779
Mg 6.888167405862297 7.417941593961771 7.472097388845162
Mg 7.543459155523888 10.630042591571648 13.880329438172351
Mg 10.919230690102077 5.885359147034871 5.159655061066607
Mg 9.709910718772315 8.786296606607655 8.706351468407844
Mg 11.848443519649868 8.832323015675378 4.406783990583567
Mg 7.472700635225936 10.411517902596735 7.025878432455918
Mg 6.397739230413927 9.39275124081639 9.67450101042096
Mg 6.016488264965665 12.337425769237717 9.194438834002115
Mg 10.011174883380244 5.888947802608177 8.171422894522689
Mg 9.452896170271437 3.437407637824672 6.437719830295617
Mg 9.151155365776212 9.611963963245381 11.547340771250111
Mg 10.593682767443877 10.734169812928428 6.489280851759895
Mg 12.114416472423075 7.76736277261411 7.170247913277376
Mg 9.304637522102551 11.736212415531154 9.168176011807715
