26
Energy = -21.96231637 eV
Mg 3.4125364582458317 5.802732893880708 3.5938897241893195
Mg 5.154062657379827 3.3189206699833624 3.3139786497894046
Mg 3.377041237836254 8.971470681498449 7.647419818130331
Mg 5.810607202808179 5.542338181114737 5.8352520494290685
Mg 7.503266012040009 8.844725176418828 3.290487659217094
Mg 6.454091094092947 6.065898396947418 2.7852482225282746
Mg 4.081424042807395 3.9433930193192896 8.208315253264535
Mg 6.212745586618803 2.6425422856793865 6.313352272317152
Mg 7.690643987096283 7.300558293544421 10.598620689738322
Mg 8.010215207766882 3.854626325545136 4.0574866159064635
Mg 9.735134229428386 5.1605000353887736 9.574836494048435
Mg 4.8421014395269335 6.728905918883597 8.996010208037932
Mg 10.742984695183653 7.69499256962075 10.465864890458814
Mg 6.875313068267092 4.440938872753169 9.004012004768272
Mg 10.67890286889508 7.260968651534502 7.444291674046769
Mg 2.856294152499886 6.183583200952645 6.663936954528598
Mg 2.5063292243482644 8.458784925235491 4.741716712173749
Mg 3.1579136588781087 3.3667942471242625 5.417923323037904
Mg 4.5542523714069985 8.387633096441576 2.602486043204809
Mg 7.688170488805841 7.032035666781503 7.6158838371421265
Mg 6.21204604777791 9.439619042951724 8.69910274683038
Mg 9.191631892060645 9.622749659236794 8.987298452895418
Mg 8.898107071085422 6.636463795461525 4.684865744583026
Mg 8.699955990760259 9.401871887689184 6.052855981168841
Mg 9.045067270254286 4.406293988776207 6.760403266128904
Mg 5.610921404201845 8.492417877308831 5.646220072508933
