20
Energy = -15.67862549 eV
Mg 8.721336750081894 12.66204287353999 9.46810010392044
Mg 10.758313720864018 10.70792874766375 10.188279665069109
Mg 10.023569783197035 11.133771969366395 7.140500665211307
Mg 7.652911263145415 12.841278521050825 6.5719166352798
Mg 6.057787919027585 11.611152530112284 8.7732491454544
Mg 7.561484721941394 10.38273781339762 11.181425829680409
Mg 12.52856586186955 8.497419131515642 10.915746649357905
Mg 8.787149005295745 8.784962070762372 8.736944520933744
Mg 9.842952467972593 8.81831272931492 12.45620414790277
Mg 12.863306964509803 6.188635720688722 8.835506021762086
Mg 11.77800291553171 8.820733560032021 7.849997755069836
Mg 10.25091426931672 6.639862716535431 10.369654771046038
Mg 7.052922973728376 9.903219522524248 6.398438803272828
Mg 5.80080705900039 8.672944738145015 8.971137088196716
Mg 9.614515760228471 8.61101211945188 5.491121325415056
Mg 7.326987320686305 7.278964428904437 11.319664418946472
Mg 10.23064767834784 6.201340528461558 7.091815026895182
Mg 7.170406897802496 6.882989269003971 6.523153280498556
Mg 5.170908622798242 5.881697639350338 9.329605583159971
Mg 7.9936009110848465 5.425680847768877 8.926569082890797
