24
Energy = -19.8559108 eV
Mg 6.636563431808842 6.238574473912605 6.063583736810233
Mg 6.4013918306663635 9.075245445570237 7.351843940920034
Mg 8.091344883432283 3.973809212643552 7.511647177932443
Mg 3.720523604521384 4.968541643550406 6.746514371804616
Mg 5.829123631738407 3.070542970761535 5.65257411713789
Mg 8.452832442836428 6.788871903813386 8.629906200678803
Mg 6.413185497138576 6.0589689601188965 2.898095158457065
Mg 10.225773614681486 5.844286026351148 6.379025176924761
Mg 4.273475130049703 9.933424221616804 5.248600829411935
Mg 3.9849676301979597 7.023453988536975 4.632539809202072
Mg 5.352881987493452 3.296040886347413 8.637330794882248
Mg 9.302086621028046 7.097412192873023 3.912451832187708
Mg 7.4331733103841975 7.384473400146354 11.571280499774828
Mg 5.43248806888463 6.309646050069182 9.066202991522923
Mg 3.548322266183998 8.00724410743317 7.505007788829721
Mg 8.397829364222638 9.65974963343818 9.736110918381948
Mg 9.27025114980479 8.714644050589 6.446810483761347
Mg 6.90462584650293 8.809817643767541 4.391519323161111
Mg 3.9244235508038474 4.226164121695807 3.576716966442271
Mg 7.4490114376636 4.5024340536185425 10.644996309107386
Mg 5.407146562987273 9.189282388006236 10.242447579697135
Mg 8.473708723170034 4.228605449390102 4.481689278097791
Mg 4.661449984560397 8.554659033333726 2.09873768560283
Mg 6.43463675174244 3.065325464919088 2.595584351773811
