20
Energy = -16.15386509 eV
Mg 6.861734611105183 5.787653093807057 3.692370732977599
Mg 6.408782083910709 8.929469182602649 4.120106878653851
Mg 4.098229415681656 7.037777182961416 3.3233837809506452
Mg 9.392705495047434 4.995717899808248 5.51358630735375
Mg 7.054380083508827 2.934143006733998 4.734692607361557
Mg 9.316555988739214 7.6005708269969245 3.8549448587045005
Mg 3.6504435491361247 9.521130157408765 5.362732940676447
Mg 4.313828202961017 4.336446691567848 5.037286874131511
Mg 4.892592462669518 6.994361583033632 6.172743439765523
Mg 6.8185834888715355 4.880869766352713 6.947382485825669
Mg 7.778502399324157 7.620190772822945 6.380903320463307
Mg 10.677614592290276 7.492262000154 6.784305716850174
Mg 3.46388042173621 8.34409473944813 8.380084301187402
Mg 5.16495195430876 2.494326574104333 7.349117829314885
Mg 6.002660939390852 9.763598055117427 7.339016872150364
Mg 8.97874899428006 5.810447974138177 8.725076500782896
Mg 6.142396483418401 7.207304363575972 9.306693070265492
Mg 6.4160496840874695 4.207884428355082 9.800286794920222
Mg 3.9135532443914145 5.159799863836499 8.259898023320932
Mg 8.653612841484692 8.88175877351713 8.915193600686225
