27
Energy = -23.22334576 eV
Mg 7.727812327001601 12.79939553762901 8.24833776030143
Mg 9.591471479982506 12.788064799197715 5.779263085557434
Mg 6.811159559193973 11.947733129569023 5.564762363617955
Mg 10.602886393049845 11.946059396344824 8.521699809100816
Mg 7.820903682916046 10.997469083089339 10.588141440712842
Mg 11.217939112902483 10.513539225562047 11.015187219906341
Mg 9.33750862695485 10.393429544868695 13.31804237871274
Mg 5.67157564630298 10.412401042715977 8.036396721907655
Mg 8.952313339770683 9.959291458707227 4.42485884420298
Mg 11.527886950904964 10.618071864672713 5.911108834754751
Mg 5.841623458206279 9.244511176759472 5.13460037994321
Mg 11.69458249458437 8.98888211227625 8.46119947065298
Mg 11.974164263192476 8.987085812301176 13.476050523734997
Mg 9.200551230702828 8.282221725924694 10.283380312523363
Mg 7.879589281945979 7.116014731768451 4.9700801547148545
Mg 9.5924729690186 7.18875124383644 13.181670657332727
Mg 5.793468507774986 7.2191160591445165 7.232274120010447
Mg 10.708315854587097 7.722215771141352 5.892003836531667
Mg 12.004865533038718 7.204587735568014 11.07288497375362
Mg 6.94496364948331 8.866346833754934 12.799969030836529
Mg 6.167920867201595 8.22414061253066 10.000902754735218
Mg 8.601370618746703 9.597724669892994 7.565108915810179
Mg 8.741258749452282 6.4974608586254154 7.834464336295708
Mg 11.630833510743845 5.987425149561565 8.34333455107458
Mg 7.060640029518453 5.959326236951417 12.189166140854704
Mg 9.602844457024851 5.181540264129263 10.596093930402887
Mg 6.637531740565149 5.155392589947878 9.448408608474821
