24
Energy = -19.85665269 eV
Mg 6.2166700279781955 11.085187552401724 9.157872392091765
Mg 9.377496883741527 3.5740042897475957 3.1392397825728198
Mg 5.39284082651781 8.164209024831086 9.97481307440737
Mg 10.086847354407784 6.548594373710362 8.126703438507926
Mg 6.335063134228009 3.887983500211291 7.745952331698157
Mg 6.933096485181159 10.331204595295183 6.325523338525222
Mg 8.127207783024964 2.2941939623612875 5.644584636562392
Mg 4.609132940591381 6.9914171427897065 2.814857092492255
Mg 8.512469753346386 5.486661279375257 5.567848626296785
Mg 5.539814955917595 4.87049446286245 4.919233948476573
Mg 9.259044675622686 8.45105984418336 6.077205372867429
Mg 3.517356681458023 7.04308784218573 5.668315197720645
Mg 7.590619891700865 5.928969523703941 9.652019052351081
Mg 7.1115663438379455 7.834391766188267 4.137357399369635
Mg 3.472712411887525 4.526580773181333 7.26504862413691
Mg 6.217441222658554 7.064269326057594 7.108644295956686
Mg 2.8799930122649338 7.152297711968858 8.687836156302572
Mg 7.191092375070166 5.3814670963471025 2.1749201668275653
Mg 4.235895400598604 9.53757317888324 7.488175676846194
Mg 4.687958120289476 9.558440960845465 4.484947812615986
Mg 9.269509430027577 3.7199710898188276 8.050147870204109
Mg 8.180410622454371 8.862579049345237 8.834781959480257
Mg 6.618226264916754 2.574835481090531 3.0483689039774373
Mg 4.674246645825665 5.167239416161896 9.94231609325893
