25
Energy = -20.55063303 eV
Mg 2.9873032844082936 8.95073328423613 11.42239006943137
Mg 3.9171218530822673 8.309203741264893 2.5109320882236252
Mg 6.7955832603740385 7.635392964172288 2.855069706519095
Mg 4.748857769616641 5.452531433156673 2.4776964232494656
Mg 5.143756382717522 9.261714865987715 5.154659593285208
Mg 8.20734681546581 8.656977525921059 5.58336260861155
Mg 9.126567056662589 6.150869577434088 4.156820897442157
Mg 6.143232368554743 6.325005648290834 5.589542716767139
Mg 7.047570190081032 3.870378760311258 3.9805165543092915
Mg 3.1248697715328246 6.758523719186761 4.941623686538336
Mg 4.155921731756372 3.8720811224846226 4.9413387636709984
Mg 9.014289647184723 4.099306836584866 6.269418429392856
Mg 6.307872146747383 3.292988290175277 7.042618483734286
Mg 10.311813535955894 6.753204612870251 6.794424961634267
Mg 4.042254033372662 5.294797918774462 7.647291553265873
Mg 7.494645605827327 6.269177669054732 8.088414740755649
Mg 3.5736776695838914 8.264104692404894 7.55683826895262
Mg 8.564141231187108 3.6889872068050087 9.272390979698912
Mg 6.368902574907797 9.18968392946966 7.950553579960348
Mg 9.41242535301427 9.139084811542135 8.297337003763092
Mg 5.53395332406498 3.9305991798402338 9.863538277650585
Mg 10.02099866563839 6.430657904352705 9.907925201875813
Mg 5.140761880397872 7.020282484545593 9.864469341337772
Mg 7.538079502349026 5.512510629769604 11.42239006943137
Mg 7.778054345513334 8.371201191361397 10.648870960057112
