25
Energy = -20.12559645 eV
Mg 10.117374171197975 10.363963025733488 10.550793786661783
Mg 5.638706389409428 4.31894951174126 8.633062334943794
Mg 5.468628522385148 6.495058998359417 10.728643967226692
Mg 14.087196723317108 12.00153859482296 9.046030480267211
Mg 7.490731718126479 7.057483301892011 8.473245024021626
Mg 5.324800520185626 9.328318352303576 9.439917963055162
Mg 4.213294911669765 6.907607945037577 7.998509442094166
Mg 11.468193064776774 8.097014563622244 7.257256090944336
Mg 7.795944859951043 8.473366984925896 11.170170597880563
Mg 11.543544651725124 11.122139420996 7.610836595377091
Mg 9.086904440368173 12.746021170194979 8.272043352717159
Mg 12.83249008681101 9.358813599991938 9.833232687039299
Mg 10.428564896335352 7.376972248380373 10.128936391544217
Mg 6.097569640096347 8.691793793796613 6.3579072506533345
Mg 6.058197447452572 5.667823902018121 5.931601223291578
Mg 9.671395213843683 13.247375124899566 11.243930795368549
Mg 11.747897695392833 13.84348080604002 9.152588401158932
Mg 12.490904136467421 12.03262633979385 11.511447829324966
Mg 8.821652961476298 9.631410775435441 7.758995826872373
Mg 9.027547810417019 6.907986262599659 5.9288429547571155
Mg 8.213258023080684 4.088814213327972 7.206491172255523
Mg 8.413830686867772 4.970995204601511 10.246960507413498
Mg 6.3418029292614175 11.446381110702681 7.477345639188501
Mg 10.763587694838117 5.359746254769628 8.060808139236752
Mg 7.2738832385017105 11.351595023902291 10.412899380707618
