29
Energy = -24.80609388 eV
Mg 8.342235487850168 14.339251947772578 5.979369029480365
Mg 4.393914491882265 8.04925543547568 8.596062549150277
Mg 6.4627236553362195 13.557654732861728 8.15330291713033
Mg 5.83472398517783 5.84738644758324 6.979505335193079
Mg 8.23407945007123 4.563054534730041 7.92856938817262
Mg 9.8300326714172 6.75051333968894 9.454204128519493
Mg 5.72335418762099 8.802369825691093 5.904704462748008
Mg 6.103003445807323 5.8314919304212935 10.057829749380776
Mg 8.780432345564831 4.527308471556883 11.157234872069077
Mg 8.208432732195007 10.85237014434747 7.991896207696616
Mg 5.129377238248773 10.830890163238527 8.402530609363748
Mg 7.918675642666205 7.232093822626017 12.074853000123532
Mg 10.438366747514438 8.832557258067881 7.178275911861567
Mg 12.947965236427686 5.863957274137085 9.720396878736645
Mg 11.073987969040866 11.37311075169202 8.961856914549395
Mg 10.912534011914536 3.739198507151131 9.12965711649278
Mg 9.392200084336325 13.804063692704345 8.754504196681276
Mg 11.741864298398554 4.222055376258529 11.94472633694654
Mg 11.198544308644253 5.805647641228454 6.957079496280155
Mg 8.500970233520528 6.781056490845271 5.781836143636999
Mg 6.609453982093261 11.822102062157208 5.659502393928166
Mg 12.153962390217258 8.720606262601613 9.788831069288854
Mg 7.355438275346477 12.052322774925893 10.605382549680296
Mg 9.23120907937651 9.557778314797682 10.687825010875034
Mg 7.477653533292091 8.066082579996863 8.375547457735452
Mg 11.028407224073542 7.073800074593752 12.176088561619988
Mg 8.52192068090346 9.62629771551536 4.9820185003318445
Mg 10.175940447105512 12.032868126628687 6.063033834889121
Mg 6.101649535723529 9.222388582407152 10.858546856342528
