27
Energy = -23.04415726 eV
Mg 5.658064082279877 5.058404772844602 8.609657366729431
Mg 2.819617195306129 3.863212075117371 8.325833304801911
Mg 5.345683736674582 2.51414546903253 6.947175681819367
Mg 8.189545153957683 3.336338051476268 7.8654557244345495
Mg 8.27673109880909 6.522649340441469 8.154156092572874
Mg 5.51295315040828 8.308122189726605 8.633673943435248
Mg 2.6832602949379547 6.996881083008152 8.053710735032967
Mg 0.9621626270756126 5.121685067396133 6.327406840580269
Mg 4.959012056900149 3.1189402365086587 3.9667044987631925
Mg 7.752136287803603 2.1110262007554517 4.757092420975109
Mg 8.404161215323391 9.550004561713001 7.552667109264608
Mg 3.549996169380869 9.503302397244967 6.62028315880024
Mg 2.4153967691375486 7.526530673958862 4.70473589548833
Mg 4.193701766036796 5.343302672201897 6.056394990503286
Mg 6.314015007584433 7.71819447886329 5.916345864861573
Mg 7.188091317660942 4.935406528512196 5.42195729475799
Mg 4.978675540778144 6.29362950604424 3.4039415963462196
Mg 2.294346435303893 4.672054599314915 3.6846783770377978
Mg 7.960107239092756 7.194798902429921 3.3997238245066477
Mg 9.926729304025223 4.671283916330578 4.212753956495506
Mg 10.409329157968434 2.279898420011669 5.990846980232107
Mg 10.680598000685416 4.959712080336345 7.207294855377665
Mg 9.84038609816267 7.4628230005820795 5.673961695218957
Mg 6.092155219431944 11.11673994919731 6.326793893951601
Mg 4.91549810164729 9.37864564522053 3.897805228585801
Mg 8.236554254057024 9.962668064035118 4.599261811274658
Mg 2.4638621758374315 2.5023695739639424 5.712456314420348
