23
Energy = -18.06798475 eV
Mg 8.334017589285628 8.692004129152547 13.405874345326033
Mg 5.483669491985586 7.968685126582791 12.742138328157386
Mg 9.628651272267746 10.973061065339978 4.8289125696086685
Mg 6.72158698901426 11.540533416182644 9.33532712007546
Mg 6.983709511057174 11.53527338855676 6.316113047347914
Mg 9.315641888550825 10.787110274039877 7.996269740226317
Mg 5.82155886136285 6.621580604727171 9.801709283658148
Mg 8.589770024705425 7.714165687179115 7.417692373015799
Mg 7.494030763543878 8.895312323087357 4.937899406967328
Mg 7.678938308174759 6.010942129001094 12.26426404076156
Mg 7.8208313685109285 8.595419858946585 10.19632016909043
Mg 10.425082218775952 7.322778744990939 11.700160648853045
Mg 6.541028074236085 10.749126159208451 12.247620375575545
Mg 10.511765467129186 8.063746216165582 5.041930507484039
Mg 4.632768034357237 9.484382076872862 10.322942757674795
Mg 10.474816834450403 5.506207678685777 6.843700083823048
Mg 11.100789475648298 8.744832338600213 9.129143853345765
Mg 5.873444201749574 9.032148807198281 7.603926167582018
Mg 11.918596754221161 5.911965185882091 9.46524342701878
Mg 11.990270857735512 10.219617765719816 6.57782701862814
Mg 8.910006384697287 5.583724826966411 9.540027869164078
Mg 9.522699132928706 10.614401252186916 11.20110395634196
Mg 12.838024947294565 7.319803095615675 6.871077948999984
