22
Energy = -17.80342771 eV
Mg 5.760804723503721 12.705651155272095 9.316031196075336
Mg 5.733435884003243 9.960722312457607 10.617311814618468
Mg 6.004357837884218 10.246944585430297 7.656967181184724
Mg 10.041780582472448 6.920922923629123 7.921716155307806
Mg 7.864441055504782 12.628113666511018 7.235660796522071
Mg 9.072301765281003 9.465125465248212 6.747823966760619
Mg 7.54135688777357 7.836263596012283 9.221342889611782
Mg 12.090399357334606 9.281222454214634 7.471827299656347
Mg 7.523158540005437 12.172125243791792 11.809028097138386
Mg 12.680537773086877 6.626741707638322 9.360181165403826
Mg 9.850485478599783 6.556474348991495 11.035726620720084
Mg 8.228223798578068 9.07351083336856 12.054344752390039
Mg 8.67129001015012 10.663868851708 9.460163924945608
Mg 11.083054129642452 9.146242927273128 10.29492367622511
Mg 10.863636767571396 8.557355983756738 13.319688889205654
Mg 10.846935063638213 11.958163967187668 7.345699794211219
Mg 13.381211801971697 7.299967162988297 12.13771277231899
Mg 14.300893971944065 9.103043573780631 9.945843830204549
Mg 9.774619625879499 13.39190853347236 9.863869700897995
Mg 10.414991761639147 11.486272490599422 12.222031597418857
Mg 13.19013544781507 10.347360397443227 12.429844927492509
Mg 12.518862067371847 11.816608264854535 9.791203014496418
