22
Energy = -17.87808391 eV
Mg 5.494272068239813 4.000636198299944 4.0838218441762955
Mg 5.767250905490722 6.991786048212468 3.725400715706126
Mg 8.264713026590233 4.975666505723343 4.319754945171802
Mg 6.6201488695172195 9.741172109736823 5.196248645008006
Mg 8.67304250671951 8.01129808600014 3.4264497124470594
Mg 3.0812864827132187 5.6747572658399426 5.209644746472243
Mg 10.813726877231197 6.728361118787041 5.276749012656011
Mg 7.2780579087541275 2.8153335822609185 6.1664839185566915
Mg 3.783205540657306 8.659310231473777 5.240685714201824
Mg 10.070211581162193 9.576306361286292 5.704321079498915
Mg 7.869108903597316 7.332322543927044 6.23968503550172
Mg 5.629044561947916 5.722687189571047 6.711435308039089
Mg 4.180433146676777 3.12180818028596 6.894639794665709
Mg 2.4888839175309516 7.47747388067047 7.694094645912255
Mg 8.014246973705545 9.740027132765995 8.046247958674558
Mg 10.264173829448477 7.619954816543021 8.158498800599567
Mg 5.2436359045603735 8.624321851010965 7.901760568057404
Mg 9.075674200636053 4.836016383587577 7.3767869547619265
Mg 6.637453923991976 3.8573906904607624 8.95434849294431
Mg 1.9286172645570585 4.618296450391543 7.943179559202399
Mg 7.409264093913034 6.833539110435623 9.26137197747569
Mg 4.413547512358155 6.041534262728484 9.468390570269733
