28
Energy = -24.2522533 eV
Mg 8.996128714667085 6.299860957862427 2.2767268200559525
Mg 6.683497806956319 9.583511399480113 4.371041536292625
Mg 8.947998033486359 11.253583290125805 5.121425489777497
Mg 5.960411667633843 6.69678228462933 4.312402224683017
Mg 9.842642274154999 8.322138071630157 4.382040074745459
Mg 7.321596203609771 4.010565863162383 3.275689501985235
Mg 8.703497324709446 5.686070494599786 5.395331845268305
Mg 4.6916435686444755 8.71454614553488 6.499341699264394
Mg 9.330333189707396 11.848738792292743 8.008982631044296
Mg 6.502445019561468 11.065297392572418 7.211279740088234
Mg 3.30755513810528 6.216273572819151 5.807249107248102
Mg 4.586529696869428 3.9499078409441206 4.454374509723093
Mg 11.145190637585698 9.82997828706559 6.685418802524165
Mg 8.078070087013508 8.451084496244766 7.000926081714103
Mg 10.661132990957917 6.860248160723712 7.310761996571485
Mg 6.271092556502998 6.093205041519186 7.402562504540174
Mg 6.983410679516902 3.266350676146349 6.28297568120598
Mg 9.46946396678443 4.1569532426733025 7.884198604726251
Mg 9.9086812292655 9.175780715733318 9.495906910259052
Mg 5.858902336740195 8.733067081733768 9.296462772537817
Mg 4.120956539879306 3.847571316669837 7.5461763850811
Mg 3.5603869213348402 6.762917519719482 8.799573517449137
Mg 7.462256055789523 11.127932850643106 10.205497238374882
Mg 8.48179555546618 6.492523958401831 9.5206780958432
Mg 6.712953608747307 3.8250920577417626 9.400929774395253
Mg 7.92152932701094 8.576582563096169 11.687526787755628
Mg 5.935342009795372 6.258863173402939 11.152824075789233
Mg 3.88256681196886 4.324285060779139 10.51727481238664
