24
Energy = -20.12688579 eV
Mg 5.764748268701665 9.490410451164957 2.7925566419822885
Mg 5.921396690692865 4.438275438136098 3.5377241874129104
Mg 7.320560638342017 7.116773085043752 3.9289325652184295
Mg 3.479084818854398 9.667489288588001 4.809533050347967
Mg 8.297756729457044 4.691465483957591 5.417077540253633
Mg 4.304075620953374 6.988556528320994 3.6890734034325448
Mg 8.645462098971407 9.812863022161658 3.941579179974868
Mg 5.930924101620859 2.965388229269766 6.180615020297441
Mg 3.424463040439166 4.419565776041821 5.137886309855604
Mg 10.086912641920447 7.286397237793958 5.426831557737463
Mg 6.129582460783955 11.138956187299152 5.222749022225121
Mg 3.078825650403054 7.123840369876716 6.587084175067387
Mg 10.747164585539126 4.597871411917028 7.146947892492757
Mg 6.017894432658447 6.387466711059561 6.642881434502014
Mg 7.722516863805407 8.967021268315392 6.665397292548903
Mg 4.092805972825392 4.595900425959867 8.149263534190354
Mg 8.681683757753511 2.2668101434398507 7.238526498793786
Mg 4.867646533185424 9.557228458877399 7.486332984252291
Mg 8.707977562150857 6.546037295821622 8.163800177239214
Mg 6.322604191287183 2.6196082963364504 9.155266755853406
Mg 4.078567119342658 7.37256323898108 9.49898316295097
Mg 9.04835781280346 3.9088502203017916 9.671574892815594
Mg 6.816119708612815 8.497138537420351 9.535138081395157
Mg 6.493073131078594 5.523727326099192 9.954449071343179
