25
Energy = -20.45937572 eV
Mg 4.4748422209832155 5.07382546064537 2.2825614450330405
Mg 6.774123862149502 7.242254965506159 3.1222376878039664
Mg 2.161694329158789 5.379158148405943 4.442354035068073
Mg 9.558518480936453 6.092919421467087 2.8900105679909265
Mg 3.7574933607983647 7.82453829424814 3.7034723395928166
Mg 5.85476121387577 8.881161631172453 5.561153455977386
Mg 7.173555743662241 4.11466475587009 3.0695702760005843
Mg 8.922022356120694 8.969806990243544 5.152535909478077
Mg 9.588135817588501 3.7189069921892175 4.75692067390231
Mg 5.112179725300896 5.491040661195414 5.255981901741173
Mg 10.975868906233263 6.352115050553601 5.486155966991474
Mg 7.876498834710293 6.277013166070438 5.7563522100417845
Mg 6.941951904281413 3.3052488299673297 6.343545878401387
Mg 3.0377211295529847 7.420514272088481 6.667817689159858
Mg 5.8806743283358465 6.922860784139567 7.911353846831453
Mg 9.324799234845997 4.801896382358214 7.824195586189553
Mg 10.019815960349176 7.837739008525235 7.865311319312741
Mg 7.5568721818628095 9.571594796862119 8.003713005555687
Mg 4.163875957886102 4.47562544934332 7.965773659069191
Mg 4.489307830353875 9.779965068483962 8.127116066371753
Mg 6.840548141405414 3.8615076405974453 9.237750289845867
Mg 3.0969251548209766 7.640768291493412 9.708662656509103
Mg 8.06068762161875 6.8485581067138614 9.926994233779658
Mg 5.135711519465214 5.83175128715059 10.778127936238862
Mg 5.722670208562 8.785820569568173 10.661587387972284
