22
Energy = -17.59614887 eV
Mg 8.11499527299486 4.497010814217581 7.034757921282403
Mg 9.025257032096187 6.09598566585326 4.659109127934519
Mg 8.793481730946851 9.137008287110069 5.587192198475278
Mg 9.651471054546995 10.368481686367684 12.203816191782568
Mg 7.835003312930588 12.109388833290858 10.488576815372683
Mg 11.244817260934186 9.815216294890819 7.318050257798985
Mg 11.532985449560668 7.55502640583827 5.172771246173559
Mg 8.4470994787165 7.610277204590345 11.610848573632826
Mg 4.639340487640439 8.043437320415277 8.41574681539105
Mg 6.872667394885451 6.22018420533442 9.294102182112118
Mg 11.013268220018874 8.630950889920657 10.142042443587062
Mg 6.611598437543259 7.1165116586740975 6.36688332598319
Mg 8.790838337410353 11.674428358929463 7.401934380671472
Mg 7.966515543466942 9.286057046071944 9.200553373765203
Mg 9.519168998001204 7.052048195957786 7.976597555619125
Mg 5.404774969943741 7.892502441064035 11.331645045501984
Mg 6.706468992332198 10.253121872243307 12.596505434409977
Mg 10.735584679824123 11.595078074148095 9.664117676593305
Mg 12.581105986615198 7.098294411341553 7.951464804567046
Mg 6.117062703522439 10.116087973281681 6.852780582677193
Mg 5.261716074605121 10.60859569790698 9.959270133311763
Mg 11.142318790683829 4.826181973039335 6.376896351137231
