26
Energy = -21.70514599 eV
Mg 12.800240058826027 4.853406235803102 8.946480273412634
Mg 9.178118226783539 9.818688466773065 10.259028956850994
Mg 9.807541435420804 4.718753317535016 9.262029696658027
Mg 11.158102167434063 5.716794902812927 6.595327188179022
Mg 11.026282492883649 11.342800938458014 5.708098309643899
Mg 10.921860224048906 11.868684621494515 8.71650173102754
Mg 11.141092019856293 7.225239992257368 10.171049623183732
Mg 6.001646642659673 9.997065754257429 14.399769764934515
Mg 10.221701200250646 8.603974968848103 7.642461254919076
Mg 9.269788304472097 9.710143108130614 4.100669025822646
Mg 11.129408972889305 11.729502738684792 11.87919393518005
Mg 13.244305417126572 7.61839527500902 7.935699974182001
Mg 8.09864915310123 6.2808941827264935 7.41400534174132
Mg 8.361181695381589 10.89848350114756 7.2381639587636855
Mg 12.545608540459376 9.780097197813285 10.036334850603525
Mg 6.633098967058674 8.739566141274395 8.528987654422801
Mg 9.328028353658402 6.819861128208206 4.580902498330203
Mg 13.347544508256417 10.495218972725038 7.2759323109572795
Mg 8.064038677572958 7.7799045084333915 13.59336127191075
Mg 11.992076344128678 8.456040396364703 5.157626620363908
Mg 10.967785129308616 8.782190980756743 12.963217978598642
Mg 7.983258778536481 6.8205737112191525 10.534005065210154
Mg 6.427341796391627 9.345331871862895 11.521946210556598
Mg 8.661783529367032 10.815369837866589 13.270266958836194
Mg 10.064410051689531 5.8311905874013625 12.699576642502176
Mg 7.048892787584817 8.533074698388976 5.633417875838157
