23
Energy = -18.93249899 eV
Mg 6.96370332380487 3.5094498365614695 6.51011118078654
Mg 1.7777517727644794 5.782994927579796 4.343399582190734
Mg 8.726525964449234 5.913270091059309 7.307679873195938
Mg 4.534495442515746 8.016536442395246 8.056987362733256
Mg 7.708914380526437 4.014021137191321 9.450488452350989
Mg 8.898054050606403 6.09448994151166 11.95115417237005
Mg 10.66900607943811 5.155109438797665 9.793831534842555
Mg 6.093120302667715 6.440294802104217 5.772320256899452
Mg 6.056945098745052 8.634190188361305 3.6568187884926147
Mg 8.76865700860586 7.663333250345471 4.77240473378675
Mg 7.98703286671602 10.555781939132837 5.0883608688225435
Mg 7.5305065974732885 8.739593224956144 7.4839578122158645
Mg 4.514918745095095 6.093467883293275 3.043237453145247
Mg 3.4052518752020924 8.140565602431161 5.161292899366768
Mg 8.949869606691943 4.643734671730357 4.5185336872852195
Mg 6.327197512329386 3.6999329359429325 3.5107199308671126
Mg 7.480636994952521 6.223585881237498 2.4291678805237664
Mg 9.746458140460534 8.034638698927715 9.785814680886629
Mg 4.967311664038175 4.873158948183933 8.366063261888874
Mg 4.107224276365537 4.146813413059274 5.489267466405246
Mg 2.4159737540358157 6.065339688440575 7.215663654517981
Mg 6.750968129661781 6.8756438616478945 9.711880000783225
Mg 5.229702463102402 10.294279245356975 6.191070515890834
