28
Energy = -24.79040069 eV
Mg 10.038403195756835 6.914220408909434 3.6142265749681113
Mg 7.482587516993892 7.360993176050499 2.038186605025808
Mg 5.4044399923662745 6.327827695697496 4.054594148699095
Mg 5.520904151847965 9.341447605489522 3.0448647510228684
Mg 7.846273471684687 4.666091636755442 3.39989499332761
Mg 3.2146333101639177 8.226490677753626 4.873958787269945
Mg 10.738461066362095 8.867606741356697 5.847022934187901
Mg 2.8834122121913723 5.119868848890798 5.460778336074337
Mg 10.703250812171323 4.036772051473807 4.090662299421831
Mg 8.293214912520488 9.555473108112919 4.150417728953257
Mg 5.704139007999114 3.597538041236743 5.395920339968448
Mg 1.0019734112723317 7.26548816996467 6.483504937269322
Mg 10.814196811259437 5.912256138201452 6.512434543746265
Mg 7.910124665451307 6.871123230648036 5.868753888252456
Mg 8.563880770068831 3.648856488215663 6.177729540807948
Mg 5.847803016776705 9.065267627736175 6.091461032643597
Mg 9.98134455992239 8.103063727684729 8.622347041352725
Mg 5.330584832692225 6.030718659474688 7.379204060513414
Mg 2.3897605330773413 5.660393846922144 8.586916225229505
Mg 8.406560339083441 10.115753138304601 7.169731288923015
Mg 3.6029975331139608 3.1216729203458145 7.592426712520106
Mg 3.4462409111803938 8.546395543436649 7.98646680003169
Mg 6.491209514413519 3.249784300241113 8.515383536011592
Mg 8.494098849877808 5.553488429277097 8.510133451091358
Mg 6.838063889564634 8.230726517009508 8.974176638667618
Mg 4.26209877127952 7.150155183908124 10.445627849334057
Mg 4.209318742055986 4.024822711999456 10.38274557671202
Mg 6.678201632797274 5.533881808848491 10.82860781192047
