20
Energy = -16.34112755 eV
Mg 7.853896738733123 8.063093104719131 4.072455275338932
Mg 5.47920313671476 9.201860772881114 5.418926491820187
Mg 10.60574454226494 8.708932246457671 5.05799273907381
Mg 9.388859211240725 5.989448576998234 5.684261857619547
Mg 10.973199073395106 10.502437376681002 7.381470419840975
Mg 6.481236594008464 6.216673325724845 5.99257972903515
Mg 11.1039487184908 7.313360592391196 7.655122894909524
Mg 8.190476070663548 10.224100279069935 6.255623623319335
Mg 8.798956672435912 4.62738303277544 8.254503259966175
Mg 4.3531339957252655 7.66865734633611 7.645568089133934
Mg 5.8674817163284345 5.181973433949828 8.65064354215598
Mg 8.629170275170443 10.978688894144533 9.190388787816048
Mg 8.072148934871082 7.844639776046701 8.120705033029212
Mg 5.811278973248057 10.31512728302464 8.179375316908343
Mg 10.354650529546968 6.242628032465087 10.262257406999822
Mg 11.01283533331175 9.243731308604971 10.029790001832266
Mg 7.65025166843577 5.461300016773432 10.903800911537376
Mg 5.759755066853473 7.892776703719436 10.185244413992628
Mg 6.310375523281569 10.915978217280298 11.040237798526919
Mg 8.413006636462878 8.516819091139316 11.128661818326904
