22
Energy = -17.95741795 eV
Mg 8.526599699713696 7.4770729559561895 3.1829810673232166
Mg 4.050964866973889 5.395763743737834 4.507495295661437
Mg 6.992100319113196 9.36415317572197 4.891582729701683
Mg 5.601398582290921 7.469772968853369 2.9252888385630094
Mg 5.0798436143431225 2.4486425794640008 4.551960110057254
Mg 6.923192666802419 4.794394246648706 3.533357151661809
Mg 9.11452851137857 8.05712509214851 6.7477361976458115
Mg 9.438888313997854 5.533208706257197 5.11797547005828
Mg 4.182796625701795 8.353709023987788 5.459237730081877
Mg 6.545380960459795 6.382601240350086 6.262326011638474
Mg 5.766059334114304 1.4073119062679629 7.377885884859954
Mg 2.5505616670021944 6.331414929740351 7.010515367072167
Mg 4.5269998473730535 4.124444624409279 7.249969223716712
Mg 8.338739566210037 11.372330432429827 6.6772572292983465
Mg 7.662132322550043 3.459261774674864 6.278873682822175
Mg 3.2479638958637405 8.919954660229935 8.305599509613
Mg 9.54095280144584 5.218177182847338 8.088328718084968
Mg 6.231734061568496 9.031124895268297 7.829194411738953
Mg 4.941308570848599 6.508044640603867 9.072093650061595
Mg 8.905627790367786 10.053830989785668 9.28439589948298
Mg 6.922276508176241 4.1684028354457325 9.094418860545499
Mg 7.909949473702961 7.1292573951697795 9.551526960309191
