20
Energy = -14.6109445 eV
Mg 13.366471196776756 8.399299720026207 12.779669611226561
Mg 14.375148776999575 9.225640228367089 10.094102200892117
Mg 13.0688896908584 6.463451011267103 10.509906800129835
Mg 13.110804426352546 7.698217810100829 7.714355468747387
Mg 10.635371234008714 6.326520416571109 8.846841489792865
Mg 12.352799871505555 10.960522699886948 11.581200125824614
Mg 10.49846128262355 8.581408358616011 6.397774429130529
Mg 10.64264388741109 8.410341806948294 11.23773453827208
Mg 11.72006410783772 10.1962370788007 8.704308476923918
Mg 8.450509237908687 6.30741024060988 6.6681113656417015
Mg 9.240848403974947 11.328144641648484 7.469249258918937
Mg 8.616946712727334 8.613329228059431 8.914237111657165
Mg 7.476533471353743 5.912925096759864 9.60812568820794
Mg 9.533976237447412 11.339623349082858 10.545096490930668
Mg 5.570272838764642 6.7372337129015385 7.337513187863772
Mg 7.384738920940049 9.15238968247531 6.213451838914296
Mg 5.449190114991496 8.179930679590967 9.992314506547004
Mg 7.606961885821156 9.234587216876971 11.732794377263053
Mg 6.733133048873449 10.945712513459764 9.244282902827637
Mg 4.696917027550839 9.570679875349082 7.414504929704646
