27
Energy = -21.4204046 eV
Mg 11.662253655682623 7.2374740192083005 11.874812781074692
Mg 7.906586870398878 10.770008217586767 6.253126335148766
Mg 9.546091250174014 13.532143957419432 7.279292178304634
Mg 7.259840582063004 3.1791572350539905 5.762494887472454
Mg 5.04491666624037 5.108506251992549 4.75357985999794
Mg 7.751989306105569 5.376311137852465 3.532914211222696
Mg 9.624502921119818 8.433926911438204 7.333905294169355
Mg 11.771901276292027 13.136673878492703 9.617625666262462
Mg 7.179068561581125 8.216383480212077 11.976627168805116
Mg 7.860298258749068 11.179038606520043 11.37887538542385
Mg 6.802809961413441 9.572142810444094 8.989052607835136
Mg 9.529587985177258 8.501293419511127 10.25654688971055
Mg 8.46976901382304 3.910016870787334 8.83120002583304
Mg 7.000519938268601 12.553727891581286 8.607587205896335
Mg 11.944414087397789 10.169915601946032 10.937100830636265
Mg 9.769169876994592 11.037005418931397 8.87856492197637
Mg 9.799053086638244 9.49980865758933 13.115727476063958
Mg 9.02550710605138 13.978478958368683 10.306356717136774
Mg 8.820724491421071 5.728504242372565 6.410830586074346
Mg 8.547619606138518 8.182804759582108 4.50496144655955
Mg 5.784769232421092 7.677470761693621 3.457074021271085
Mg 10.663915419264612 5.980810746213444 8.909644802219129
Mg 7.355065339286823 6.7001267618423235 9.22937959280096
Mg 6.269220335533352 7.744467514126859 6.5322776409433905
Mg 5.68220852619245 4.860223473439504 7.641166872943982
Mg 9.091830740890405 5.604400681332018 11.470261375271107
Mg 10.526319001026188 12.41972443419052 12.375643520186681
