21
Energy = -16.16789326 eV
Mg 12.46788405404517 9.099330832836845 9.315073519066603
Mg 10.923005946152548 9.741357264194427 6.812567917735918
Mg 8.578248057874488 7.411387095409909 5.846529755789945
Mg 9.98364364646339 7.329652353568904 8.729480374118648
Mg 8.688032226984754 10.424306545397151 4.791363003893056
Mg 11.961643095147194 6.5225068910378035 11.073811573504564
Mg 10.557601953818667 9.236807702462835 11.565207144863088
Mg 10.14693222586506 4.369830993017761 10.214272928104393
Mg 10.35092480338365 11.304342383433656 9.454716315865186
Mg 9.359478973784435 12.549331063696405 6.887432818919722
Mg 6.441704574782078 11.96083279643823 6.277099253381878
Mg 8.809742528992633 6.750562847800686 11.516242820076878
Mg 5.906857381854873 9.221583045601722 5.3844446888690864
Mg 7.3463801592517 12.139254331367534 9.164384552739875
Mg 7.641095903225159 9.601200142218532 10.918125211581707
Mg 8.113924201910827 9.522882302822925 7.869628797763714
Mg 5.225277649257062 9.650534111187387 8.347422403675967
Mg 8.086982328502344 5.129408611733676 7.822012969005357
Mg 7.210028443110929 4.186262618613528 10.520377822731906
Mg 6.369079243951427 7.076369509973934 9.705472038271653
Mg 5.720433486307458 6.690076846233646 6.894629150197001
