26
Energy = -20.94777596 eV
Mg 3.0395964816222136 4.994566483500984 8.691058359533356
Mg 8.477984898312453 7.1653671705028845 10.121523273648071
Mg 10.55182695690849 6.515318440669376 5.569767769814174
Mg 3.2822833717531177 8.107939290410215 3.5276082107877897
Mg 6.310387537280575 8.333882702592756 3.148634252338762
Mg 6.69257209806199 3.036911080383109 4.372366960113753
Mg 4.744629391432424 5.4545987872092345 3.769644008621009
Mg 2.2931568072216995 9.264014404215109 6.046099839009102
Mg 9.80216391730953 4.311228533451192 3.4954119808138717
Mg 5.449062638286138 4.599498414816742 6.7383533745450315
Mg 5.5454658433204695 6.729231960974692 9.192493531123686
Mg 2.5819709954884362 6.165149759226451 5.881540071075498
Mg 10.094654221472437 8.565234314743092 7.819344191943866
Mg 7.511583516132418 5.910896056133985 4.423957115913973
Mg 8.30601793658288 9.007943589154745 5.337161813361082
Mg 3.029847784439777 7.323441303917373 10.692035174524616
Mg 9.445455776856596 7.550910814974861 2.9054479129211104
Mg 7.035614113795354 9.30643265842798 8.309121971287373
Mg 10.555418521214492 5.605014451742542 8.49718726712302
Mg 7.567973123330234 4.36683158931865 9.209536441255521
Mg 5.246852481555493 7.884049054473534 6.082391376719671
Mg 3.960063427929112 9.38960672858652 8.580471529630664
Mg 1.3521862634407287 7.4979141381712315 8.23791366500873
Mg 9.340051725681986 1.4922668001972175 4.6911439767243
Mg 7.832238308387861 6.614020272699713 7.191142250259261
Mg 8.990340345201748 3.8471296825235313 6.508042164919785
