28
Energy = -24.57335617 eV
Mg 4.426481653089747 5.277154841430434 6.045361193643028
Mg 3.385731307506841 7.182246225078331 8.378000660812654
Mg 1.7291369358422868 4.71997652856079 7.571095130861086
Mg 4.419868537220198 3.356960613641093 8.481646724930663
Mg 9.108127175286393 2.254541675833243 6.144394259631784
Mg 5.994687046420982 5.833212403447531 8.763784711774868
Mg 5.9949504704486465 8.873779103504274 8.870164811832153
Mg 3.5635382479002287 9.758013850042799 6.834435738462455
Mg 1.9147635077033254 7.317371528649592 5.714415838317462
Mg 1.4300021750168754 4.315076635183101 4.639954659430749
Mg 2.8846964569199787 2.253935044641514 6.143690875029212
Mg 5.996519201294883 2.354114198616988 6.052774253415057
Mg 7.605456683443093 3.5379447953416268 3.61415614244775
Mg 10.562242291535442 4.316037458807108 4.640455087279252
Mg 10.263022974818423 4.721287479728484 7.571489616325417
Mg 7.572183935899235 3.3586088098454696 8.482238863260354
Mg 8.604130017067279 7.181699736629957 8.378431877270584
Mg 8.42761819692529 9.758310914561934 6.835354868744564
Mg 5.99572819759611 11.015735690861067 5.438321785726845
Mg 7.779155934370551 8.866109805892515 3.9887083545662843
Mg 8.937287218004863 6.2582619468532314 3.156163665239427
Mg 5.996056806946401 6.324889665234558 3.4126062814382556
Mg 5.996213539203197 7.794966501233069 6.208672899162142
Mg 4.212934805409893 8.865026838137858 3.9886035753404743
Mg 3.0550656473587128 6.257563382860501 3.1557228939080653
Mg 4.38779280721514 3.5369905986436674 3.6132031484938665
Mg 10.076263616484548 7.318100339025286 5.715414983667132
Mg 7.564996981812233 5.276735756454323 6.045389467727706
