24
Energy = -19.64977628 eV
Mg 4.421854031889524 8.162203884111495 1.1855023661033315
Mg 3.812525052594309 5.515178393819678 2.523234472572041
Mg 2.973582979007301 8.414307970891237 3.8252880711701818
Mg 6.5714917543378135 7.294274681909936 3.262231594061893
Mg 6.23701016950651 4.2665667616045475 4.032307181178383
Mg 8.844930481267376 5.732143889254894 4.223499714204403
Mg 5.117240175761708 10.489436254114418 2.987489768893519
Mg 8.53218299308585 8.42518797713026 5.593145659753862
Mg 4.394242685380452 6.191617688030245 5.549541163327884
Mg 8.222994527332945 3.530048206499342 6.1995599753547594
Mg 5.603729355493142 9.03105073437279 5.599741308266497
Mg 10.012080745269127 6.064973132652751 6.917895160685859
Mg 6.890175338698483 6.2322114889869535 7.222084255909314
Mg 3.624157737569167 8.357473302143436 7.699834411586345
Mg 5.2299639057034835 3.4708190543113715 6.814082894036806
Mg 6.012503678081799 4.478673654689925 9.717548845925085
Mg 9.652101175193161 8.869456406739918 8.352004470403006
Mg 6.6382755811548835 9.15560382202819 8.3873096192596
Mg 8.952712066218025 4.242336510702005 9.088409318703187
Mg 3.4709336362599448 5.388270691944819 8.369138680873386
Mg 10.866194411241812 6.5834981402148705 9.760237973248662
Mg 7.075482819120666 1.8569983599755553 8.514413549943745
Mg 7.911166434928433 6.950078503359762 10.09110242177505
Mg 4.937123648786825 7.302245874393712 10.089052506645782
