22
Energy = -17.49585983 eV
Mg 14.439558872402714 14.482029957730601 9.694873815005714
Mg 6.499348996719333 7.599234862261501 9.472551563998978
Mg 8.725404513701477 10.559891903459604 12.816681771813784
Mg 6.995354048052017 10.323824236863231 8.040871131771942
Mg 9.128465481567849 12.488467912167563 8.01730130094447
Mg 10.032333935001825 7.709197068035859 12.976201623099861
Mg 11.728871619655942 9.902120003730875 11.956753931582712
Mg 10.51388117430065 12.448300898816203 10.87543610779777
Mg 9.592829913730242 9.916086876623938 6.406586158579951
Mg 14.487608122166112 12.021389442612415 7.972169080488503
Mg 9.176466964260458 6.404541522510102 10.056780768790539
Mg 8.368452119780564 7.395073765500965 7.217068196742827
Mg 11.873483977498115 13.869765385204948 8.289476441519286
Mg 12.001402979232358 6.998155426858944 10.830506144898484
Mg 7.211505647909957 7.668745584862772 12.39459481218911
Mg 11.260628067378738 7.793643894381925 7.966443347796321
Mg 9.271977866342798 9.483680789929986 9.95142400209657
Mg 13.635092127849788 11.950345492910044 10.979150131753965
Mg 13.645092725251214 9.12199990005099 9.612800768187649
Mg 6.190440803243082 10.058330182792492 11.112622065568422
Mg 7.588900571018561 12.502790649427036 10.572902022171778
Mg 11.57530501958417 10.8063647634028 8.43795947337117
