21
Energy = -16.80062193 eV
Mg 4.618137510412154 6.247047095943457 5.022520115739698
Mg 4.637105203635074 6.239769661881213 9.586411456192511
Mg 2.7186752326147925 5.603249753458692 7.09910185840486
Mg 3.9891125505461207 8.374290527763215 7.311398795179213
Mg 5.403985930804736 4.1585274555718215 7.3001845114142405
Mg 6.237860331619793 8.873504636580014 5.326155671287501
Mg 6.006492669609008 10.742522935392083 7.666217821441594
Mg 6.77696038836659 6.9778200668111685 3.016150991606479
Mg 6.793171086546306 6.969009967577908 7.675854754775209
Mg 5.5223458854466845 9.107692428475469 9.939611605594218
Mg 8.735872329631237 9.229898072317807 3.61396087395536
Mg 7.493982901846798 5.127598762652318 5.3146911897284035
Mg 7.504952370576173 7.199457357253083 10.920256763756518
Mg 9.697299033366024 6.358646856990991 3.6049904746508394
Mg 8.505522544086059 9.323032499512376 9.020171535728242
Mg 7.074884370833927 4.484452453191296 9.927813818843749
Mg 8.441363285693928 3.4870661839048185 7.646799536769355
Mg 8.548173346515734 10.74436757160437 6.270428214960378
Mg 9.30496405294675 7.816525864091164 6.378825435702351
Mg 9.581081660896093 6.119463992195267 9.010671614788391
Mg 10.467727961425163 5.025806815542475 6.253176693407853
