20
Energy = -16.18016036 eV
Mg 7.270261623916784 7.587956168866854 3.56935901729795
Mg 6.9565760575723985 4.547470754026896 3.5601234505681933
Mg 4.4214816474961225 6.342722471221465 3.958569861038516
Mg 4.948704584845824 9.130654639122728 4.8125993792357695
Mg 9.387132408711803 5.9194778140680535 4.874389171171642
Mg 7.709112529718736 10.412701631325536 4.397364314252293
Mg 2.2353746522810534 4.546553445289687 4.813137452806205
Mg 8.81378835795981 8.44418354023578 6.415845601128604
Mg 4.986827881939027 3.615382765349671 5.619054716200441
Mg 7.911430426491686 3.470808143273234 6.214885712952541
Mg 10.827760594790927 4.058949125385535 6.718963047729093
Mg 6.352665158020875 6.5602564977938576 6.378854089667109
Mg 6.522940861268706 10.406314958160728 7.116980269942582
Mg 3.4355466207720005 5.625417636235202 7.37027614405709
Mg 8.826322139699357 5.846734700806804 8.121063897230268
Mg 4.248192125930418 8.511082240421125 7.729038560547441
Mg 6.041686516091377 4.313529542688229 8.487432072220479
Mg 7.090875695025091 8.247562544284333 9.058154557577856
Mg 7.407020885622027 5.825385013768824 10.783607259786711
Mg 4.606299231846478 6.586856367675959 10.00030142458895
