24
Energy = -19.99183808 eV
Mg 8.938646284773062 8.03688087932678 6.6893333010963065
Mg 4.064753252993521 4.973791407480578 6.326136142744173
Mg 8.93153844826539 5.125542541422417 5.785401288245063
Mg 5.230122641919389 8.330421131089684 9.907374561390332
Mg 3.7751656081397966 7.47815852395044 3.5353656782375937
Mg 6.336749587681164 6.9554149610940375 5.102829338180944
Mg 6.488481002307984 3.3973693043607276 5.524215825306482
Mg 6.00228524308327 9.335965266223594 2.4680060207029526
Mg 6.660688409846478 6.054331969890258 7.914470613846112
Mg 8.337357504876937 3.108171077313475 7.914268232691949
Mg 8.334736412403307 8.444925960789655 9.587497132118314
Mg 5.2461259064600325 3.0118353706247283 8.261685590756915
Mg 7.033380806863492 6.48293479783988 11.420540022818255
Mg 4.696791694050328 9.923584440370522 5.077422046502662
Mg 9.238881966901877 5.550178164806333 9.477985634234562
Mg 4.061978738670633 7.901179335316522 7.188576730793831
Mg 4.536540734819813 5.378024291780197 10.014352733325653
Mg 4.652657535310155 4.565553674927328 3.4252116940091852
Mg 7.048424677098437 3.669907357987293 10.544408741279405
Mg 7.788685443898248 10.008128536006675 4.754422001559449
Mg 8.480244062805243 7.596216309057273 3.03524637901128
Mg 6.511115425010198 9.611952260924165 7.478464519215018
Mg 7.74839813343088 4.646995428285443 3.0825510075508564
Mg 5.968201321859966 6.524487852599802 1.596185607851328
