21
Energy = -16.45997556 eV
Mg 7.864736268506499 4.6024925110186095 2.5983897075940536
Mg 7.242003929852736 7.60003062691653 2.732840985704627
Mg 5.086605122217455 5.424161708125519 2.4781383563011135
Mg 4.481258821919133 8.121472634625253 3.8965769189169905
Mg 8.984160450143868 4.167741521779512 5.365656988388232
Mg 6.846266311040032 9.162287260098944 5.6218078918064815
Mg 9.449178303910168 7.332284403633001 4.931732627728031
Mg 3.4643870902355545 5.501992956047147 5.104316929067316
Mg 5.854168627700544 3.427768765194121 5.100554257684267
Mg 6.5691784438304115 6.193117007750554 5.360495792146787
Mg 10.150112007701715 5.918813238928725 7.441529066380051
Mg 4.025051602566884 8.152515273390929 6.834432975469579
Mg 7.542630211696174 4.3702281245468395 7.9772331005545
Mg 4.447167770577131 5.236608940510974 7.936504813342511
Mg 5.990996967938788 9.990460453163244 8.66436284798977
Mg 6.726743563787494 7.2267197090670825 8.101161550134012
Mg 9.182847929129238 8.796885437907322 7.636123949506338
Mg 8.829478083898035 6.606538642262493 10.117804679159592
Mg 4.127527983135579 7.775541703994436 9.800212109194316
Mg 6.03065984754486 5.546131972004904 10.594356356944598
Mg 6.686320790747138 8.42768723711402 11.287248224065827
