27
Energy = -23.67361808 eV
Mg 8.94069675374784 6.172612778248013 2.5666911124128164
Mg 7.400769940525125 4.837516121426941 9.264953662006752
Mg 6.454893428793641 7.879422464956005 3.0465239913958837
Mg 4.777062558936422 8.835718939817648 5.462745411057668
Mg 10.851924426720412 6.752023774257818 4.931087477066496
Mg 9.552281248713275 4.032788620833091 4.493934590029493
Mg 8.7266377704928 7.497740410649467 8.841071440839197
Mg 9.663519268080801 9.337562263469886 6.4311898378214405
Mg 4.431887769825228 3.478303273287213 5.517915118796946
Mg 3.8579651118253904 9.369430855482253 8.326367991303986
Mg 9.35265028051101 9.004650770002735 3.385046411850374
Mg 7.250703112443494 10.40294753128512 4.820724196297629
Mg 5.191947077423789 2.725513215442017 8.374754040278301
Mg 2.6670021342327175 4.396194628913297 8.015756981610858
Mg 4.061695199638453 6.292719334274091 4.185763931311643
Mg 7.719866583762808 6.8712735416911 5.77758902019761
Mg 11.518128081890543 7.435517965930063 7.805057932325419
Mg 7.312522454447116 3.5868304368933996 6.441762872173175
Mg 2.791825091915302 7.026757135885983 9.670254503762848
Mg 5.8583975213109785 7.560120300920552 10.00897182129442
Mg 2.327789526668205 7.281125206701325 6.632386869861756
Mg 6.779094735880282 9.340037672924026 7.648402549173754
Mg 1.710709960634163 4.747324887965846 5.165916370313322
Mg 9.84321256446939 4.959240600223032 7.3848235616077345
Mg 6.558633964557548 4.719705191860704 3.6698662261471684
Mg 4.619375166855406 4.7926653708407505 10.394667143627366
Mg 5.271205960111974 6.156654400232056 7.228172629850872
