28
Energy = -24.02471562 eV
Mg 5.234716702199985 4.435079294449537 2.1130401539261876
Mg 7.94068158618221 5.487769927450644 2.352453938541121
Mg 5.5010671086592655 7.486275265928106 2.7037621081352046
Mg 8.45180678232595 7.963075496766658 3.935888773307646
Mg 7.462293057206948 2.8818913862421387 3.936985062417044
Mg 3.2952865261603557 5.711743728714908 4.157014461420198
Mg 4.3079912346185 2.8682627032430377 4.40375417153516
Mg 3.4154589028169 8.650430310885127 4.80558699070213
Mg 9.530578128335794 5.253971879151302 4.970594275378059
Mg 6.438249176351223 5.569543371017562 5.08859269119243
Mg 8.564136759473568 7.497050809836133 6.962560471289952
Mg 6.17106797523187 9.76832031123073 4.683072890769253
Mg 8.700014917591101 10.385458864224558 6.000441525272047
Mg 6.1030587711391595 2.3404897557545827 6.659653739717908
Mg 8.925735095186157 3.0742554569043787 6.921438527660177
Mg 2.3471048153734198 6.985916846767126 6.944346030406229
Mg 5.528632704591017 7.687620766994536 6.95222813975241
Mg 10.451912828217807 5.4075340112907355 7.956402128819961
Mg 4.006087598525873 4.551815686962075 6.941472616486031
Mg 6.128869939585075 10.88957363331619 7.602260686548188
Mg 8.690862014649953 9.945449056586893 8.911568663256842
Mg 6.773362306978926 5.137954887471774 8.179330092051268
Mg 3.525110871886389 9.52607277567468 8.189650644849149
Mg 8.999813812236926 7.190376769218961 10.052165691159137
Mg 8.869681690068996 4.187130948719961 10.130020186111883
Mg 4.0840000175884486 6.4867525182245 9.403391109223858
Mg 6.084938485751942 8.740819868282676 9.92949275744013
Mg 6.467480191065903 5.889363668689845 11.112831472630216
