25
Energy = -20.408242 eV
Mg 4.425266212078142 10.428579183346264 1.239184618052919
Mg 6.910893747160567 10.463784882774561 2.7911861833285894
Mg 5.614582386400669 7.634462523344207 1.9323989945110123
Mg 4.439814632005669 9.607584403390746 4.218138572559713
Mg 6.821769932326343 5.113696369010206 3.245889802526321
Mg 2.6920394198840247 4.135877560190365 5.85900573706471
Mg 7.136374299585302 7.9431082031256395 4.466797515265151
Mg 6.916292837801504 10.58505981622854 6.027568254920971
Mg 8.5837293793135 3.372140716260327 5.096875129478373
Mg 9.526259101821378 6.106170946589917 4.591141174259281
Mg 4.452109613428673 6.4227001370837025 4.745647756276308
Mg 5.577921413318916 3.3651406532648656 5.41342947657574
Mg 6.772210536450657 5.847947581661521 6.787744440850448
Mg 8.88768104826838 8.172148785063804 6.801141258802582
Mg 9.80864328493493 4.969423011241114 7.406659725182999
Mg 5.120156247322741 8.433384818070857 7.038984018080863
Mg 7.433327884451752 2.970727213335285 7.924669765091669
Mg 3.0070554760526433 6.515632526597875 7.574810164383928
Mg 4.519770405235146 3.987622077128465 8.289349350538364
Mg 7.072804422021796 9.454998396514766 8.99770647985443
Mg 5.4091117332999525 6.635415216461814 9.59197307586287
Mg 8.406361586502777 6.734070265393874 9.33033300703256
Mg 9.151108439823481 3.928396064222797 10.289596892867726
Mg 6.211994073109203 3.7139490101109445 10.69890657608606
Mg 7.566508215355179 5.921765967541719 12.104648358500077
