24
Energy = -19.70394329 eV
Mg 8.292094612680875 5.560573209173647 1.9444212979126667
Mg 5.504114765217636 6.414498027076198 2.9643908562366392
Mg 9.657875999913996 3.3509861376727224 3.33146122141035
Mg 8.089316220325486 8.192591398365968 3.3875713163471346
Mg 6.645244427973803 3.6911168227788766 3.8425907328208964
Mg 5.268064254081667 9.310550883215944 3.9135180649676014
Mg 3.7651734570078528 4.394726919639686 4.441405088728478
Mg 9.97331297202016 6.083139201593136 4.598726675946207
Mg 7.629328496954495 10.779902140068442 4.962986457497571
Mg 3.9023845567989506 7.2276013286196825 5.533904042735316
Mg 7.023118073830483 6.327828719783102 5.752906151799929
Mg 10.030779689123548 5.976081996205082 7.670034512191774
Mg 8.704216735445591 3.6854320454245943 6.202648734950807
Mg 6.06502352411853 9.060753909024964 6.920570025513213
Mg 5.641925414851374 3.7517310045783336 6.766108521627729
Mg 2.79063058128524 4.959308259691589 7.254051905679158
Mg 9.132265639730091 8.531641440022858 6.30681072171299
Mg 5.202090868430469 6.434356555061336 8.215438668781124
Mg 7.918503080060638 7.6997261192598305 8.99624357979061
Mg 7.6335821851036805 4.708595207792442 8.93244776045826
Mg 4.828268648939897 8.98668694694839 10.026691188280902
Mg 2.923669578546065 6.539532035122947 10.226135278383726
Mg 5.840275451748719 6.379516503087618 11.20349087476672
Mg 3.686448492506152 8.100830916488531 12.753154048156789
