29
Energy = -25.16434681 eV
Mg 7.012229310327564 4.657619355331261 4.4891022122860615
Mg 8.38625751311842 4.915666661749611 7.441108693123321
Mg 4.350714334448861 4.062098192696536 5.9622787653190485
Mg 6.166383715787585 6.896745367719593 6.707757494870322
Mg 11.39839489144441 8.431832863546132 9.499168289457977
Mg 9.472007979319947 9.477802736327204 4.113325271223174
Mg 4.08912204609864 4.866258162566672 8.907987747533983
Mg 9.670299223277116 5.6454955407670555 10.056887135623919
Mg 6.724318027191587 3.435738104250785 9.446992945148876
Mg 3.02172500560096 6.875241115523584 6.757215462556422
Mg 11.14606738748489 6.164253953311405 7.546317057339197
Mg 11.963220934813265 11.23564511779762 8.241090982531624
Mg 6.390283869731806 9.521826350740385 10.026289700738772
Mg 4.634276365830287 9.614568566520713 7.547618379577077
Mg 8.918044702254889 8.30359687850288 11.17764846102522
Mg 9.476333325055464 11.298254930327657 6.580341732156549
Mg 6.7744008009901355 6.494172270525934 9.765493932544137
Mg 9.251380442599952 10.860439115071532 9.702850071186331
Mg 4.295272630846516 1.9315203418263291 8.056917872969784
Mg 6.883938451442017 11.705581906766211 8.0602664820727
Mg 3.9357761890131955 7.6873946573995635 9.610805021706495
Mg 4.160448655300114 8.737006234232933 4.6657244945767475
Mg 6.944789016132725 9.899619209389686 5.630925199362367
Mg 8.61990124491109 8.271274267226634 7.889206949166999
Mg 11.408409719848004 8.86835137819427 6.367804732915271
Mg 4.380514276463649 6.0307779738532235 3.729733878238417
Mg 6.869412375473683 2.387683105715966 6.5617494609849825
Mg 9.298842538923557 6.687603968480589 5.1824234695601845
Mg 6.938460057321668 7.6418119882494135 3.5259410828586817
