26
Energy = -21.83780093 eV
Mg 9.54399622745226 2.6407718755968186 3.2693935718963156
Mg 8.99330961649046 5.66653579700421 2.98342954559763
Mg 5.8951768320327 6.376630561541073 3.0559818799955236
Mg 6.744033146630042 3.541435480211586 2.710183758305222
Mg 8.136314080805015 8.467233435927795 3.068289955552681
Mg 5.761257943626925 8.634985238523964 4.9972619892259
Mg 9.974751381051147 7.529241749327202 5.306291145189622
Mg 4.723290945572002 4.232560440464791 5.080961566610772
Mg 10.183980849304247 4.449061440765489 5.622767956572438
Mg 7.393518723874834 5.955902022150714 5.851863018532569
Mg 3.379164913153698 6.78626654137974 4.636912538552823
Mg 7.4711856700580075 2.897599000578866 5.580790611320814
Mg 8.27376643430997 10.16688195227923 5.554754969311252
Mg 2.846346548377737 8.746962587406124 6.930069805908167
Mg 5.702261970670667 10.233499230535584 7.714804636001231
Mg 5.318112297601175 7.100666698584652 7.616845813859908
Mg 2.825189931374967 5.500000832241557 7.419399352083176
Mg 5.747151240378324 4.054590109592839 7.891241765086845
Mg 8.117617548766798 8.327780571889349 7.84460323641514
Mg 10.06279646651715 6.169839737628042 8.083931160371321
Mg 8.696457551377664 3.5773488226629047 8.232927400595543
Mg 3.3000528179911535 10.367280684172329 9.413039983903056
Mg 7.481246996310551 5.924460769144417 9.656005136872661
Mg 2.4301640435565957 7.531791982533272 9.682451210918309
Mg 5.530893770990636 8.48302697698425 10.36083382473049
Mg 4.467962051727204 5.6376454608754285 10.43496416659281
