28
Energy = -24.17599187 eV
Mg 12.425340373146403 13.178592217533442 12.114147161286338
Mg 7.120289359523405 11.087698821955353 13.407829846737283
Mg 7.18786992854416 8.241962672696738 13.84428382601625
Mg 11.30173222482151 12.03699041086626 6.438459384889359
Mg 8.601110264915894 11.394133252469024 5.8929746610524365
Mg 10.162237893205214 7.5334540916602695 12.894877806469681
Mg 12.610646951546244 13.20787863969733 8.930740502038994
Mg 9.743662810616796 12.564343290588877 13.207041945209061
Mg 12.881120348599111 10.231598626939343 7.945818724707671
Mg 10.132619955448565 14.280188083423123 10.838465150066357
Mg 11.908533327432442 7.4585272949198 7.654802022901581
Mg 9.440143315742338 9.889548143234183 14.658721921013807
Mg 13.757030633851612 11.075304610055868 10.66063205430173
Mg 9.111667851392214 12.978259792727343 8.26115205447692
Mg 9.813552260514268 9.509011495172027 8.312893598771472
Mg 7.767297276124547 12.421499452646918 10.88233153907581
Mg 7.570173419962038 8.751341329100647 6.0988427105017164
Mg 11.74784231598897 10.254675490434737 12.9026658123124
Mg 8.893626198549462 9.511208180468602 11.127530861887518
Mg 6.00783359875901 9.236785733478783 11.187055070716534
Mg 10.606762309248705 9.126448042438417 5.464161959313895
Mg 7.1530897111559515 7.649788543949424 8.787726923639713
Mg 10.744987323538899 11.456019520157955 10.23146970288688
Mg 7.548590474554589 6.6390474265808725 11.54548059766707
Mg 7.080920509377278 10.6852327105713 8.57306386049028
Mg 9.893322946293308 6.719105379923232 9.81309639212453
Mg 12.014072274248479 8.661315226093848 10.406614926672809
Mg 9.28241025493403 6.640442202613321 6.871846973072648
