22
Energy = -18.06127646 eV
Mg 5.233424580723897 4.241170373704292 7.533572260159651
Mg 7.255970131257944 4.85409675225967 9.903446023771235
Mg 7.846013156689488 8.972952080737945 4.444277722055569
Mg 9.770975103625505 5.7758437159965546 8.574532782605168
Mg 8.115672776350902 6.217448661671187 3.192970754548187
Mg 10.620970811541582 7.7522692677270975 4.01960854999275
Mg 3.8534134286025647 4.576607415220771 4.751840449776907
Mg 8.229060747219311 3.433137406693323 7.539786788224821
Mg 5.3025837971614145 7.17609965720726 3.9272304699360525
Mg 6.936040963851263 6.719057523508979 6.529186348228976
Mg 5.0643830835722365 9.694959930195573 5.507845723178499
Mg 9.666819791641824 5.319724990020001 5.607181228613905
Mg 3.789318416856361 7.084117715381615 6.619597327359357
Mg 6.884762619356781 4.0310378002808225 4.945309975177089
Mg 5.593084304887182 4.676306872300036 2.3488973050315547
Mg 7.676040374704119 7.936314613135296 9.137573839581954
Mg 1.8584907566960343 4.288427829378021 7.002507550136481
Mg 4.967943134142858 6.659382177601341 9.45821739008847
Mg 9.768284911012506 8.267834351226552 6.838845818045145
Mg 2.142602570639656 5.660529500063692 9.55419378160618
Mg 4.923018261434706 9.414326613587951 8.421486110702963
Mg 7.501126278032841 10.248354752103165 7.141891801180071
