29
Energy = -25.64801019 eV
Mg 4.512088646477863 5.266535372534941 5.672521037834905
Mg 2.9866244221686995 7.348028886928614 7.9393941688697165
Mg 1.6533531323645831 4.678335812735257 6.801443513163588
Mg 4.291818281743121 2.9477702763782476 7.93602080016488
Mg 9.230213829608326 2.368560085215066 6.196675555644756
Mg 5.478977185492231 5.674229195202674 8.55604154265399
Mg 5.658404068991753 8.691681349977292 8.916027631686081
Mg 3.5329018357491098 9.905332576507163 6.5296347932366885
Mg 2.2020046526458135 7.41178275541345 5.022807476539607
Mg 1.8283849236892045 4.5455355452271595 3.802746857091402
Mg 3.066640941272302 2.3339909762969264 5.302052378315811
Mg 6.190600745889496 2.474233679421398 5.656133928720577
Mg 8.172674919839173 3.7984951312446427 3.5518878922612225
Mg 10.878154132622598 4.514736584615759 5.0551582607846575
Mg 10.20667440705666 4.664164980717734 7.967270194347175
Mg 7.378112312993725 3.3714937181646984 8.394236384994482
Mg 8.261249089121689 6.820999665239235 8.782066400207533
Mg 8.354415289507228 9.546919375377685 7.433982565611772
Mg 6.210333157722438 11.029479689455847 5.716449737996651
Mg 8.19391864889095 8.998306760876927 4.409867236195689
Mg 9.577768900120827 6.55538827283589 3.4368872947854108
Mg 6.5278818282724185 6.513651471392986 3.389960706161246
Mg 5.942889611246486 7.7664306496212 6.20116274387822
Mg 4.670802246833609 9.054954317931898 3.807325414174187
Mg 3.6548312851922256 6.495754332317344 2.5973851221979194
Mg 5.035959026387199 3.839363297752952 3.0827862204358887
Mg 10.176215064307431 7.295606670802918 6.346815143392539
Mg 7.668271183867913 5.3481766949556535 6.073322756182497
Mg 2.621613726183573 4.903839371115568 9.585713738729241
