24
Energy = -19.66438133 eV
Mg 4.346300268640428 6.7815179661326415 7.232395967575535
Mg 3.9591284863591967 10.253293024034287 10.947596499439435
Mg 10.56014104244181 6.213393247850564 3.8398096839911084
Mg 8.51366147030076 2.5909634550203458 8.247054149469626
Mg 2.3070979161914513 8.536093626227306 9.1351709095015
Mg 7.832508385694407 9.859963017376556 6.514003048789778
Mg 4.080974015852433 3.9164651163534385 6.20618408916564
Mg 6.117598250812098 6.684022129656791 2.706179156383584
Mg 8.909248455696035 6.5857712833140525 1.4603963121775743
Mg 9.298938999623308 5.39869016318165 8.811785352889498
Mg 7.314499645547432 7.532584218064437 8.296294073435895
Mg 3.5939453642239667 6.251851015499694 4.387730578949123
Mg 2.429363422557505 8.000546121511226 12.096579275077422
Mg 5.181916093170207 9.668827674076097 8.06272584718466
Mg 8.349973095691881 8.35783867748606 3.9273339755198
Mg 5.4548974182682155 8.619877501471816 5.1044029517782725
Mg 8.188492877085277 4.3152033256384685 3.279271919743636
Mg 9.660745577144604 4.307556899370563 6.005967548345102
Mg 5.155498704839964 3.904557644726368 3.4193773021649374
Mg 9.744525327786645 7.402930643709988 6.492047117644427
Mg 4.920058064102778 7.356147691060089 10.302169160117678
Mg 6.27448647012329 4.637902387405999 8.276525722397345
Mg 6.982964364480037 5.992055266162682 5.590677540888105
Mg 6.88702576552808 2.895937386830181 5.722311299531781
