22
Energy = -17.24501288 eV
Mg 8.716731889912213 6.9245397264215445 10.536101328897516
Mg 10.142505482385646 8.310843689896071 8.315314846266446
Mg 7.232390531797388 4.6733284051661705 9.178523759924335
Mg 8.591018675414489 4.173070158871279 6.1798629468889095
Mg 5.722379000732885 6.787289809014301 10.906474531495412
Mg 10.240984178341346 5.147778906279525 8.566722112610847
Mg 6.912084561288147 9.149407798165983 9.473247869404121
Mg 10.661524835131287 6.312023693278115 5.922577246293966
Mg 8.622853225486287 10.945124263573222 7.812414678122568
Mg 4.103643293813946 4.742531647128992 9.418792024598034
Mg 5.566258925458538 4.537294363183289 6.746452055053263
Mg 9.35263205368307 9.049022585093885 5.480385106310223
Mg 6.4188887649858195 4.2518675397657235 3.837665272283921
Mg 4.554321565902259 7.577727076406735 8.244759476483875
Mg 7.494557875259906 7.0964487488386885 7.187988212141034
Mg 3.4799916374969895 4.394727989719025 4.288251596792792
Mg 5.910295356747477 9.83247785780042 6.686606432780589
Mg 7.848017237865825 11.71593177413015 5.080759327310886
Mg 8.217655409904355 6.537516429677466 4.166992171284856
Mg 2.6944046073853682 5.626133628252268 6.835732022754479
Mg 6.746776790292711 9.158491034923532 3.898090203754512
Mg 5.014669645222786 7.098811022941858 5.173169282734438
