27
Energy = -23.01379339 eV
Mg 5.251653367602181 9.572972120538633 2.1364421626801273
Mg 5.385281243455876 6.628206554318858 1.9713958783729673
Mg 7.2393128401661615 10.624033706200004 4.14772301124073
Mg 7.437533171141686 4.92081950071425 3.385024719616535
Mg 3.3314343951974155 7.851734899182278 4.01001152152622
Mg 4.625290614729474 4.998313045743444 4.552272959787436
Mg 4.32293136691632 10.546403453927102 4.835519539098607
Mg 6.769949291077761 3.290340566049987 5.895974875307956
Mg 9.007061107434332 9.045561173078708 5.956543941662299
Mg 6.4519198742226465 7.665378814792777 4.686209327165264
Mg 9.732122847075624 3.4825177470093784 4.632951506591272
Mg 6.246017090079446 9.722414770078503 7.09741309728388
Mg 8.553840190590721 5.90520857049986 6.175411063670766
Mg 11.593800578054617 4.524079479448373 6.766912756239533
Mg 2.270215141669705 5.993588209286217 6.1444430230220695
Mg 9.345204757477031 2.6385466571856266 7.478200349283165
Mg 5.704335345769472 6.2658498763799235 7.357367525417541
Mg 6.855941668474781 3.4167736387297967 9.01040388940436
Mg 10.989204750063386 7.33156365138152 7.462371427826012
Mg 4.066304495684367 3.771832095737439 7.385164553530407
Mg 8.160183588815784 7.947121638128722 8.66706907264239
Mg 2.570616695894982 6.6018257635232205 8.96221570298493
Mg 3.2750915513801186 8.76984900780779 7.046946683348696
Mg 9.5312450218071 5.119889225578517 9.132250528908708
Mg 5.173539649145728 8.170450198095809 9.595757754219127
Mg 7.0905232333041015 5.991086456446101 10.693423736681655
Mg 4.5194461227676825 4.70363918013598 10.31457939248618
