21
Energy = -16.62826981 eV
Mg 11.804235244788334 5.389029108187156 9.82448021041401
Mg 10.976142924498726 8.25824006403445 9.04844886411745
Mg 10.502274666878668 8.72987736132854 6.172665557271269
Mg 10.059293558569466 5.7914334378915635 7.410661844104027
Mg 11.255090341791815 7.552697488427656 11.966123287275861
Mg 10.917479435200837 11.150657186800883 8.136300550418857
Mg 8.703295011025375 9.499209802738562 3.981294738950879
Mg 8.923265982708335 5.901027083004622 10.276535537540738
Mg 10.933267002625868 10.524342640787975 11.1335090705216
Mg 8.27529336672123 6.736407153895277 5.283369971194716
Mg 8.462484858695316 11.192667543421784 6.573320425486033
Mg 8.055345302253489 8.457476099289925 8.150645299331481
Mg 8.309676003747999 11.442854846518776 9.732934890223182
Mg 8.441141331843056 8.754886215134057 11.172928401367688
Mg 6.251562139254329 9.195526950275386 5.6930107143292386
Mg 7.031632244247941 5.489152979716323 7.989941349666972
Mg 5.316403654092265 6.3407298323822205 5.716073353306431
Mg 6.079408872304734 6.764952895226165 10.660767639138523
Mg 5.898540016556195 10.922567433221102 8.120895485850584
Mg 4.878069008288438 8.034378251149677 8.309873029103082
Mg 5.635739417653088 9.770871376835819 10.790214765060206
