27
Energy = -22.79108511 eV
Mg 7.643026527352502 0.0051520543182891135 8.726327215238143
Mg 7.419648041765497 3.8851823430861168 2.2828715199025815
Mg 7.320988351988134 5.924896620516568 4.6948066432098345
Mg 6.052592244564186 7.497650826781646 6.947359877890314
Mg 6.433714160480702 6.60562368478757 1.8208931437409928
Mg 4.6986491139542 4.083629826652642 0.9234552985895536
Mg 7.276376049174774 2.9450043332432085 5.059155328653082
Mg 5.397132267960439 1.6605899769733563 2.9376545430415884
Mg 4.826260018120996 7.654348381438117 4.212626211425885
Mg 2.6678919238730052 1.9287565850148987 1.865384826396046
Mg 3.568814649228204 6.951579110565831 1.51161629673294
Mg 5.522511130529008 4.529324363241788 7.047941131002401
Mg 4.387526014302515 4.5300714944134475 4.001338578174788
Mg 1.8799439525743231 6.548428568184187 3.9943693537268112
Mg 1.694101163768848 4.666899107397396 1.6008847811691895
Mg 3.156092940209913 6.403731200515516 6.6430259344880715
Mg 4.595907695957106 1.8706004750412872 5.904637963929744
Mg 2.6900131045996445 3.573158338316084 7.580317596112771
Mg 1.8029913965016269 3.1853421204344023 4.582238791469857
Mg 3.0490218014681165 0.0051520543182891135 4.1008184475998695
Mg 8.692388090614362 5.363553808461517 3.2522607454972055
Mg 0.22855800766582293 5.252672248990278 6.268720717672878
Mg 9.106268136655512 2.4236227632590386 2.31102308995486
Mg 2.0736166340045488 0.5355240424534496 6.880202010376547
Mg 9.320894288571553 2.3781480615720363 7.267232712870729
Mg 0.03466139111823354 0.5433974776147107 4.633473159686396
Mg 7.780858119662056 3.1325005724546497 4.914181515512796
