23
Energy = -18.45354444 eV
Mg 5.134775187357672 9.699824745893697 2.219050512609247
Mg 6.7895967611559245 7.137975904146241 2.6904862585426152
Mg 8.318500066500548 4.616105858986088 3.498222161243858
Mg 6.949197648271642 9.442952978328611 4.750175099068436
Mg 5.734940955322469 5.450329215048009 5.109005603692372
Mg 3.9510983096019383 7.561560040414587 3.8643872105163943
Mg 9.140454268839223 7.235619640992598 4.7830473377572025
Mg 6.991941370950327 2.741815747512612 5.591061501378461
Mg 2.643942401133611 5.442100844897192 5.712927358986607
Mg 4.152396786548567 10.46008583868258 5.080532127549852
Mg 9.10657117779879 4.738813630231286 6.408399803863463
Mg 4.209157539568037 3.191757395459377 6.779482673021423
Mg 9.169492171108619 1.8123853682028093 7.517336304819938
Mg 5.808571998699916 10.304206463328846 7.562482125063375
Mg 7.0616894161157555 7.435365579743428 6.968360278449453
Mg 4.026663335782836 7.88239740831644 6.848519898705139
Mg 3.42107097750557 5.406099553783901 8.64030385110095
Mg 9.418101758606333 4.122450688000023 9.444227215946109
Mg 6.476532670822693 4.771562726026806 8.24350419092512
Mg 5.354385552350653 7.525808028866802 9.578425261867443
Mg 7.939335777062827 9.145936384940992 9.396347450487063
Mg 9.766080132758724 7.0193252225376295 8.149446201661435
Mg 7.941755520023448 6.3617725195452515 10.670521356629553
