25
Energy = -19.97473641 eV
Mg 12.212925607310229 11.558279065425971 4.14510361821411
Mg 5.710985534630304 8.318471038554076 12.828781677491062
Mg 8.063878430326808 7.298523984333741 11.352075706936814
Mg 4.86362682844948 6.170101985996089 10.874350918322884
Mg 6.612766186678707 6.419090754118776 8.263890764018674
Mg 9.208720756572298 11.968567695304989 9.261435601918693
Mg 9.50287970510389 5.458390132265865 8.722524725900987
Mg 7.723063100614311 10.384469004977365 11.38889572609601
Mg 6.66542749888586 9.4386734319134 6.874345782500364
Mg 5.532627518184438 8.846924363222946 9.713315507737459
Mg 11.16386526103117 8.564196743913795 4.524182035945111
Mg 9.554913591112099 4.880158140860783 12.063882519651727
Mg 9.659942814837594 9.99070166438377 6.58970933291311
Mg 11.018011039678198 12.641259552899982 6.8356290287432575
Mg 11.116229122442276 7.244460489378418 10.54883724713695
Mg 8.884823053355678 7.080260647154822 6.2316479882970395
Mg 6.633678670023146 5.33985551544701 13.185461322199348
Mg 7.144997453660006 4.223318471261358 10.374396966928266
Mg 11.6002681901819 7.33475727709309 7.542513342232779
Mg 8.77824402505212 8.719645557409569 8.978086065106423
Mg 11.543538206990313 9.984586093052636 9.223612843035918
Mg 6.254688641127201 11.645100356327738 8.971682974485
Mg 9.287612185244512 11.669842711916804 4.123744653197493
Mg 12.937686681816936 10.01609488774454 6.590405870977019
Mg 7.813418900822217 12.50977650593555 6.555711356030113
