27
Energy = -21.77170948 eV
Mg 8.94038456104445 8.438748482710366 7.260772190754617
Mg 10.623479429309963 6.867354822415676 5.09571241770042
Mg 10.69369512930776 6.784911355065944 11.856604644318095
Mg 10.083758344658802 3.0588928697720505 8.619939614331974
Mg 9.486506609156146 4.052962993551607 11.445464424333277
Mg 7.580776755932689 10.556989974550966 5.422791159724617
Mg 10.209600330205182 11.025555491479142 8.386341120505616
Mg 4.234059880842421 11.055800458401306 9.417362402088399
Mg 6.585872449261911 7.247988046193559 8.702511509550979
Mg 5.720868268868486 13.743979029691797 9.490293632794698
Mg 6.942294045390261 10.31626666228732 8.4045505916955
Mg 8.255315673890099 11.992726384935589 10.636326106810968
Mg 9.620789538875632 6.220475142751281 9.142658927415987
Mg 5.5861078165563125 11.993406288642 11.962707969974383
Mg 11.815385821066574 5.022519793382892 7.1038029740338535
Mg 6.067759578981276 9.128876870161442 11.128470333718628
Mg 5.3868011898488835 12.409444259703669 6.821847126906685
Mg 12.157983932163162 4.7366468711419225 10.046670828634678
Mg 11.807136449693228 7.98296841067459 8.16565427663704
Mg 8.597134299856895 5.20220769887237 6.56658135080794
Mg 9.105927819570631 8.996424199326382 10.42651371639612
Mg 7.582804759660986 6.493879745323903 11.523434042454388
Mg 7.543085631278771 7.4756630910150825 4.890330239321085
Mg 7.310732998470273 4.25833622339994 9.343680687050542
Mg 11.186253287629754 9.727468571967817 5.716445267165913
Mg 8.103706977874763 13.256235207294722 7.7972918980754935
Mg 9.909374913207063 12.421071603571692 5.54083600358852
