28
Energy = -23.94653027 eV
Mg 7.977645838479922 11.232111991878105 12.993439036973555
Mg 6.390955639681607 6.9689213734325675 11.174984462757488
Mg 11.807669188053302 11.070599183165376 7.045635158166911
Mg 10.792015936697567 12.200455178635508 13.147776624378702
Mg 14.081721455090957 9.89185410280783 9.097331502971075
Mg 10.570811934731722 9.165087725095727 12.404695367098006
Mg 10.813769827989578 13.887031639467601 8.351606908920337
Mg 6.69300006324754 9.959180962781636 7.018973431477972
Mg 8.121075288248717 9.64496029106742 10.457224322157396
Mg 7.579596051550562 7.317053831308373 8.379042843014059
Mg 12.51135795889894 7.501688180672378 10.43112518474772
Mg 9.3812842795461 6.70923956773968 10.970808252441133
Mg 9.374298034845355 8.821443168901014 6.329330669324938
Mg 12.293279824680834 14.111070240571523 11.128483549714925
Mg 13.568401458782944 9.713564849197866 12.326042267882135
Mg 12.736418792953753 8.146763224379942 7.22401002307406
Mg 8.905382991642654 11.655948947304056 8.015392648865044
Mg 5.191553549336913 9.133022473069172 9.419673772850546
Mg 11.581153535653183 11.311122035886813 10.340492623283989
Mg 5.42980202012033 9.778409996687584 12.303782947809964
Mg 10.471368614306622 9.063310076360942 9.016402388712654
Mg 7.841808254388558 8.192915329643919 13.394838027808367
Mg 10.36967614002736 6.2460421385335 8.154028068382942
Mg 6.265039075841758 11.892875546216224 9.941897229495536
Mg 13.62327420265014 12.50866069239437 13.726762929749622
Mg 14.665979464763884 12.12733197288296 11.034741648432915
Mg 9.033334300673122 13.052571820513073 10.709130087599416
Mg 13.598323020254945 13.009414968653786 8.435851410260964
