25
Energy = -20.35246658 eV
Mg 3.4973362888660353 2.9345734268702888 2.6351038334335986
Mg 5.346043696412661 5.2638136832503335 1.9291481863005153
Mg 4.631584806449941 8.101586943769572 2.6283737820590587
Mg 7.7845828638093115 7.363514028646656 3.2525672916598882
Mg 7.621405947488861 4.197812951759598 3.535421798978882
Mg 6.0389504225795685 9.347623732833688 5.062899316590537
Mg 9.71752342563493 5.709538696619051 4.947080754553923
Mg 2.8605050556663625 5.706731013870793 3.684086966046591
Mg 8.882831564581952 8.45008856953384 5.88534710078126
Mg 5.032811240313688 3.352654741267676 5.147308840941863
Mg 3.057749911416775 8.36263421049693 5.203036151719816
Mg 5.746280526396839 6.2589776927620555 5.051258600017533
Mg 7.711140025161117 4.005449733362141 6.541752201548349
Mg 3.376318405969247 5.722815661813603 6.8162052932433905
Mg 5.061622520311105 3.4251492789211997 8.115493305870116
Mg 6.924394391636218 6.809818722285339 7.59798502413297
Mg 4.506580860625789 8.557858800184375 7.74061833342357
Mg 7.121669877908664 10.212386777599669 7.675841906684477
Mg 9.722795517359435 6.013149144389016 7.961660646806779
Mg 4.659592296714975 6.047043452001423 9.517452896453953
Mg 9.412349230221455 8.832251238584005 9.03941185250997
Mg 7.4850203719500605 4.35887729945159 9.571082314624443
Mg 6.590319283572394 8.447174628186804 10.165011498849614
Mg 8.789660332437144 6.531942281809475 11.00014535809194
Mg 10.954127052997206 8.519729206213267 11.828902661159347
