23
Energy = -18.46016326 eV
Mg 5.518522058734603 7.079910017636455 1.5114249143915068
Mg 3.1963213642743233 6.695533953271117 3.3891544811377985
Mg 4.2283980575085085 9.472423726740141 2.79924333855376
Mg 5.113358810073691 4.356396692969517 2.8851775488500206
Mg 9.696009613462374 7.925126205564647 4.673389192020578
Mg 7.128110588893898 6.207226300490489 4.219408431580846
Mg 7.074319135691677 9.102436840871079 3.485476271484563
Mg 9.460941502380741 5.152165715395271 5.989461987268059
Mg 4.1679740203348805 4.992247982422392 5.72641823347882
Mg 7.639845120024993 9.367075790929222 6.5280030775676385
Mg 6.699349605153452 3.4203232220213207 5.37111803603241
Mg 4.907079650407553 8.02998008069016 5.548229438340123
Mg 9.958301188158357 7.784291202648174 7.537426510363933
Mg 5.399567624487327 3.659455395964363 8.167079134087823
Mg 6.836987748432015 6.281631723875857 7.266354645425179
Mg 8.388072818827546 2.8581099249366746 7.666573353488773
Mg 3.9444726054466046 6.607476754697115 8.328428338191165
Mg 5.109200758518308 9.51112398852974 8.122262266246342
Mg 9.02419984978724 5.46435476351233 9.284627069372256
Mg 7.603314429408495 8.33693112032053 9.462232508110414
Mg 7.485187142463842 3.111182054405616 10.410255541917186
Mg 6.164481095718552 5.764572700744339 10.38382030071023
Mg 4.766079521494866 8.330118151046522 10.754529691063947
