22
Energy = -16.95840132 eV
Mg 6.0006321335979615 6.000573782466457 7.362080985829114
Mg 4.698303712467347 8.794383616641504 7.359831894887688
Mg 2.9269073877958713 6.268167639855529 7.362244848816902
Mg 4.2281352307260525 3.470226520155215 7.3631215598641075
Mg 7.305679229399505 3.2028473593366655 7.36209438798293
Mg 9.072697365213068 5.730201693570302 7.362832047606112
Mg 7.765460473406927 8.528188919964855 7.361686778400602
Mg 1.0623937775594252 3.6956520737330822 7.20531273157436
Mg 10.463695138672636 2.8732680989060566 7.206738061752936
Mg 6.473722654084403 11.426890321747846 7.211628958204746
Mg 6.152349859256194 7.727556620367533 4.707434396439443
Mg 7.423867745690278 5.008853916403205 4.70888138794082
Mg 4.432085362799153 5.270967267400111 4.707832568517321
Mg 7.952869065841882 10.315525829840857 4.9595641464286375
Mg 4.825497199660648 10.588507536824334 4.9595033023664525
Mg 2.9844145877754364 8.112463273953285 4.997247897903725
Mg 1.2880785327199427 5.540042175182115 4.959747490446835
Mg 2.618078670303807 2.6916899214122973 4.955470735973043
Mg 5.683338764320972 2.33828799962693 4.993622581567248
Mg 8.75941271288611 2.1547007062866466 4.95678232240774
Mg 10.563924481940973 4.727914811785972 4.961868170820413
Mg 9.341416165684677 7.556050166341706 4.997432996071639
