23
Energy = -18.02563309 eV
Mg 10.708646482291869 5.24668404947856 13.208004496333832
Mg 7.688361496011562 5.216359986534194 13.406424174713694
Mg 9.503344191766725 12.555186870587779 7.753316243309056
Mg 5.834969780494115 11.042281515781953 12.496284183005631
Mg 7.5024139142188195 12.246251834509454 10.276781567237347
Mg 9.73836485283535 10.170373559880524 9.669875193957997
Mg 6.963713807333811 6.064268567792873 10.333992496215732
Mg 8.240084964549053 7.9003872381738836 8.015600044299697
Mg 7.155273739367062 10.75683652049638 7.613080194304291
Mg 9.085786763522094 3.985236650245889 11.079731554103935
Mg 9.551697470524628 7.4320182910857655 11.13079723729824
Mg 11.692342808423154 5.314985038194089 10.251061082156724
Mg 8.717251243037797 10.09555464328051 12.478244965177932
Mg 9.802469708727433 9.879516097444291 6.2407862812895925
Mg 6.577740127404445 7.951226746120707 12.939419531078347
Mg 10.003260159849061 6.839327103143914 5.747812521662675
Mg 11.322417070688527 7.954618873591889 8.69330248897739
Mg 6.682674742295946 9.162832498348525 10.188651517630822
Mg 12.271346907525334 5.521748023876158 7.134708553946468
Mg 12.157095930268547 10.851285749263322 7.814504696769304
Mg 9.369591075061763 5.167293739840616 8.305638614174054
Mg 9.289033072829163 7.622170951782491 14.292865341598976
Mg 12.487382107479615 8.434874355623581 5.836437821482581
