22
Energy = -18.2006816 eV
Mg 7.762589279947831 5.765991932670119 3.1883787209865275
Mg 5.5691900762162305 7.753898968655375 3.1076435505016686
Mg 5.158460106887812 5.067914044329788 4.543792488966594
Mg 8.445959958760561 8.6231291337983 3.534564113407459
Mg 7.951462755642093 4.266532809087916 5.794029379445782
Mg 4.065987248714544 2.090346816592612 5.286010015400409
Mg 9.963297598124763 6.465641023671612 5.050338582177029
Mg 3.590330722616057 7.656510440030841 5.336707606858251
Mg 6.191511678524085 9.799773762930846 5.272042318504281
Mg 9.028513699597163 8.95188968228923 6.537091786046077
Mg 6.679893316910686 1.346848479121434 6.40121690802525
Mg 6.631188879663977 7.030032294269754 6.528509009738097
Mg 4.230950825587744 9.693492384960223 7.4505215528085476
Mg 2.653165513888405 4.8356967358829515 6.141961982154134
Mg 7.049020317443831 10.718362906264812 8.056079578932966
Mg 9.460523554841647 5.9433952916787245 7.941596443444556
Mg 3.969620005610361 6.723834702399333 8.158917899764848
Mg 8.127742176665338 3.228758566840709 8.574258714293286
Mg 8.57648615114029 8.43166293758192 9.38954591380744
Mg 5.353228028408561 4.118542493520127 7.4969361303698605
Mg 5.668478050536056 8.607444372694193 9.779682928660588
Mg 6.872400054272418 5.880300220729318 9.430174375707118
