23
Energy = -18.73726009 eV
Mg 7.864856856942297 5.005280828919432 2.158266885766608
Mg 5.5055226523532 3.328645757400203 2.9250320397237517
Mg 9.025470698770713 9.363968294814413 3.900081200055278
Mg 6.684736751216644 7.370970920749548 3.917885901896991
Mg 4.474869474189708 0.4827772853167159 4.023359416619968
Mg 4.022447545069493 8.583599815113311 4.717944841242441
Mg 9.581852849165315 6.529019543512215 4.663983365981699
Mg 4.460095273929338 5.5420340385370155 5.058515297518269
Mg 6.632401420492419 9.954027995370371 5.6137279233100905
Mg 7.403636661996296 4.595758899141778 5.315752230474034
Mg 5.114535322639546 2.687258475205335 6.034779444420963
Mg 9.258264369258963 8.706464000573414 6.805385457408099
Mg 6.471276310689553 7.116985269386483 6.952318946459034
Mg 2.83585154726334 7.165584206063006 7.061569843902522
Mg 9.225371213578109 5.721987544574097 7.612563379081488
Mg 4.159983442421236 9.817172412667281 7.4096839340906095
Mg 7.268994471744939 3.355310711537552 8.105669739458678
Mg 4.651117534172888 4.909728603747441 8.089415468748166
Mg 7.011586588563712 9.641201908266662 8.660662603822232
Mg 4.6628543070625055 7.613210695019437 9.496828908134084
Mg 9.282035295054357 7.920536858347739 9.715626850446025
Mg 7.049887732219483 5.74687331323622 9.867049576603865
Mg 6.884482987494727 8.373733928788953 11.426028051123572
