27
Energy = -22.84592464 eV
Mg 13.265369042270594 8.987110061903287 8.204513693371853
Mg 12.491001826438085 7.461730997745533 5.9335742715996656
Mg 11.499192712570254 8.767972805505455 10.778631521960557
Mg 11.485407202228329 6.357927112956262 8.852304337952733
Mg 11.70916940522151 10.76859892871963 6.194358640102934
Mg 11.968587289222258 11.415131842370812 9.190456925468503
Mg 10.07961306576176 8.601345939196909 4.639985948529891
Mg 9.94798954832256 9.000067487043534 8.058450797425838
Mg 9.653445567276586 12.586895655301541 7.9527128231352755
Mg 9.99562349034227 5.928395341544971 6.258012842490381
Mg 9.764913387514188 6.284718296867018 11.467024289017585
Mg 9.248138188734165 11.035153999651875 10.737291925719461
Mg 8.576669383039405 10.85127810313837 5.739578433213511
Mg 9.716721121915764 8.904202379138333 13.120931795788321
Mg 8.037362458958738 6.401314195791474 4.085578308236687
Mg 8.52078511205548 5.728599029396374 8.806376305984765
Mg 5.4714859741057165 9.91853413763777 6.27619934363229
Mg 7.300495398503068 7.062385410333956 13.275420067508081
Mg 7.843123672129672 8.398512372034265 10.303169324182193
Mg 6.210264658588355 5.799665551263865 10.816333746607215
Mg 7.495636688269175 7.780493749612552 6.8663388509509655
Mg 7.297224633068858 10.779777408140578 8.438824865188513
Mg 7.073829473843551 9.150201756114553 3.755718374951976
Mg 7.012028182201584 10.10571305466082 12.95069530780212
Mg 5.070914014852267 8.24358800134044 8.875461382185366
Mg 4.818873112950461 8.144560615291105 11.928138840079727
Mg 5.349526448976687 10.783425737068182 10.635458556186476
