24
Energy = -19.83439237 eV
Mg 8.198654915963218 6.175230804253657 3.6635345105924197
Mg 5.5056626067097065 5.058813318752849 3.0415043131659267
Mg 3.021591535980308 6.5631300601276745 3.7623480724672547
Mg 4.16944601238417 4.228741162466885 5.504924484507483
Mg 7.1852257771248205 3.4772248562395744 4.948082972758679
Mg 3.132577432579801 9.585825818960195 4.4139627772468755
Mg 5.7615797228855286 11.005610987682548 4.886375926173692
Mg 8.313142817296152 9.240271283923803 4.7383951237430715
Mg 10.746214498412268 7.418690222470672 4.675974099405067
Mg 3.9234164245786647 10.34315537666558 7.235081657741304
Mg 5.701358967333132 8.031995829939198 3.9064869469494776
Mg 9.68869439794624 4.859537099975604 6.051482536216598
Mg 9.42314946269329 7.802213916649882 7.31599995198347
Mg 3.9062986324003837 7.308128147991928 6.572799816165659
Mg 8.696058501881359 2.381352844599111 7.4157214139013234
Mg 5.713024534761612 2.1427924492626946 7.160974816065396
Mg 6.827278553397065 6.309313173212983 6.437184647292361
Mg 6.73425571282532 9.393609759457334 7.31651343437111
Mg 8.599068809370104 5.160476262736626 8.855105199366212
Mg 4.907696021455312 4.890534849076742 8.34704030593341
Mg 7.768939009349792 8.035960942058802 9.757822374281043
Mg 6.922869284761937 2.8462600968552105 9.818743780228807
Mg 4.842243829775442 8.042802533215784 9.333758701383873
Mg 6.31155253813389 5.6983282034246345 10.840182138059612
