21
Energy = -15.1604339 eV
Mg 7.5669929010187 3.0987806958998507 8.03863363416161
Mg 9.753699537833123 8.4816931849622 6.512629759621101
Mg 10.156008190652676 7.045561277780519 9.391297861223732
Mg 6.560886160168184 7.956752088082009 8.468166852123574
Mg 5.565926987925803 5.28600101881456 7.507826841361713
Mg 10.907151251115321 9.318200963304504 11.40248955734271
Mg 6.026992080691903 10.66065342138606 9.711249687539874
Mg 10.09213221658379 13.789348309014708 9.759584335828775
Mg 9.068063660514769 9.968747037422922 8.954578580399321
Mg 6.9607642050117615 10.337392253268328 6.6875873340850225
Mg 10.598606364448065 11.823217808170828 7.367554118485817
Mg 7.877492784365303 8.427448610430845 11.150448789774456
Mg 7.196361440004687 4.343063086070606 5.056038478544393
Mg 5.280204640998306 2.3888444280556675 6.299528389450131
Mg 7.548539475791078 5.531272634890765 9.962067051891955
Mg 7.65696170651539 12.775978380050553 8.450773501298517
Mg 12.083087740213811 11.72964744570891 10.103656434738294
Mg 8.714123654723336 11.619470687928937 11.364925251144152
Mg 8.965441280813604 5.690311949898285 7.098031559595916
Mg 7.06754772403884 7.44911928678576 5.489188215770671
Mg 12.155094200210893 9.27148917526237 8.505966084386188
