27
Energy = -22.90484409 eV
Mg 9.141856312195225 8.1950196843403 8.712751867395168
Mg 10.453975038150014 5.68569777307159 7.702504658854067
Mg 4.718774032712966 9.841534584764942 6.734942453461574
Mg 7.682346914264732 7.7046772473028895 3.4435732881736945
Mg 5.940288843224072 10.08651309157538 4.009594298113727
Mg 11.912564229662708 7.483511782772486 10.395731522304237
Mg 6.534612722505032 7.21811297633241 10.823845789841325
Mg 11.408493012291002 10.401688019092965 9.607333887564836
Mg 10.218083873057214 10.603096365519344 6.878731890349081
Mg 9.909977343207343 9.677728518724097 14.28956591491062
Mg 8.077341573062514 7.310035665207107 13.583543813502098
Mg 8.873260771219014 9.308937762575951 11.397514528447983
Mg 7.569570521776834 8.765961229810648 6.401869632540982
Mg 10.202038969687221 11.881046681773121 12.143602692236017
Mg 7.7506378342187725 5.785921549490715 5.897145509278203
Mg 8.796705554081813 11.822218400617588 9.271029137465085
Mg 12.249580378188154 9.705935200510462 12.457129643053902
Mg 5.176169326803826 7.321055913204395 4.98480323360039
Mg 5.552429691226714 7.13272064640911 8.040736276613028
Mg 10.205881589040423 7.702473244064371 5.317027145310936
Mg 6.540895814090373 9.834636350781889 9.250288332166386
Mg 7.289430339782773 11.695826726135964 6.664186374929856
Mg 12.147016157618838 8.32106599577601 7.419034760286462
Mg 8.91351663087732 10.368987483626341 4.151899058878595
Mg 7.64144378732166 5.17237749824522 8.823721276238617
Mg 11.048390156776303 7.112708263319001 13.357591282324783
Mg 9.376717180569102 6.074058883683184 11.062170233602652
