28
Energy = -23.42610378 eV
Mg 11.565086026502907 9.027341037651286 12.824766881545324
Mg 11.260677383478026 11.927588563506953 8.506404005144857
Mg 9.976962820603202 6.314536058358533 6.882117492910698
Mg 9.983807685538032 14.04562810847883 10.206479376995574
Mg 12.89922406470167 6.637883062981689 8.22027164292695
Mg 7.990220864802689 7.2798569670810025 9.31845193696002
Mg 11.05411944275879 4.156959550926908 8.525410982356032
Mg 11.28482407635094 11.860690414200041 11.707568675101399
Mg 12.623250010188094 9.595684099877117 9.911188109778527
Mg 12.600477679796505 4.277359935458861 11.005298787243614
Mg 13.721250740297766 7.0500282806226195 11.298264392095147
Mg 6.574158641194864 9.293072628673837 11.331880663772935
Mg 9.554765787129448 9.6972416478619 10.599402547391742
Mg 8.181434756564354 11.137137347432544 8.495752396359094
Mg 8.7834775368301 7.4033804950313975 12.484539641714152
Mg 7.856306804220281 8.496177276505636 6.528094960342904
Mg 10.588062753920864 9.130320344590842 7.634272244579312
Mg 5.887489331955715 10.798779852023147 6.403571318745254
Mg 7.174834944247255 14.13587785126026 9.133713839007148
Mg 9.528237576414437 14.066606722840865 7.213821216557648
Mg 11.483865870222953 6.05796847875577 13.112954489234006
Mg 5.514641104658979 8.735937894875331 8.55286750756943
Mg 9.539527667273386 4.601331939785894 11.139989134818364
Mg 5.386771004691387 11.585701448167342 9.506044008742267
Mg 7.946137782924182 12.131890773987768 11.427399237247798
Mg 6.780598542712934 13.568730380982263 6.2596902136614645
Mg 9.087559860072174 11.386881394760787 5.756840241742384
Mg 10.843142113563285 7.06079884726495 10.173523103711611
