29
Energy = -25.19493513 eV
Mg 7.314421529717515 7.7855652108528695 3.312565010049938
Mg 6.352264934663032 10.89831449037492 3.9084740406584686
Mg 8.416288877023177 4.841972201012516 3.4671400546599047
Mg 4.35731242434961 8.559947833359333 4.313040238777182
Mg 10.24286617196075 7.2351096895612335 3.724891574392559
Mg 5.37444606440807 5.737227486564885 4.377098764644147
Mg 3.010661617130043 3.8179544837370867 4.689076769710231
Mg 2.182421480125893 6.583436435423459 4.724559920541487
Mg 6.2186961380290375 2.9249659958392344 4.7045560165212255
Mg 9.217243508305712 10.015277401776391 4.209746111783968
Mg 9.191643248830255 2.727261880482876 5.420710236807001
Mg 8.071936917043333 5.972916153565338 6.3505755619966715
Mg 6.886590900803779 8.814821345259821 6.172459308993391
Mg 10.983625333020557 5.202325437609215 5.792579132794089
Mg 10.213134291490306 8.381777158204846 6.528380505334422
Mg 2.6741272209799316 8.392423036194156 7.010008120417381
Mg 4.3563344021199155 10.879496328075753 6.217352400222579
Mg 5.254590222542193 6.4351057720684 7.312167247950554
Mg 4.159186574148342 3.0406640232417614 7.157332733854043
Mg 10.573553917021812 6.398730166558638 8.672611594396589
Mg 7.0730737814401845 3.2754615389586346 7.611299250807246
Mg 10.038971404474774 3.568657781201614 8.13865830440258
Mg 5.029869940332055 9.284296869517858 8.678799984294779
Mg 7.8487865975220235 5.256653398552177 9.635467945479034
Mg 2.2040555985347856 5.302924072330645 7.489527523960456
Mg 2.8861811065493557 7.214867672536245 9.774993522484403
Mg 8.02240917866454 8.153400320249702 8.820916674151789
Mg 4.583089355986938 4.622968882593414 9.6399396290322
Mg 5.762217262782394 7.175476934297447 10.645071820882162
