29
Energy = -25.16087098 eV
Mg 6.909060538689547 9.474632180351644 4.1886275554786385
Mg 9.293504201995939 8.294340529182836 10.36333385700988
Mg 6.07846412388573 9.03196537415104 9.539356359152988
Mg 10.057167298173598 5.6275968623441806 6.135251961855098
Mg 9.672236123407002 4.973812019996884 11.311505038412998
Mg 9.005798384569795 13.305980669917789 9.661106449500528
Mg 9.580604687994587 8.467790748376194 5.0713090491896775
Mg 7.947952861534011 13.54876096466401 6.9293448540280576
Mg 11.668917300226864 6.961426107084641 12.22450627078678
Mg 12.703729780913443 8.606903024536821 10.079085855361905
Mg 5.526368764194771 8.44817974386031 6.631238847149244
Mg 6.173384640420476 12.21564280061496 9.140192085151371
Mg 10.883768814426404 10.963851997648582 10.09073605199526
Mg 6.966301165917956 6.23057381691506 10.578005087935768
Mg 9.068508522230402 11.407586023820793 5.087033340680957
Mg 7.55076127452712 3.8312333256111795 5.798668904377234
Mg 5.908340558137947 5.61040458563071 7.737251420089256
Mg 5.896569065630946 11.391665575743227 6.312389319295588
Mg 10.758737990745793 12.231798784358675 7.370361606202648
Mg 8.786043413579051 6.948743071085474 13.332476696765927
Mg 6.572485081784175 8.587023644759803 12.440615732133775
Mg 10.261447652163085 9.60584743699111 12.899255331468257
Mg 8.289231677993124 7.412717170699244 7.749520040058937
Mg 11.175374428547508 6.24567997141805 8.954412845244876
Mg 7.145623531681453 6.497325861429374 4.7660133191005025
Mg 7.914864336875448 10.954433512968311 11.234767660244804
Mg 11.12054658155386 9.050268722541844 7.598719947622845
Mg 8.37932779161049 10.361340965752092 8.010198792561615
Mg 8.619558059096303 4.400567170010157 8.57526773406269
