25
Energy = -21.60801019 eV
Mg 9.64770490428505 6.24139422317641 5.97523045616469
Mg 6.704475715751557 6.919188881119144 7.844049686742385
Mg 6.531028229933779 6.109731809009956 5.0484362702984935
Mg 3.872976013494757 4.518503529488029 4.558491707072198
Mg 9.34554409093842 5.99780280830914 9.038937090238798
Mg 6.254265388829629 9.361568997361625 5.783625280335029
Mg 5.157137482960601 4.207525662968548 7.2811599771481985
Mg 7.596391592560899 6.362628301142352 2.030839948535169
Mg 9.02048282281764 8.905519993292982 7.153519542980663
Mg 5.955507195073598 8.706776658717729 2.8963855610585996
Mg 8.638151365494476 4.185178436947385 3.878329688771764
Mg 6.999230422555512 4.006142288249415 9.590086391376058
Mg 5.443496429236949 8.636363320079274 10.715365806976775
Mg 4.088820225540372 8.57516065892596 7.853077911001386
Mg 2.7858355911987953 5.96371818622159 7.148393716078328
Mg 6.296437252537933 2.559556112645364 5.056748433271209
Mg 4.507374462716442 5.947631796949087 9.756418386837872
Mg 6.6455345587255445 10.28836818550316 8.611412976354956
Mg 6.0090487219832225 3.7402051311782007 2.41443161414497
Mg 8.551505292610361 8.694816218970585 10.194682016701956
Mg 3.8601643875465137 7.692756464959628 4.989154818162822
Mg 4.464531500099678 6.294818938229745 2.191241314888219
Mg 7.203544120852813 6.297345064151023 11.35377011290187
Mg 8.663492380910123 8.417824284925226 4.207941039460828
Mg 8.265205801636924 3.877359997770818 6.936156202788503
