25
Energy = -19.92387364 eV
Mg 3.8276850215658293 8.492014848952154 8.755895817686289
Mg 12.54049869016351 6.07664141062856 8.652606764037374
Mg 7.655220172728043 11.476431593321905 6.667854787020251
Mg 6.436285412081191 8.745906735125681 7.21722524911245
Mg 12.492793716653786 10.412796691319906 9.517269900652238
Mg 14.537858470369464 8.211702927533162 9.119043046409555
Mg 10.16762635598735 8.189396267768945 8.985170478102402
Mg 9.191108132964443 8.959779584940136 6.000098222603748
Mg 8.661132659270265 12.36341132399755 12.266995123264103
Mg 5.3913731693924385 5.959597409692618 8.30758224240947
Mg 5.310579779334481 11.21686966712995 8.815162713020454
Mg 7.218811648224713 7.664909786109239 10.239313561589722
Mg 8.213064438973301 6.334543705863052 7.4560892187465635
Mg 5.79598720636768 12.25626829965073 11.647831736860478
Mg 12.417671122504874 7.743036813746265 11.212536447362357
Mg 7.386300556305945 9.69665039972788 12.656754055398984
Mg 7.567840520848091 13.28096503870928 9.401469623007088
Mg 10.601190529659423 12.631002925667275 10.090528579701036
Mg 4.677639845718034 9.504360657233393 11.446233525003304
Mg 10.570443745383175 11.282713978601995 7.391644179223264
Mg 12.39465896920498 8.864158206283815 6.891736054748102
Mg 8.204147371535681 10.393159131943383 9.591507790426244
Mg 4.288094128112153 6.577490500879543 11.012351530454707
Mg 10.92164209921286 6.380429134910672 6.213785879374693
Mg 10.323958173007995 9.812798933499389 11.812027330795077
