29
Energy = -24.74402969 eV
Mg 4.184040986461311 5.151342714287043 5.310493717398406
Mg 6.824650137660353 4.291233181574689 9.136823456180394
Mg 6.742687906061529 7.156796843052753 10.53585696749096
Mg 4.025857464212086 6.034622313351948 8.404334278621711
Mg 13.077174544211053 8.789470283380565 9.470562549696028
Mg 10.611849496183677 13.008386064632148 8.294273144229479
Mg 10.307418232058634 10.453884796370115 9.477515103583109
Mg 6.3518954707787785 6.8502629790054215 4.17522427198604
Mg 11.122219877729151 12.99896691913302 11.459305573133092
Mg 5.326478194891328 9.205556222754078 8.532118188880226
Mg 12.573009282239394 10.669946352092033 7.093682990787196
Mg 7.487111923567018 11.483253065756196 8.04524971124332
Mg 6.902949584547796 10.186202978237958 10.8379056085709
Mg 11.402364335683567 7.8717872251377035 7.238739768796183
Mg 4.041609212330008 8.037157074679053 6.036044158595517
Mg 12.171396629421139 10.17559543314882 11.928737207753677
Mg 6.807054803378018 9.558110889633909 5.751790168830233
Mg 9.287534263619918 10.60852621666569 12.491254642855862
Mg 7.264453280052301 4.37325894343589 5.791096471295897
Mg 8.286755228004058 12.850058235581946 10.602106645489066
Mg 10.146375015860615 7.805514261530972 10.793388514063926
Mg 6.5874971184744835 6.724469406853124 7.2910794933194465
Mg 9.032395399655032 7.299710112706667 5.553864337581054
Mg 9.727400202894458 10.311265232986262 6.213794543861883
Mg 13.270998121029212 11.937628290895734 9.688068236127538
Mg 9.536021015012688 5.698052097973635 8.270406421136407
Mg 4.772531890180936 3.16197657137095 7.31904482676357
Mg 8.434117579786271 8.594368245061203 8.40524122645307
Mg 8.842230090707137 5.086275424124221 11.154085885956972
