25
Energy = -20.1447688 eV
Mg 6.788399657497743 4.499665364119316 8.58093107982094
Mg 9.48114903251516 10.121632430559366 8.96951450324917
Mg 10.617088250112047 8.318727947062772 11.229372137056325
Mg 10.085279268472533 5.520933152731974 12.48787705534575
Mg 9.10655113585932 15.122511229913849 5.3502890520777
Mg 8.389949142445154 7.147331133943377 9.522822488120944
Mg 6.20346207476941 9.847747088340064 8.81462655933691
Mg 10.619753138275055 10.05782361882827 6.0592711653082345
Mg 7.292496210886852 5.724426549576696 5.909295770347652
Mg 8.011024198103481 7.5615079044522595 12.76793867532491
Mg 5.366906084076829 7.079103708031241 7.857355010640742
Mg 10.133515349526256 7.0471045261605045 5.370574210421797
Mg 9.953240604729613 12.44783789729492 4.463389784825424
Mg 9.290742162826847 3.8120497625294276 10.190431859790497
Mg 7.681419601368233 12.528734254726588 9.681688106822653
Mg 11.687355249168352 5.679666420845598 10.007494763367095
Mg 7.721841210330124 14.862395506508692 7.909725771991709
Mg 10.258010470953359 12.996856939510625 7.528379297553135
Mg 7.954423502584149 8.516614357583803 6.8108153534521385
Mg 7.72803350233567 11.741056462406908 6.628177832393902
Mg 7.037754291955817 5.061006357194875 11.539613288103354
Mg 5.554430470344088 7.72867694199693 10.83543027553372
Mg 11.233977743104782 7.876749386773421 8.064155412391655
Mg 9.83916808285339 5.105482886457966 7.57775234052991
Mg 7.709140310435648 10.050053151974183 11.378364250346824
