24
Energy = -19.10918947 eV
Mg 4.898258742484837 9.581429177302809 7.42471969292327
Mg 7.9271274455786385 10.739092794870643 11.139942479073506
Mg 7.358929084443969 7.573483294941558 11.445454271422397
Mg 8.354193579136084 5.93251022760844 8.968036380313817
Mg 8.138831309722109 9.034140416188135 8.630263364479552
Mg 10.72818221327234 10.598222904237023 6.859280287041206
Mg 12.142546779686853 5.197502107801614 6.700204985242315
Mg 6.202146630833546 11.874731108964431 8.788805046075044
Mg 10.782622940687084 9.858838316248766 9.9809431306405
Mg 9.431018837360634 8.580449059329826 5.222689201083618
Mg 13.400460202528723 11.512967904978819 11.472347957141867
Mg 10.319954244939035 6.9682512786578545 10.941089544221208
Mg 9.540294843256314 8.96300094372985 13.016612898996923
Mg 10.80663571484727 7.6626478464292695 7.913370454001335
Mg 9.11241280274582 12.333994454159471 8.634026424513005
Mg 5.188021171006853 9.571996306775624 10.531076643623633
Mg 12.166108747169146 12.382894633491249 8.79121772087652
Mg 5.558718399120524 7.078723824793622 8.980620714833346
Mg 9.123278883669158 5.758011545262261 6.09216054642138
Mg 6.755110853286197 7.593377986277531 6.181356999953094
Mg 10.503187446421313 12.572543738049136 11.417246366450136
Mg 11.591748890180787 11.16997973996174 13.859451072818649
Mg 12.5272321256976 8.72354517086889 12.339231531458141
Mg 7.649700490354978 10.876200214027733 6.284336156389824
