22
Energy = -17.53001982 eV
Mg 12.758807593173744 3.9891101328016445 13.316604198204725
Mg 11.263246636882203 5.544058014084483 11.152875830019987
Mg 11.329556473968426 8.68064654775378 11.737180308322978
Mg 8.78434298116308 7.242985224823137 11.06558935557312
Mg 9.329819753717636 5.332986360655824 8.711873348450297
Mg 11.216885817707063 7.707802585361153 8.852430444014209
Mg 8.778493396690338 10.354620348673556 11.248180752186352
Mg 10.63792510414411 9.687495150408255 6.488975431837347
Mg 11.103543062484345 10.681544711266046 9.38574325708054
Mg 10.926816535275538 12.599950295582667 6.9710496353463025
Mg 8.335611207410333 8.876937086340362 8.410218957946512
Mg 8.016916083325935 8.678572614970962 5.215460154582815
Mg 7.5150351603190755 5.706910756840296 6.2630410323208565
Mg 6.215907258761728 8.6775280549663 11.515714182103261
Mg 8.497329893619838 12.029742990341537 8.55249435049987
Mg 10.195892129233005 6.7547052540137775 6.163865455644043
Mg 6.100581727397666 11.300935326951837 10.112929809032208
Mg 8.518835031506736 11.685790082530094 5.397565142438736
Mg 6.511155325997776 6.590815098370842 9.17478416466886
Mg 6.224889001982347 10.694810550439385 7.043491707246301
Mg 5.497056161919735 7.8007337084200365 6.587427826612294
Mg 4.508320100902975 9.027803797671396 9.100993406913616
