24
Energy = -18.72832905 eV
Mg 5.414887747420909 8.317619034371688 12.675097189653743
Mg 11.537422234489053 8.102231784204704 7.57298125956039
Mg 12.570128445718959 10.000936290591241 5.441248290097133
Mg 7.481061987583204 7.074985496269915 10.78500785987141
Mg 10.821500960980115 12.377717807496465 5.284021111741073
Mg 9.16143405206564 5.2224389943668745 12.49820466390228
Mg 10.840235519109907 11.310599903360021 8.226984492736568
Mg 13.401407273713238 12.502556153103495 6.923177845405261
Mg 10.345977042391432 8.209998635912573 12.417112710985231
Mg 5.46109941372834 11.967910188242202 8.17907924894458
Mg 5.755418874531371 9.581592210055861 10.001631571328947
Mg 10.392305191196986 6.401406218256389 9.929947528846784
Mg 12.4658527858201 8.812344884454378 10.382684390184734
Mg 14.22940719314187 9.695235519151606 7.99966252294702
Mg 7.928907695207743 7.605725275959249 14.116438772363825
Mg 9.535739980807106 9.629483020280466 5.902811691552109
Mg 6.7689578641066195 9.516199086697014 7.12535732508009
Mg 8.149960493552049 11.884493166693703 9.650576062856823
Mg 6.236984763844359 5.3773026330853595 13.177826864069976
Mg 8.050111244466956 12.282557125424358 6.514821288686701
Mg 13.251279082207493 11.783359069083273 9.927527046098888
Mg 7.8724999191288285 10.040789333682794 12.185682266076173
Mg 10.603853432646062 11.042276773140845 11.310867094509351
Mg 9.078553232077763 9.03031201428436 9.176035976902865
