28
Energy = -23.22367481 eV
Mg 9.950847604275616 9.489663330596702 7.11396433603589
Mg 8.023009993260334 9.790024849605945 4.642877966857217
Mg 11.032906397908736 9.993382748928171 4.420719191235152
Mg 8.723805312863325 9.240543919616353 9.924160442976655
Mg 6.602857364134321 7.427530959404096 3.0366719873478316
Mg 9.44806708206613 8.259849737950866 2.537516341807184
Mg 6.8556059009677 9.742561365517517 7.525550972932128
Mg 9.715793676620903 6.737438262756996 8.34389196125649
Mg 5.057410214916297 9.260760719591898 5.061867491992616
Mg 10.572291424814514 7.129950080294174 5.280254186347632
Mg 4.1790908913613904 8.068383664638358 7.860654867310897
Mg 5.808608325004007 9.902479181372264 10.454254361068449
Mg 6.745525959246416 7.0828279914687995 9.252745969190483
Mg 7.44818551725345 6.99324025742503 6.063940373119545
Mg 9.014753515778791 5.4501291352898225 3.2421844576926646
Mg 9.45036063407031 4.466420881520699 6.257954716490006
Mg 2.0738353030602803 8.704312223256277 5.676348359492826
Mg 3.9888290462066163 7.6745063390071255 10.905014919955887
Mg 7.904622149782332 4.332333835440395 9.001027657728862
Mg 4.092842703729508 6.531121745709803 4.697440628364055
Mg 5.724210598070637 5.027029478381812 11.139646864386824
Mg 6.330460445909009 4.539049224968403 4.322814324933605
Mg 1.866571229320336 6.0244600938481305 6.940518799656768
Mg 8.643014209803445 2.565889415593546 4.024071865882267
Mg 5.2097154302991475 5.14932503748003 7.162873470046787
Mg 7.037642442513729 2.5927849211377683 6.660288576282132
Mg 5.250005389595099 2.8202494904150517 9.150080787435737
Mg 3.194421769772923 5.189292294125608 9.44586973562246
