27
Energy = -22.74498526 eV
Mg 11.41734913075637 5.624737181358662 5.760618581949302
Mg 12.57641971235431 5.606128658226557 8.665111882030116
Mg 8.411906913915765 5.950457204815466 5.638802201122744
Mg 9.936365990724152 7.015202381439008 7.9993719294093335
Mg 10.306670041334929 8.500394012817695 5.0292083598931505
Mg 12.782345771844351 8.018870325524794 6.814813134571178
Mg 8.554392106604208 8.740380510581327 10.092979348773559
Mg 10.371175481219211 6.034647351762706 10.83074234478045
Mg 5.57583994559168 6.800371089195694 5.758195237092426
Mg 7.049252232596357 6.23807501393684 8.74021132895331
Mg 12.188583274251648 8.41573781999909 9.825049352808295
Mg 7.500258536187516 8.330394435349417 3.9552950898356216
Mg 7.702817802308784 6.780253277570801 12.140526709360639
Mg 5.077451716345847 7.459754693753243 10.586837125714041
Mg 10.556217214600261 10.05551537898614 7.626041311414638
Mg 10.696636644390782 8.576245934085327 12.45069780005699
Mg 7.555579333520212 8.779366312754757 7.20420027116104
Mg 10.745723702006899 10.94261528298432 10.56339224434362
Mg 5.820582698142233 9.231488729278292 12.832604124292772
Mg 8.402440182352072 9.10527937458288 14.15144936684636
Mg 4.470341192599706 8.64137351988331 7.851007124595614
Mg 5.078834903666071 9.716848171933743 4.926096177652113
Mg 8.279658327070692 10.9168310070586 5.370168826435185
Mg 8.078440177528824 11.141749479714292 11.963003182904178
Mg 5.73279430691888 10.416413938187581 10.017171854540512
Mg 8.250427763090048 11.653886117277498 8.829430867365078
Mg 5.716615024904688 11.428449839290877 7.1864832045585025
