27
Energy = -23.10752181 eV
Mg 9.688683938365399 6.47200212173474 6.243024183305895
Mg 7.248014854140569 5.326445578404989 7.869231058859091
Mg 6.656651793566588 11.522361048586532 10.033949518944617
Mg 11.795723378630404 7.855666717401083 10.821637957998938
Mg 7.6478354725550535 8.606583781682339 8.953734361535432
Mg 6.545721795150652 6.462695884035963 10.669970892359183
Mg 11.061509003098136 12.753804501483666 12.37946028688701
Mg 11.949105020789073 8.747612328293778 5.849749493580054
Mg 5.661025006802666 9.983825010504535 7.25761695220009
Mg 10.278127649463691 9.829178290888168 13.191596080484555
Mg 10.39289096055686 8.652506081160196 8.294837586236506
Mg 12.928768788993292 10.42942492847713 11.692093256648707
Mg 9.146977938862591 7.235806178203841 12.05902182160816
Mg 12.407760841264917 12.546913358137804 9.632914562351534
Mg 7.192755830620103 9.388133782437121 12.085239624763103
Mg 12.44776355804705 6.641344078618961 7.906798395884102
Mg 9.730622470687859 10.467363515363521 10.355722854386933
Mg 4.661235477177862 9.105130412111215 10.239641994394326
Mg 4.7782662110142295 7.111216075558563 8.158837487867698
Mg 6.730147875196061 7.454388737451291 5.819164234663801
Mg 8.005772380184698 11.911775268140294 7.490868951327868
Mg 13.268746320222766 9.684962481660287 8.649336620802217
Mg 10.948281753998593 11.431784262724305 7.343955332211326
Mg 8.816512198395566 9.51697105475697 5.90501659058875
Mg 8.222232407440057 12.308979988896274 12.636748928526607
Mg 9.676461879304474 5.960915790657895 9.404003465757489
Mg 9.416050669470994 13.347292771307497 9.775972000680726
