28
Energy = -23.74558012 eV
Mg 8.800678165435833 4.906863273609502 7.331053640707417
Mg 10.82916851746384 10.32714970462888 5.790768046071358
Mg 9.047142222667103 12.629376702871099 9.902663607250517
Mg 11.53784129891777 5.608184097003322 8.555652308465813
Mg 7.737052264782279 9.409874219628568 13.5523812437516
Mg 6.715942207073439 7.194316735683607 7.21488731206595
Mg 10.96028784138913 10.564880700141 8.914468710841293
Mg 11.238042392601079 6.254710518988907 5.625342328546782
Mg 7.410784616778825 12.137391163122135 12.256001288814058
Mg 6.114601928514658 11.688506129043835 9.55503912483418
Mg 6.241445019164656 5.278191083245655 9.442664159650572
Mg 8.339434196923563 11.18447943016446 7.401475432561821
Mg 6.608717710171745 7.010198800165952 11.90956440239339
Mg 12.66715477051809 8.322476577618513 7.568926172549854
Mg 5.317886090055171 9.883612120018293 11.794134827503786
Mg 10.209792547789673 8.365373899043686 3.6247969041457084
Mg 11.437052663017996 8.016820432019129 10.372014773063707
Mg 9.56838784403002 8.111444114034597 7.5067569413374
Mg 10.064377186592237 10.443594223287546 11.886606870358177
Mg 8.032553647358018 9.16833717693455 9.878679873998175
Mg 9.608631106935285 7.4193670146442345 12.66136934687779
Mg 12.994416900325511 8.585765622305932 4.584754048571032
Mg 7.754276377206483 9.336952003647369 5.0450642012350855
Mg 8.99268715962843 6.201583973424372 10.030435382998412
Mg 4.971070706872562 8.061868927649428 9.504298784627968
Mg 5.508831761118533 11.466444479678115 14.586831908170375
Mg 5.612426289235558 9.955165294680441 7.16068000953028
Mg 8.29749962246042 6.391348516324912 4.73928062404221
