21
Energy = -16.94907287 eV
Mg 5.121558387697448 6.826252416372462 3.59245799549221
Mg 8.120412650452714 6.429819388562911 4.376552707440033
Mg 6.537663565762165 9.112838691100722 4.913979027670194
Mg 2.905098977307121 5.217783241369244 5.024118136460339
Mg 5.97185801554144 4.982178466733362 5.852240988442382
Mg 4.367267020787346 7.659700009419293 6.4264868601879614
Mg 9.556813881137925 9.005223063946346 4.608050538361885
Mg 8.762614892115844 4.058157599221787 6.351980331282207
Mg 10.531889621674239 6.471876237642563 6.345050465301389
Mg 8.190192371324938 10.95950928522248 6.527774520136691
Mg 10.736212777125752 9.498726648671628 7.271436280892657
Mg 7.6306106923995385 7.3371013173142865 7.344009339870911
Mg 3.6407950052911553 4.8208167294417095 7.855064137107487
Mg 5.698453017560819 9.89344258135228 7.940768100294777
Mg 9.68543218837236 4.548439562934344 9.048871936256557
Mg 5.011585094192405 7.09746865693945 9.29574762587246
Mg 10.358586659089077 7.394944664574427 9.263530653858473
Mg 6.708260643178695 4.544415445863441 8.71988653719712
Mg 8.401087577653204 9.663197450408221 9.325198829617971
Mg 5.923293310824175 9.32520748960206 10.980023000865803
Mg 7.73560774737828 6.748195150174651 10.53206608425743
