23
Energy = -18.99875723 eV
Mg 9.432510032322824 9.483313608276456 13.036176984799413
Mg 12.956236180230903 10.356752559869621 10.939518270419574
Mg 6.5136165212564485 9.430789889535372 11.796602498433952
Mg 8.407508759389506 11.224282424287185 7.598439556730538
Mg 6.761645761914327 8.968102544858091 8.854676561599495
Mg 10.865542403155535 13.140574907999692 7.386534156702977
Mg 7.1589787280791075 5.786760970402969 8.305279720114598
Mg 11.612779650863324 7.6956461482866585 11.583399458368246
Mg 5.655919879339269 6.491735874036511 10.811780283623325
Mg 7.914719273574981 11.980539314123615 12.392678139258978
Mg 8.001927607344717 4.512060474040788 10.859902010207405
Mg 13.096087670562131 11.260191591912854 8.13556469478204
Mg 10.938887147657885 12.088460297422847 12.438593698501787
Mg 8.6898185609023 7.581080758749012 10.848774479251276
Mg 9.210834392771448 13.182444697883625 9.903652325941046
Mg 12.144060704346597 8.388645874826134 8.664180282153366
Mg 12.266369766826154 13.32611210689104 10.08893330678482
Mg 10.966706635452393 10.190644425554607 6.456137992867851
Mg 10.541762567502275 5.818770374321998 9.295016076358136
Mg 9.95502406028873 10.234494047727686 9.993662088806396
Mg 6.451535034461792 11.797812737634667 9.84287847861913
Mg 9.294561675929746 8.002313604705844 7.5689065229115835
Mg 12.317379112734159 9.637024393547176 13.815861149625988
