28
Energy = -24.35187868 eV
Mg 11.666130087342173 14.253375317150528 8.244094103540887
Mg 14.170727243744912 9.275160716535451 7.3935019140071185
Mg 13.162163346910729 7.0403570113141605 9.279468626821835
Mg 11.382138464120375 6.335661859103811 11.795759436227266
Mg 11.504731717483072 8.5992111064427 13.716628344600554
Mg 15.039128694838498 9.412180995040627 10.217724939993563
Mg 11.538356462636745 9.424624553477006 10.476042712848294
Mg 6.380257962972248 9.97039279476294 10.975665795215857
Mg 7.481355976780115 10.865469140389061 13.700664014937422
Mg 11.542866356765394 13.024556035408446 11.25829296737822
Mg 8.503371441972261 9.304961167349063 8.746225307975566
Mg 8.90460585589234 8.342564121591266 11.945648685803473
Mg 10.954074219193515 13.515811149372958 5.080711728549454
Mg 12.676686172052454 11.55472956099144 6.264256382976962
Mg 13.524811718247031 11.815847890669799 9.26077157407178
Mg 11.199335290922832 8.887389663633787 7.248641966247348
Mg 14.001431004145456 7.623006292589118 12.25227018643144
Mg 10.038991601699903 6.868830533609122 9.243455690968048
Mg 10.529437222628964 11.6209869787466 8.591334011575839
Mg 8.820561223849047 13.599583348556877 13.023383027937204
Mg 8.946182128358135 14.283923905871626 10.061143784916911
Mg 8.796054830236269 13.978392105555558 7.085067693407696
Mg 10.625757497805445 11.353633960181927 13.726445948508047
Mg 9.093608965436216 11.252088495999107 11.08448563988342
Mg 13.388739406169625 10.805627385489514 12.429741818714177
Mg 7.142406339317457 12.00525194182128 8.678602697224656
Mg 6.364495393727189 12.923589947731655 11.521730052255393
Mg 9.1194354973921 11.083838572038275 6.105669918292834
