20
Energy = -15.89528027 eV
Mg 7.3592480570322865 8.144494349190916 3.4088579720769743
Mg 5.694082710232069 5.724901103987374 3.718191879605695
Mg 9.06812432618067 5.827542346479813 4.517823385126281
Mg 9.556658310278364 8.73630984667049 5.284313616606182
Mg 6.885184113331776 10.248667699713382 5.556845599059033
Mg 4.714369857543223 8.313178426408884 5.067255308211693
Mg 1.9382572074696447 3.2589471933373404 5.066249427390628
Mg 4.517534711218142 4.610699483463804 6.365802481499564
Mg 7.161337622075492 3.5140136899730123 5.039553956733164
Mg 2.726038277874842 6.219077466228871 4.504350035060876
Mg 6.853669006605848 6.662766431645057 6.602888121261484
Mg 3.163215688763266 7.142781106382312 7.406232772640895
Mg 9.386443288692059 3.973378941396335 6.944686964599997
Mg 6.604601258790388 3.3113888501714395 7.9979950256761505
Mg 8.45016787449537 9.644577736964768 7.970598640973482
Mg 5.379543789907912 9.069889200511463 8.071365117120747
Mg 9.68263647142239 6.8791423329840775 7.640791232898874
Mg 5.23284243130554 5.8506601865283265 9.199774782929037
Mg 8.259844187323054 5.049346483257404 9.629860113117795
Mg 7.366200809457692 7.818237124704227 10.006563567411176
