22
Energy = -17.64232917 eV
Mg 5.91692158438671 4.639496729199619 2.4390605922867175
Mg 8.24338058033581 6.763374313376101 2.7634079289003908
Mg 8.5983416296684 4.002987377987614 3.855638602737011
Mg 3.801452621781144 7.646622196841247 5.397187065062108
Mg 5.86563298062856 8.503096541646007 3.4241289640299626
Mg 3.669687319972633 4.590830113552578 4.982462767324785
Mg 6.086121795089745 2.74326629662172 4.964052003370975
Mg 8.456515731080392 9.298943916771723 4.648164469281498
Mg 6.34032340059539 5.97694456154475 5.0492821386404225
Mg 9.273246957234091 6.5452315041114115 5.655715318866582
Mg 5.932902331355937 9.651962956155126 6.246173658001724
Mg 6.551938159973955 6.92429790640067 7.626068204688637
Mg 8.778052014900524 8.860142214418948 7.663970555840801
Mg 8.120106387617447 3.946148979097727 6.905301167827043
Mg 2.7884279017612488 5.939733694287004 7.607831326824608
Mg 9.687788389211741 5.963842334395557 8.560959565240372
Mg 3.628083349552379 8.76196266610704 8.14916644112698
Mg 5.17350390368851 4.142637357983362 7.5877453275243765
Mg 7.272184905577263 4.5881708612345555 9.721030697950207
Mg 6.166107417530779 9.575730779399313 9.364231369048582
Mg 4.802252139785864 6.501337661697837 9.915564685981197
Mg 7.852153579301104 7.438364118200317 10.4779822304754
