23
Energy = -18.67536023 eV
Mg 8.042393933604167 4.16390919584886 6.44601261910229
Mg 6.659297790105953 9.78077449377794 10.717721272713657
Mg 6.548315714409503 6.858659543716423 6.124142681091466
Mg 11.390442829220731 9.367311148521418 6.868754554786013
Mg 7.776741538591213 7.571855275473471 8.83045871353247
Mg 9.674120630673109 6.819721783425616 6.515493600775498
Mg 9.849854595727276 11.968106719740526 6.623357448033795
Mg 6.0489351188157565 4.896539178012407 8.427331643730533
Mg 12.861440206248115 9.573727146349924 9.616350872595646
Mg 11.204009885701556 11.714742342490645 11.350523179929677
Mg 12.332714834727007 12.095773864074538 8.276445154871409
Mg 11.312372793814335 8.596556271512794 11.957697673718842
Mg 8.069725533423393 12.461896209487907 11.26545757833316
Mg 10.927677158486263 5.548507728828542 11.567700230921574
Mg 8.88892622193897 10.142372223255286 12.890045889884707
Mg 9.879683777291312 13.469033485862436 9.22707973057867
Mg 7.305691095335888 11.830895144838545 8.338400606831419
Mg 8.228191734411332 9.501464120312082 6.343750499377582
Mg 9.008236698990846 4.672749659716194 9.321625389982565
Mg 5.622831502292319 9.365577815480624 7.8336172645829905
Mg 8.550923790238825 7.461751646202867 11.61725188410967
Mg 9.568714252735525 10.028092717308065 9.412024690768575
Mg 10.933547055580156 7.2837613988894745 9.181538279870914
