29
Energy = -25.42664977 eV
Mg 5.999034252632004 9.491807922442806 2.6455388855940996
Mg 5.558808121057392 6.609502226324958 2.4539461177147475
Mg 3.6147215000380246 8.213199383562936 4.11082037462932
Mg 8.056232580549901 6.787930772557128 4.187170694460126
Mg 6.285416662137291 4.0750184852181945 3.9133144329889835
Mg 3.2631848922389706 5.2253029839198435 3.899899951206802
Mg 5.147923683183328 11.047315457584883 5.128136870636594
Mg 9.202910039507902 3.8716020416826655 4.575052237317399
Mg 8.212340288454998 10.17280677496034 4.337140230860173
Mg 5.018091054085726 5.700874443246684 6.227121881124293
Mg 4.402934810025929 2.7369008087535995 6.1254026412910045
Mg 6.061006075149514 8.335642747727267 5.984481741496096
Mg 4.86196351390546 10.639289163203514 8.263236185043501
Mg 9.415793125293098 2.955918511480727 7.477722338450221
Mg 10.656304876453763 5.693069852836589 6.461279131088622
Mg 7.20200566951188 1.9084459906773537 5.698635924961088
Mg 2.743317476406215 9.520292802886472 6.648180766537248
Mg 7.717278095032843 5.471902417426646 7.099159992410699
Mg 2.1297369590902973 6.618995122157355 6.4080298244264
Mg 7.504691246931726 10.99391467272487 7.074653698243762
Mg 6.327784201197636 2.9073731063919124 8.450200658365356
Mg 3.674364058859643 4.371122434954711 8.662730265118963
Mg 9.065558807316973 8.319198441217356 6.672758436233473
Mg 11.367542408046479 4.576833267340355 9.156646754649428
Mg 9.373636796212033 6.736403354727926 9.348379031781857
Mg 4.032006207519382 7.5575664612915245 8.618389622862987
Mg 8.598050815147573 3.9352214858450942 10.18184921650532
Mg 6.919392756364377 8.438928540900683 8.90886641923556
Mg 6.170584314265519 5.67023561257164 9.863870961381751
