24
Energy = -19.35526769 eV
Mg 8.374778484982718 7.165092700892025 3.784586662500148
Mg 8.342499118178285 4.264585360197102 3.334420152478271
Mg 5.952182300034553 8.70341513889449 4.251502210314737
Mg 5.63314204707947 5.816526182815653 2.9602370323412677
Mg 5.821657891672419 2.843281828059182 3.8893140602655514
Mg 3.4301025538723118 4.283161852494805 4.636908957014592
Mg 3.358717643872089 10.267403648842546 4.882681903043077
Mg 9.442491409526905 5.442053739449851 5.961149585251097
Mg 5.929258402230892 11.039839331411605 6.33977372741794
Mg 7.941298765279129 2.7060282588831455 5.977581420333055
Mg 7.913782726736943 8.313344954532289 6.702461885427717
Mg 3.3722255179368306 7.2404443997964485 4.602115199981153
Mg 6.312534254779109 5.711301372568422 5.992716573940168
Mg 4.944657796372541 3.0029039132298774 6.901265453672263
Mg 4.709252821893748 8.339875614263914 7.110857216023788
Mg 10.19938414701016 3.2565447572346806 8.040289959839171
Mg 3.2644524215803963 5.686458909945196 7.342376754736357
Mg 8.411931042476045 11.316522440644539 7.9987818544606775
Mg 7.351090018852779 4.025702361529631 8.575827688265692
Mg 6.090588041612413 10.070142470438537 9.30704899707951
Mg 9.395669762151622 6.225616342682908 8.805845207922328
Mg 6.375707966385332 6.852625464876708 9.121300755854568
Mg 4.567972296078167 4.418093928030357 9.670419213313119
Mg 8.848722970765513 8.993135429646607 9.794637929884725
