24
Energy = -19.73704367 eV
Mg 6.667077576967205 6.753801070165547 6.33368889907843
Mg 4.33223446797299 3.3215239860537387 9.43892175617635
Mg 5.79091858416619 7.1934497215897775 3.288299413801917
Mg 6.893877356716744 3.813235897033916 7.229485971274868
Mg 9.06679318788603 5.342318726501789 8.699055104656921
Mg 8.233482360764445 9.311936507269206 5.487024812121473
Mg 3.968043023569031 5.297849212756185 7.119940556854041
Mg 7.293748022203028 3.204947883058824 10.273816743021033
Mg 5.985740823020639 1.0754390372309002 8.509192555834145
Mg 10.220456689820967 7.127659984636086 6.564575364116527
Mg 6.107716241675742 6.036148255487819 9.327542494438127
Mg 5.432644367368752 10.161867257945033 4.117807516305999
Mg 3.700306792165496 7.893873286839725 8.489471970683766
Mg 8.779834391534083 6.72181619760506 3.8782788592523687
Mg 5.6887636293281965 9.730039961127927 7.090598096695403
Mg 6.678795219890472 4.420482446115234 4.29944207201707
Mg 7.91149531057577 9.292473321911718 2.4332505494638843
Mg 7.7865699153641295 12.018653630007819 3.602304825607255
Mg 3.7742258115896683 7.885706985891569 5.453570387045644
Mg 5.867339554685855 9.033506859692606 10.12127563613572
Mg 9.413955689048725 4.437399965390528 5.754057949003249
Mg 3.751016332877032 5.082977077106596 4.1396673358857194
Mg 4.497160869534112 2.611629719802774 5.956224233626506
Mg 8.21772494567819 8.291184173183641 8.45242806130777
