25
Energy = -20.53440273 eV
Mg 4.872102448136023 9.972627743648784 1.2898511478987869
Mg 6.207475405452246 7.321478743778278 2.026362560115439
Mg 4.037409364720699 5.442735652144102 2.9806283515162852
Mg 3.5491781852183357 8.363470056036322 3.569765280980563
Mg 7.242811467250181 4.736355035093937 3.5378521977357726
Mg 6.280241808441901 9.749280116823178 3.9804582000054287
Mg 8.644394700602176 7.598594878828834 4.291313930341742
Mg 5.8669111070143245 6.960602961513058 5.101904943788241
Mg 9.636152413611494 5.018122032575368 5.329155708097796
Mg 5.130925644688393 4.060025316246799 5.7578122265169025
Mg 3.0155752503200453 6.357319747871648 5.995686888771748
Mg 7.820579834654128 2.8389835582996166 5.949570713727813
Mg 7.670355147423387 9.269622806214489 6.729086165592433
Mg 4.576171729828655 9.145384010928792 6.646265552289171
Mg 9.711023782816875 7.170876354488172 7.351304111134226
Mg 6.871806113034039 5.942852143011585 7.577727222959114
Mg 9.310786909036539 4.2095868928984705 8.30967159587585
Mg 3.7150187107661217 4.390199388908749 8.338251504695327
Mg 6.36115029005785 2.9674292552840296 8.579092380497773
Mg 3.7538565514607436 7.260171345345228 8.761260985383002
Mg 9.254101721643048 9.341968155808894 9.368171663951493
Mg 6.396414748204198 8.455410124756328 9.316223694665
Mg 8.793590279065418 6.610412280251277 10.372912827908053
Mg 5.744497209972415 5.558594491237614 10.409173371988404
Mg 8.049228824503151 3.7696565559285147 10.942256421485707
