31
Energy = -27.0682908 eV
Mg 6.7164486307233515 3.829566360217084 10.667398322052973
Mg 8.172915125277017 4.183549019271657 8.128396566486856
Mg 9.950070219253023 10.068143334323068 9.294920565615609
Mg 7.94843298080671 8.998849925853984 11.386152384333075
Mg 8.422298086127752 13.79859455094421 11.622196048387599
Mg 4.41002669024138 7.5997628857147115 8.08615897758125
Mg 8.994311348346704 14.11960373201496 8.659215100346659
Mg 6.864017516425581 6.511698018676464 6.575996910128158
Mg 8.947862074158493 8.605747462013339 5.709104092393776
Mg 11.513700850474741 7.8558133336739955 7.155009020621692
Mg 9.736387472196533 5.762124961595352 6.066377114016611
Mg 12.454735241121158 10.421502575471978 11.55128589077753
Mg 7.360349887077035 11.777463129539067 9.542868679005675
Mg 9.070636765842076 6.976442219263369 9.163160341035525
Mg 11.230954417193894 10.550670059323402 5.818679364714137
Mg 8.637729346906411 11.60228856350946 6.800047039511444
Mg 11.086450372189695 12.798373436975432 10.260985317313397
Mg 8.507252571063468 5.953714040353685 12.150388937279445
Mg 12.818681507450721 10.602579005156406 8.542716269346773
Mg 9.712647920115558 11.20170403668975 12.521843821394308
Mg 5.075048195714693 4.757204143478031 8.291071006799868
Mg 7.121760770826905 9.124738023937615 8.111679039590046
Mg 5.179413586983635 9.706998671297043 10.369421459434092
Mg 6.66085205451245 11.61933782210548 12.467014091858761
Mg 11.334904375106005 13.037122014990436 7.298961491082995
Mg 11.31060927528141 5.049706329420447 8.563168931904622
Mg 9.611058185949142 3.4850017815524508 10.64525622281068
Mg 11.402070984739735 5.5095797817784185 11.680968516276822
Mg 10.6724784747574 8.277891824702184 12.583837463086754
Mg 6.202106204695116 6.758790291482188 10.354393834420234
Mg 12.288683500357875 7.887924612706194 10.04070758188723
