33
Energy = -30.18105598 eV
Mg 7.717720762534006 14.869984322024045 6.311965828409679
Mg 12.049388495698963 11.843820353471473 6.675728452611469
Mg 7.526426104102219 9.770681628969728 5.612730486151876
Mg 10.50257275827527 14.471642738673397 7.051459770589467
Mg 8.011112817617391 9.073517369885453 9.186667648616908
Mg 10.471227185550028 9.326334287164869 5.821819241401755
Mg 13.994734256903683 8.997046026185624 11.36241855501266
Mg 6.260843089028994 11.500822949646704 9.930605272106291
Mg 9.197337051542236 12.349518500641327 5.1919010886777075
Mg 11.820129449061936 8.588988845496015 13.537634092746318
Mg 9.75848960350168 8.825282954872552 11.427082468207056
Mg 11.183579555380831 9.474814032112533 8.926046929421332
Mg 7.184468395543594 6.935722811768965 11.755517511331066
Mg 9.18611841474381 11.433335275351391 7.987862813376391
Mg 13.436769510499033 9.176834629969798 6.337116184675435
Mg 14.267125779227289 7.6974118965168215 8.653543727388769
Mg 11.994833018007009 11.175747550085756 11.786340786582889
Mg 12.06198468024465 6.838319347841012 10.49406298708289
Mg 11.39567787290574 12.986487282908966 9.483815278615435
Mg 8.621225220834493 8.112288740140537 14.338978090910894
Mg 5.040339734453754 8.693876675209335 10.575612214975205
Mg 5.406145309562928 9.253501721019758 7.6376857031552605
Mg 9.679383819690646 10.820565855372926 13.862584526551124
Mg 8.55631391848731 7.206695767740169 6.839819685994595
Mg 6.271799711809518 6.514245660248521 8.897407751670917
Mg 8.115807208597086 13.952391145910951 9.148912938754593
Mg 11.567587138972147 6.82505882359615 7.430927846392005
Mg 9.085119006831158 11.838679180252674 11.085435853037417
Mg 9.9918862964841 6.037320822306108 12.616759054084548
Mg 6.999420899047528 10.005332181204093 12.529722872752812
Mg 9.286555629016142 6.147656119560785 9.508543720659144
Mg 6.39723871122879 12.237122844949 7.0198367922699045
Mg 13.832234689004315 10.927295643416855 9.021270072705391
