38
Energy = -36.06051322 eV
Mg 5.681055091581581 2.793271768495891 2.1907147262064712
Mg 7.885542241397464 4.528202874782642 2.9202186664696725
Mg 4.926280420268181 5.699160531025116 2.6391338081742086
Mg 7.382956784143638 7.627778135059487 3.5640205858852814
Mg 10.197408923173255 6.312188084531892 3.932154615721206
Mg 3.663647004848207 3.3848070335589946 4.2132181958747985
Mg 6.448332914567841 2.302999019181527 5.071594644084963
Mg 4.404842093118114 8.497371786294957 3.7715657991146934
Mg 12.479957055621464 7.968764629891107 4.819391019508877
Mg 9.775181139134341 9.391303038900483 4.454205528053494
Mg 8.989655904489139 4.050626766575423 5.779517684352844
Mg 6.223248384534935 5.399016079625609 5.382456971196105
Mg 3.2456497436848712 6.164330512865524 5.4352770838778675
Mg 6.767241352517691 10.497657687919675 4.41771337275961
Mg 3.7852381250460194 11.260674817566345 4.639948665828271
Mg 11.10436760029147 8.891064967194328 7.266451128420152
Mg 11.480836416936029 5.83332005230751 6.739631955656733
Mg 4.369364157120793 3.5910158170995903 7.1491208783034725
Mg 7.126525207542363 2.530722131722566 8.001395591923405
Mg 5.870962654446821 8.186987614414022 6.448457964311245
Mg 9.757578946228357 4.041466742766792 8.59578164303803
Mg 8.687722799017612 7.191036270359905 6.453196582349096
Mg 5.3319781100687775 11.122618875647879 7.161974794679636
Mg 4.002492490963624 6.3904583158459864 8.346104378577115
Mg 8.328999562563375 10.316407363762297 7.041747470907217
Mg 6.962821335618839 5.525599672460812 8.210811116606747
Mg 2.97753299774616 9.022549374026054 6.5873188904237105
Mg 9.973564654691321 6.840005659861957 9.388799994716154
Mg 4.317952437310414 9.210473572193214 9.368923805145876
Mg 5.158357560514206 3.7466205900154947 10.069197346121303
Mg 9.775181959209009 9.904752400099635 9.873286036433099
Mg 7.242253287710645 8.289260711285365 9.117438401632757
Mg 7.932919322946268 4.818951340105569 10.963449508555545
Mg 5.432344655137486 6.599443468539323 11.04428157852256
Mg 8.327148795621483 7.635540725105025 11.970897936828779
Mg 6.871130653692763 11.236928692786728 9.810393870063894
Mg 5.788750100542365 9.431716088529887 12.04314819079454
Mg 8.430919802778062 10.629834567229896 12.339001265230586
