38
Energy = -35.84007226 eV
Mg 11.047072803048765 5.829723270399097 8.604496388836086
Mg 8.880345350926847 10.001178133011013 10.4086145403066
Mg 8.58548368514395 6.978869773402489 9.93000799932949
Mg 8.737703465376754 4.054594004943088 9.183692123375518
Mg 6.803363095601478 8.406415979496996 11.864185652370606
Mg 9.831104033671805 8.633500966681838 7.52405380531337
Mg 10.404506682084282 3.715261821971549 6.4431152412191945
Mg 11.846781585496043 6.4756995442263925 5.922558391297175
Mg 5.9992053301154 10.805991279173343 9.982498346372315
Mg 6.154989757064843 5.447509901851176 11.295099752364724
Mg 5.886443006087428 2.8519964673766443 9.620105610912802
Mg 8.468684286929323 6.045801079290596 6.370905364841236
Mg 7.285133829670066 2.7583217227943555 6.9233965230936025
Mg 6.798683337958033 8.62824296900054 8.046172224826744
Mg 4.54494049361566 7.679908941817694 10.099221239194787
Mg 9.763256456221102 8.039560959132304 4.450014921917957
Mg 10.519351857505255 5.191387731742882 3.6747182826431506
Mg 3.599571465405822 4.738395192989054 9.396801392946347
Mg 8.313373281002402 11.647894448858858 8.120532722555508
Mg 6.295109585629537 5.640400520272688 8.283648000545353
Mg 4.244778191429319 2.457420593432651 7.113218702459706
Mg 8.158238154003756 3.4378930761585047 4.189310396180387
Mg 8.20083953953925 10.421058026398132 5.356631408339214
Mg 5.5841601839151345 1.850774553314915 4.380964916780251
Mg 3.6665588780745666 9.820792121098888 8.181769785258975
Mg 6.306600556879467 7.9675164224597035 5.277669351966305
Mg 5.673787413612255 11.239939105634651 6.606230532927097
Mg 5.5856524051481 4.939395011358814 5.506653300832399
Mg 3.9325152538295587 7.0602150401206165 7.1319026357693485
Mg 2.238375247905062 4.618907107325251 6.6704956054418245
Mg 7.540060287788928 6.1839990906681335 3.17598259917409
Mg 7.700941746130212 9.124403009582919 2.561655600295165
Mg 3.4996260993987676 9.230496847193441 5.085229947206098
Mg 2.9893929337607243 3.0565597083332636 4.25392303721395
Mg 5.050480462910952 4.436542429038189 2.570335987781749
Mg 5.55558594370896 10.770156411058279 3.6239031072618477
Mg 3.088622941468226 6.227811997453426 4.20271573692296
Mg 4.951209373596771 7.814035647634575 2.5011830459267284
