38
Energy = -35.49599694 eV
Mg 6.931655600145366 6.144299022632673 3.2828881358880206
Mg 2.618726373431256 7.235933525919212 3.3120307555271338
Mg 4.307411417095647 4.516272440481222 3.8659819758894742
Mg 8.203774735691821 9.693311335330414 2.335352860075479
Mg 9.814383953925857 7.2440992554645325 3.1625737671547345
Mg 5.204018377421062 8.531656169642002 2.326885783990295
Mg 10.023594038168978 9.207120334656295 5.350334988590446
Mg 1.9644977851808954 5.189236822322492 5.6593774326166475
Mg 9.382336446684816 4.530289570209984 4.02748070786307
Mg 6.776376061269622 3.8350863827409647 5.473178293473312
Mg 4.730580819524613 7.059349621623809 5.514881674053168
Mg 5.854733618806526 11.429107671333632 3.2156646259483845
Mg 3.724623762445533 9.86990562774845 4.6940566371973516
Mg 6.963629160801975 8.8765420991942 4.867508728144582
Mg 11.201379461937591 6.3264593369514275 5.982317192329902
Mg 8.38836231944191 11.744096911383572 4.753086749342433
Mg 8.224450395026086 6.533498131999189 6.190377792886847
Mg 1.742599910620545 8.072037510693344 6.157558445250003
Mg 4.084018172037977 3.6046320981036426 6.986332711252647
Mg 9.560783061230293 3.797177366843888 6.974329515209265
Mg 5.836636500177234 11.272920023013153 6.432767942687936
Mg 10.065163869839013 8.157246013032724 8.272251759082422
Mg 6.765870605124042 8.596098479355737 7.864217387941141
Mg 11.270252508004525 5.30112312479281 9.103222102578565
Mg 8.676983291607819 10.818354613107154 7.6360786773187055
Mg 3.8556649858038425 9.31146710032216 7.85207019836199
Mg 5.872338115638794 5.7543648397933245 7.811221431734205
Mg 8.012612592704635 9.015112429133284 10.474301761957621
Mg 2.9905505333911853 6.326969689054921 8.385569744490267
Mg 9.723675235520075 2.7196640272327453 9.809920727613799
Mg 8.29664174929134 5.81255889266358 9.349648175535656
Mg 10.32625349570447 7.346964386356763 11.342706014507336
Mg 6.916856971147459 3.008324315703326 8.481436585599031
Mg 5.262315881650504 7.61338180689111 10.262807165811049
Mg 10.097463255543445 4.59958265896975 12.052661877577425
Mg 4.919657104716732 4.671913252764215 10.38628973327229
Mg 7.40356189639098 3.425495021318746 11.53329690398989
Mg 7.437402657345982 6.419085555712139 12.2103004314009
