30
Energy = -26.99550667 eV
Mg 8.087663814663353 5.60225844272151 2.26604211029318
Mg 5.629811225466864 7.118865901639493 3.245194278297147
Mg 5.778978552110915 4.111198491472455 3.5845149870028434
Mg 3.2481310555531326 5.602062690209549 4.13467082214057
Mg 8.403420971256839 8.46468067128748 3.3819616850254617
Mg 3.492664133072825 8.490593550748942 4.926090140047089
Mg 10.490779941468823 6.198616085431084 3.9365208923086596
Mg 9.023600068702773 3.4473341993099242 4.210201815051658
Mg 5.79149159597046 10.08570903291147 3.7187299255715986
Mg 6.5316178714628785 2.0230177247011314 5.51841200169256
Mg 5.565657238911402 5.584526257357881 7.529022349614015
Mg 7.681875657093993 5.799423340206402 5.542100609175101
Mg 8.122692126357999 10.77573305187184 5.441656487756863
Mg 2.5312905069039053 6.227555243858355 6.988179545872245
Mg 9.817013592555353 8.302684570078707 6.116149345362404
Mg 10.433421823917573 5.245986528597888 6.8233497584502425
Mg 8.130761873936658 9.832125865774186 8.30734537071369
Mg 8.915340609771976 2.6434600193191833 7.167228455321192
Mg 3.8691421703995217 3.4075556082134026 6.117794113809365
Mg 5.211399363799636 10.97260857505885 6.58243291687244
Mg 6.2883484446902145 8.181877574001602 6.440076122711285
Mg 2.9462429531578134 9.158333991161205 7.756803117310427
Mg 9.783783925687041 7.34974501315029 8.936254898626624
Mg 5.993164573389407 2.6336184178144872 8.475805065240749
Mg 3.2389669403910646 4.028205076033421 9.062129264240028
Mg 5.311362396194737 9.813637009769948 9.414065195884119
Mg 8.276941870402629 4.791927718149529 9.09917814422009
Mg 3.8339485349169893 7.040149078843176 9.795382470054173
Mg 6.966467143028138 7.387767277676308 9.865538239413183
Mg 5.655865604962298 4.730589572827368 10.669016452118388
