36
Energy = -32.26149133 eV
Mg 8.115676355846212 10.965833860532834 4.998502571243753
Mg 8.533754862953192 10.144006441931007 2.1295813639132835
Mg 9.775554066561499 9.207075588551696 6.883738709504752
Mg 12.313607948774722 8.361964790010873 8.437345281396716
Mg 5.352218835884087 10.938499642389434 6.215621191589913
Mg 10.823771369325772 6.446158370302264 6.2611590987324695
Mg 9.946260785516415 8.244301275133498 3.9917572475744354
Mg 7.615069704388729 7.362691309844742 2.3631064112962585
Mg 9.77096573519418 8.504135751167096 9.857133299187279
Mg 7.161727492977966 9.577776421810324 8.370381177066482
Mg 7.129597384024589 8.226311119049079 5.514549638633102
Mg 5.72955602363675 9.803308733843998 3.334758266997618
Mg 5.072066980830703 10.241878323592744 10.84698206478283
Mg 10.926170599476544 5.591217961782967 9.219015356666176
Mg 7.590248280109964 8.939292480640276 11.800330576825194
Mg 6.75559248541257 4.459146822972967 2.4210585231621318
Mg 4.016680426200281 9.189320679013244 8.278568766125115
Mg 9.922523972715652 3.5944505210465483 6.723130791791387
Mg 8.198894140197682 6.474827663643091 7.945647426366286
Mg 3.4630036120033005 8.757692152551048 5.365031237788953
Mg 8.14125261786521 5.511117864897783 4.96275858870667
Mg 8.401400410560814 6.053581079749643 11.083776120731214
Mg 1.3397083229316735 8.068280748546092 7.653566389881818
Mg 5.005326202726234 6.8204730014768 3.714775351186479
Mg 8.849650284485042 3.4538330365869414 9.563158867768802
Mg 6.947718189284969 3.600317747696165 7.249526198520503
Mg 5.763316301669071 7.36404657961099 10.010034270159997
Mg 5.3306499175608915 6.432865522513818 7.011343171475836
Mg 7.82478449804943 2.3907033146462955 4.661954563577689
Mg 2.6230405611109187 5.794311107777596 5.807256910363977
Mg 5.929376758027462 4.4899487014342565 9.829507971384936
Mg 5.122867549527576 4.1045541857829235 4.851105470233388
Mg 3.0864918641500165 6.136672642961085 9.130269429485535
Mg 2.2612899851472306 2.7449009040911947 5.146908604939186
Mg 3.880868378100186 3.5794112889616776 7.714446650731705
Mg 5.2120985397494835 1.331008727745263 5.939570223796362
