36
Energy = -33.53694905 eV
Mg 2.0495998808066203 7.152916724703914 7.442724742593026
Mg 6.807626304866671 4.253269303386283 8.149745284561059
Mg 4.316100464621104 2.489756456458001 8.972657929156846
Mg 4.891194098034656 6.105115659595011 6.265276652292791
Mg 6.678952410043746 0.907888905024504 7.799336122992091
Mg 6.9265816221195955 1.7568367504746523 10.615227488138427
Mg 9.632390710084026 7.042829521755601 9.742606018277002
Mg 5.1213922480163365 2.736246267976594 6.008150247699897
Mg 8.956540030485597 9.722082181169789 5.817579008938613
Mg 6.8606120970863955 4.705329330141694 4.314696699987814
Mg 9.858413148859748 5.271702113622283 4.87523572378354
Mg 9.248573514252127 2.003521960529375 8.802184325077741
Mg 6.018206457850418 8.716567744249014 5.105152967877473
Mg 8.075361935761103 7.267111482499663 3.319046714469062
Mg 10.9073083804005 8.016429370384271 4.139568399805642
Mg 8.635362204729411 4.337917046994017 10.701807564865621
Mg 9.090136019978669 10.075231432489886 2.7170245623625044
Mg 3.900108331641266 5.586491600275676 9.188077498703935
Mg 3.1238380990839736 9.477953683154192 5.935585844514335
Mg 4.447594573129157 11.57805223094117 4.20968559050092
Mg 3.2537794008917604 9.26859944923068 2.862588125456086
Mg 7.860718555702409 6.779173569744535 6.7358218951458815
Mg 7.394293475664122 11.879360220493062 4.280329844723512
Mg 10.870482146390167 7.59490671074238 7.057179267951942
Mg 8.480859890928649 2.779863827942509 5.983942506439118
Mg 4.991486243833415 6.784973285611677 2.920063705469832
Mg 5.964714155607641 11.10984642511426 6.876657825275825
Mg 5.587943061772453 4.2448240840342555 11.224665207753787
Mg 6.641185578885515 6.822574272146139 9.937763557860634
Mg 2.2778737131170117 6.825022361720757 4.488156957323462
Mg 7.76715212472348 9.232464109146827 8.533134784659302
Mg 10.167568080745657 4.730421773152601 7.8526831788285545
Mg 2.4581976572510182 4.199323858080881 6.7476997892683235
Mg 6.157868544655006 9.743769922316622 2.186584272510476
Mg 4.827796102465563 8.49485406086141 8.234382790638834
Mg 3.75218873551582 4.30677230383661 3.9569769040965492
