39
Energy = -36.10019782 eV
Mg 4.178106545433191 4.148826433293337 5.51214030385352
Mg 7.159927789597844 7.189207901737696 5.51214030385352
Mg 7.788362680563969 9.844045860605688 3.8803630092995625
Mg 8.80996377238617 9.101120156980258 6.834401617915443
Mg 5.781091354280435 10.066952287693782 6.14812910648584
Mg 9.955616570941062 7.754299435529249 4.020768898294916
Mg 4.931743455220692 8.619584315076201 3.687494403634611
Mg 7.574665013568387 6.657029322541195 8.482237335206815
Mg 9.848737311068852 5.988978062235604 6.477437364960618
Mg 7.581586562711708 7.373199284934103 2.0754738163354145
Mg 4.397419205853547 7.073435289187324 6.5377767972329375
Mg 6.940615129177489 4.264599045843713 6.5377767972329375
Mg 5.669017167515518 5.669017167515518 3.7155554750153144
Mg 8.671834369851506 4.934390501085907 3.832527424243075
Mg 6.406290879810347 2.7184500199548345 3.687494403634611
Mg 2.6661999651796813 6.403643833945128 3.832527424243075
Mg 3.7633693214626476 4.681005012489841 8.482237335206815
Mg 1.4892970239621837 5.3490562727954325 6.477437364960618
Mg 3.7564477723193277 3.964835050096932 2.0754738163354145
Mg 5.556942980750602 1.2710820473372535 6.14812910648584
Mg 3.5496716544669145 1.4939884744253482 3.8803630092995625
Mg 1.382417764089977 3.5837348995017906 4.020768898294916
Mg 2.528070562644864 2.2369141780507804 6.834401617915443
Mg 6.836490598733883 4.546285171117365 1.1672898724060363
Mg 4.501543736297153 6.791749163913673 1.1672898724060363
Mg 2.018475274361096 9.272403422698991 3.0724391361215435
Mg 1.5062915991076073 8.422079404736719 6.044960802150885
Mg 3.0472781259981705 10.907501150000076 5.312104801120243
Mg 3.4181609034505414 9.725022946671949 8.115477485292539
Mg 1.9016466239712106 7.218663339425151 8.812308041103257
Mg 6.4502234358404085 9.430324016483251 8.917912450333695
Mg 4.770021018934953 7.16937884104572 9.756814365172987
Mg 9.31955906066994 2.0656309123320447 3.0724391361215435
Mg 9.831742735923429 2.915954930294316 6.044960802150885
Mg 8.290756209032864 0.43053318503111343 5.312104801120243
Mg 7.919873431580491 1.6130113883590889 8.115477485292539
Mg 9.436387711059824 4.119370995605887 8.812308041103257
Mg 4.8878108991906295 1.9077103185477873 8.917912450333695
Mg 6.568013316096083 4.168655493985318 9.756814365172987
