34
Energy = -31.03499344 eV
Mg 5.799082261022336 12.569371558024772 10.607714343942462
Mg 8.653289240091558 11.14796430579006 10.521132639778093
Mg 5.1556184350349135 11.759730392216762 7.6805900922478045
Mg 12.52962999032791 8.958862239676762 13.9210037725983
Mg 11.294500762184605 10.818448535024677 8.331020514887758
Mg 6.919532884175676 12.259773630662336 5.409947138916199
Mg 8.782196483255863 5.206586157630193 10.10224521285222
Mg 7.092027110768044 7.051831216046387 8.254188711386893
Mg 6.244628920559019 10.232458069429326 12.447133086102209
Mg 13.082100508636772 12.311959356083504 10.289104007977805
Mg 10.426904521963902 13.53541648434007 9.19071418183289
Mg 8.08298990673456 12.419292325516617 13.38693775051591
Mg 5.840181101886071 9.58101097871223 9.585875941054207
Mg 10.356582475366292 6.8463747682354805 12.221984396399185
Mg 8.27038024882504 10.194384818149615 7.687239787396182
Mg 10.851992462414227 8.452474821792654 6.501857030809259
Mg 5.964727950020573 9.382510671379949 5.935229529051434
Mg 8.217209910044684 14.34560803242292 11.048612092802866
Mg 12.87634456100328 8.323066131486215 8.97209901338546
Mg 7.547310124288555 13.437242630896973 8.237154604631172
Mg 11.302738057616187 10.000769158427566 11.379297912899323
Mg 14.461723975310495 9.772933465911237 11.347793503978023
Mg 10.783288553222448 11.396681726095535 14.529606256787977
Mg 11.705922230196517 5.587540106686922 9.650072795035769
Mg 10.79423049678811 13.225429457493842 12.18636209543955
Mg 8.910318988447154 10.139317735507815 4.583591152072259
Mg 9.81197209509791 5.709081886310218 7.34443679995848
Mg 8.199555191577344 7.427813663307869 5.53036023056398
Mg 7.413510708397581 7.669970878693113 11.353015528647521
Mg 13.26011279819456 7.0974391717423915 11.68915260400844
Mg 9.823034084868558 8.218717933295714 9.404149839345074
Mg 8.93558758514931 9.386409418446503 13.354517397086369
Mg 9.80474679861772 12.526268415864584 6.300684214141905
Mg 13.377386913106045 11.837631884735151 13.270795888625734
