34
Energy = -30.6293019 eV
Mg 8.568287765898992 6.717702723081869 2.7249439146116967
Mg 5.6707322855939655 5.180797574165684 2.932535769208666
Mg 2.6013169474053406 6.208316682258769 3.4533099278503485
Mg 8.245993312402387 3.638497174215051 3.1787120054924833
Mg 5.701969009398369 8.099537900213484 3.5555520325489436
Mg 3.4227928120542814 3.3864872261893755 3.9855146773314902
Mg 10.701175608853267 4.787824276363589 4.244673141933063
Mg 2.94802119364915 8.84565370219324 4.726312816385745
Mg 8.19165316247646 9.171616617464966 4.674928394773467
Mg 10.436337651380866 7.430776315111086 5.699472235272857
Mg 0.8722033184118856 4.109072402514892 5.197823072097038
Mg 5.420236095647146 10.415694814771228 5.580807522177205
Mg 6.041778627235579 3.130507764435517 5.253986972702015
Mg 7.809372520246883 5.899243859330638 5.438731018557246
Mg 4.675551479481836 6.208286094021816 5.737998498048315
Mg 10.788185626794418 10.520888887074602 5.6253482648521365
Mg 8.879392428664318 2.895839284455311 6.186229264046584
Mg 1.82162954198976 6.584013367369975 6.594765919090453
Mg 6.490523136354549 4.928850412408355 7.753878578828178
Mg 10.875199203575248 4.753699445689288 7.264998490993171
Mg 3.568301104001584 8.949431678199446 7.630050103568297
Mg 6.55689300416267 1.850353561997257 7.986759287044865
Mg 10.625042670463808 9.291659254367318 8.240444753183189
Mg 6.527568807146287 8.05762169419995 7.281538319732896
Mg 5.574275367051686 11.041529292248606 8.611740566941585
Mg 8.75669986121127 3.726590346935941 9.252478090830122
Mg 8.131871618209507 10.860881764342116 7.168203861799399
Mg 3.588982511053935 3.682856178817137 7.142149106365342
Mg 3.869446055437138 6.194796840096048 8.943842219080674
Mg 9.044770437291204 6.718643264800824 8.453995923363571
Mg 5.104378198630011 3.560881939500513 9.99040408527133
Mg 4.952661897421915 8.689954628770911 10.327176148870773
Mg 7.852466237683517 9.236754748192704 9.85031230844418
Mg 6.769081579177502 6.309529360659229 10.395173785160237
