33
Energy = -30.57819245 eV
Mg 9.092760108027196 8.877042496419806 13.418474703541614
Mg 6.166601636001511 8.21060579336138 12.654538130632611
Mg 8.46776937039232 6.572308850976958 11.623947414621417
Mg 4.958369611024913 10.299670202782181 10.943630992668997
Mg 6.697308227735358 10.994150993027656 13.43639787104794
Mg 11.029132812875405 9.760720022665813 11.079001039510555
Mg 12.403772602902015 11.374706774487775 5.823610510345087
Mg 6.110675350266228 7.425942414252534 9.697341336784733
Mg 11.963785160515563 8.595753335379628 6.804452506652351
Mg 4.425061917569224 9.247913053024359 8.028935218191249
Mg 9.817247217255133 10.584265835681418 8.055957429729032
Mg 7.481923523088504 4.767684810299104 9.439734477586823
Mg 7.473768590919669 8.846345883084107 7.2497803847975915
Mg 11.997851775445914 5.724074726121249 7.70704266092612
Mg 11.426988869274542 6.928651519544347 12.044765843365045
Mg 10.429655771366996 4.714989952662049 10.123078196185306
Mg 13.02280718198152 7.999800971716617 9.599141875172862
Mg 9.360906993956057 4.342832537891496 7.217405394841064
Mg 8.079484939537766 9.708830177797845 10.458874860568667
Mg 6.836273958177388 5.968074263328936 6.813074573474624
Mg 9.8294110062734 9.867684866039449 4.9466048121618
Mg 9.902264323619525 12.912378223351528 5.303099167978689
Mg 8.564242345164416 13.41072410090975 8.085471043007198
Mg 9.743044624390201 7.5318257757802085 8.968733804024357
Mg 7.4218421351970365 12.658144191080417 10.980965724046918
Mg 12.826707537563067 10.9569156928843 8.79348642089292
Mg 13.388848226483892 5.209337711699873 10.44997821078877
Mg 11.614187216624586 13.50780742354718 7.678058111727071
Mg 10.47640050322782 12.643935693386753 10.368643545025614
Mg 6.32464316903775 11.45247151889637 8.506899978543426
Mg 7.35690040694235 11.502095276799096 5.7423365302323885
Mg 9.582707792962214 6.975082589671553 5.850399079333041
Mg 9.523582157136817 11.783742868905698 13.045607206161687
