35
Energy = -32.3382976 eV
Mg 4.7053882745295565 8.233984256053663 6.2665373993054025
Mg 6.701454318762277 10.161879733914226 5.5705372846848915
Mg 11.101867725667674 7.656788984906303 12.75807723545717
Mg 10.485189799515286 7.046222839275571 6.472388950696189
Mg 5.651209356666785 5.554257894929583 7.000521850652218
Mg 12.973250001741688 7.249251609203356 8.156395538179323
Mg 10.054227601622854 6.9743744629542626 9.744674682287227
Mg 12.513942176407555 9.164471108886147 10.540936320487836
Mg 9.074464337467402 3.8118000866771706 10.223597322273575
Mg 6.89591485403348 13.456889933876742 9.46200844579663
Mg 7.585278210340749 7.167393124806889 5.25036845126846
Mg 9.193779783077263 9.759007641208287 10.467787807571677
Mg 8.469605311696288 9.183153913374568 13.344691315491096
Mg 11.577502032606702 4.591865174084006 8.676550745578973
Mg 11.081613039430916 4.612703644576526 12.096233195226793
Mg 8.442936798673458 11.33552053032641 7.997828917118704
Mg 10.79374839456664 12.638180745498323 6.719437821140782
Mg 7.824213842199312 8.268555043000593 8.062447864777877
Mg 9.822857144240531 14.287764030313502 9.156555304817681
Mg 11.035830081348482 9.598224565717487 7.943306341471679
Mg 6.4210457171790125 8.33356710213246 11.208281979400478
Mg 5.5428297224614465 10.405339807618809 8.683000056813286
Mg 6.529066460884198 11.245311238506629 11.517969910874497
Mg 8.430590849469247 6.2402771370396355 12.346237705560677
Mg 11.095848282684958 10.694148898331093 12.755142637711193
Mg 9.608383208278324 9.794026912713592 5.385606265622387
Mg 8.388039443406226 12.573363172523749 4.808103407994883
Mg 8.188443300083017 14.742843153891148 6.795290997905211
Mg 8.596164765296384 5.0321150899579195 7.4289289399905964
Mg 13.175548532277288 6.202242410125834 10.870424504786405
Mg 6.801058627553861 5.736415220203318 9.802775173395588
Mg 4.507460839448963 7.524258118936174 9.070904967109563
Mg 9.077341063237828 12.74276635177855 11.654892175335567
Mg 5.921963909843885 12.858205389515588 6.647383543915325
Mg 11.41798431843355 11.926246697516097 9.852894167891298
