31
Energy = -27.43199579 eV
Mg 12.735879441304778 11.215805870153535 6.87401832983541
Mg 10.136033846945532 7.0831850128154565 13.574475590127712
Mg 13.437430127925424 6.127050795275106 10.034246705943781
Mg 8.637463117318187 7.343142649109246 6.503887976912467
Mg 4.943341765801381 10.638246744527317 7.89346059850252
Mg 7.1640537447098955 12.864947314176671 8.750934424789161
Mg 8.384089178735625 9.23951525050182 12.574409021577646
Mg 12.88636193764161 6.522582041002595 12.916604690536522
Mg 14.008297935785961 8.841879019972724 11.318696250124434
Mg 8.348513446005432 13.593082489994867 5.9922229498488715
Mg 8.336491002986568 8.3854866331641 9.551290373021951
Mg 10.539603521326404 9.59437699437413 8.104188848966151
Mg 10.36849245494143 11.449074766003422 5.142761654100569
Mg 6.440372709985945 10.415123128187648 10.434698556966135
Mg 7.997529849573266 10.49540720726927 7.097974258240898
Mg 11.051232458822023 8.13084502228267 10.64535518118262
Mg 13.420419027500412 8.54579307505869 8.318437571470994
Mg 5.990920195714081 9.279475342560028 5.253298008930075
Mg 10.324033820264441 12.727403441279755 8.053364328288293
Mg 11.171412539882105 6.376441262438722 8.004824254991444
Mg 8.356984514156677 5.449217252142667 8.886785039476264
Mg 12.420124399129385 11.03805284427068 10.05997827078349
Mg 5.531967663376963 12.571790664928564 5.797918381069208
Mg 9.384144944195906 11.245274017028935 10.546340722098952
Mg 11.432070447946069 9.958788993922425 12.86513584713563
Mg 10.614874650779111 5.198708192367167 10.97833990660259
Mg 11.41781883956994 8.503162136768918 5.533217827864893
Mg 8.841370924930025 9.025795768135565 4.061946445936189
Mg 7.891400499646723 6.355369177092292 11.759981113311234
Mg 7.481770341740608 11.669036824981188 3.855036098397126
Mg 5.9870166487502505 7.808436357694438 7.946626270962707
