34
Energy = -30.03450431 eV
Mg 13.513960372232322 4.529008294539018 10.796351864334365
Mg 6.098537355445993 13.424800687950015 9.439787516514555
Mg 6.039726925768518 7.587882841967638 10.757528148555314
Mg 11.848625481858402 11.764622339817645 13.799623998989723
Mg 8.755428229900119 11.371419440993344 10.023317513131767
Mg 11.258713585484934 4.615736431550395 8.682942120265398
Mg 8.853944650234828 8.577671119510224 11.478300226597314
Mg 13.840164109660618 10.758591831103992 11.691412097717349
Mg 5.725702624232374 10.48187058525447 9.902410069614357
Mg 11.417299576155262 12.689367090543975 10.985573004628455
Mg 7.85195804950061 14.595681686491695 7.381906173845946
Mg 6.20173121496644 9.70728794950454 12.863344079127458
Mg 11.268063451833909 6.955724270606359 10.786229388977134
Mg 13.368295160891309 12.060735831643187 8.578786096319506
Mg 12.47696031540381 5.766400752401031 13.306986003507296
Mg 12.822915048584509 9.40655024708423 6.972398519026438
Mg 7.154995291145818 11.605837647403252 7.291589834636177
Mg 8.63684001088324 5.911595224992089 9.78433389438405
Mg 11.494828830955358 9.77763546088449 9.801690670968112
Mg 10.565686173948936 4.065932364245202 11.539185579911496
Mg 10.510298542631777 7.451494610749172 7.763898992825148
Mg 11.649186623147592 8.93122805807486 13.00440755200852
Mg 8.70773499115234 14.534473486230535 10.36907919232216
Mg 9.239107881753775 12.870092613848552 5.329635048958291
Mg 9.98075923861199 10.319054348181622 7.016389083772163
Mg 10.517457955295564 13.202021831422257 8.175997860569307
Mg 7.858377013194933 8.730379122931575 8.512418039014957
Mg 14.123434955677952 7.669158382899255 11.539645567139305
Mg 9.589425208646201 13.737940036310828 13.131743487923467
Mg 14.828038235910318 9.483983223336585 9.235663594375659
Mg 9.014347260824172 10.76879239403358 13.497482295145801
Mg 13.430754241236935 6.854584738265327 8.615048594235464
Mg 12.2086935758979 12.235595432431024 5.795259198776086
Mg 6.913460506490748 12.588436990238439 12.230894264204219
