33
Energy = -29.05066656 eV
Mg 8.536898141543647 7.737627812452921 4.457176146179189
Mg 2.500802768705747 9.908841253311033 10.520378740897398
Mg 3.095991075058783 6.942592534429612 9.864205774598348
Mg 6.346935910539699 2.8930433724483224 6.4474004047521065
Mg 4.028952721050408 8.382110110682767 1.7943906979036774
Mg 9.587139453877457 2.398590453810489 6.8298940641085375
Mg 2.361844455669332 9.318583596090665 7.682728426643369
Mg 5.762011968416624 6.374777042380901 5.489537012142545
Mg 7.3076385208329455 9.938397552915227 6.5950097549734945
Mg 3.3267817327311997 8.360405433014026 4.8604372278220325
Mg 8.40566823341405 4.837183238574255 5.594775392563966
Mg 8.241686776877426 1.9214909941984057 4.091781822359859
Mg 5.081893524085743 8.854044301871266 11.391308690518304
Mg 10.519782884242135 5.241719129927913 7.921869979378536
Mg 7.473382472201934 9.17476897211067 9.64077862237528
Mg 4.513708996623679 10.866417112674602 6.0488921034607275
Mg 5.127458831083969 7.985904239451301 7.879056941897724
Mg 12.361080915417364 3.6424072231342755 6.275485957226441
Mg 5.99585135756013 3.9611306088479465 3.531728172627078
Mg 8.094316511066577 7.167943194159809 7.463504705440474
Mg 10.914684337309167 2.954796870454777 3.864537709847278
Mg 6.06430101907829 6.202899422485099 10.538495537761664
Mg 4.967384355369539 10.854068498375106 9.005767778766216
Mg 3.667240887830764 3.8739807273023135 5.579289047900387
Mg 8.998373674341279 4.939358884805467 2.6686805823894986
Mg 7.729132823151096 4.238265856562487 8.785272745678988
Mg 2.5283523286814034 6.304909842058574 6.887804421981664
Mg 6.482293120198264 6.77029015113993 2.279951026320761
Mg 11.072181490739707 5.904363627702621 4.7647499536759135
Mg 9.009145743938543 6.597636221057663 10.298954881022963
Mg 3.5605916385383027 5.814836277833538 3.2426602709370913
Mg 6.090072168479143 9.370855513553414 3.9396843095800604
Mg 4.74505574634545 4.764396515181422 8.262447681267243
