33
Energy = -29.71367166 eV
Mg 9.41646460553974 9.260148415984848 2.6895705670888557
Mg 1.821038065256167 4.914921641752388 10.172343451197358
Mg 9.730339508281727 6.423760000856062 2.213139123772114
Mg 4.009329632775695 9.532460921425871 8.252033362865264
Mg 6.18085309384798 2.649951443170555 7.934986324817264
Mg 4.084965113493589 3.110946091309033 10.58392906062833
Mg 4.35461423282861 10.740728730446094 5.525074044455136
Mg 6.449975283000546 5.057741671252959 10.281084378273667
Mg 9.239817322844443 6.228429849227816 9.895858781743812
Mg 9.360045550319384 8.264840871843086 7.669363142881947
Mg 7.775367312224227 7.200626024515665 4.924839435710133
Mg 6.8394237185876765 8.173407972233385 9.383192286527041
Mg 2.102045290944247 8.879649044810064 5.6518245861361285
Mg 4.164506290358896 8.490625174776303 3.409570578648995
Mg 5.098756815349959 7.4391416600669755 6.337289324606798
Mg 1.9570499803254604 7.0394906135855955 7.896347428573045
Mg 6.745037006633548 10.115357011281443 3.8326496181133
Mg 6.866192162926098 7.63562425725818 1.9384376786243565
Mg 10.877290986995485 7.542270935370494 4.970110475968365
Mg 10.511025494229141 5.3740218326843365 7.205923955434948
Mg 4.872544007527411 5.6482880814879985 2.8902030528521774
Mg 10.502893606151959 4.561732401560682 4.34962332704884
Mg 7.634137089710871 4.50730083060015 3.228690005393391
Mg 6.875226160188358 9.96495505256448 7.0276403640675875
Mg 8.961913653155742 3.349120845396412 8.973296934347008
Mg 4.12437243319061 7.00771950120877 9.95776223451464
Mg 4.0423351044724996 4.769806210781667 7.84634481909175
Mg 5.500994753768064 4.138311969514753 5.2765729028258015
Mg 8.459903704049534 3.119533294080137 5.943602198977702
Mg 2.8221904234540323 5.955995444978052 5.08915814011204
Mg 9.391107963464576 10.218056913692582 5.449671120888528
Mg 7.312101215595666 5.595526861520631 7.4348355643111965
Mg 6.918396209746877 2.0917622200013386 10.767285520740831
