34
Energy = -30.68928715 eV
Mg 9.729779332237287 5.250428605371693 10.970423963273998
Mg 9.59074315413693 8.410005085217694 5.998502926790208
Mg 14.63481427457632 4.884183888421392 10.579842581950416
Mg 10.024203361304352 9.978180586502274 8.748214574126854
Mg 11.80643742141637 6.2184471849977445 6.491082702396753
Mg 7.393550222527152 9.580869649367203 12.778335730621809
Mg 8.418474479933158 14.589242470854854 10.14004664882335
Mg 10.769253432162973 12.808776559720677 10.64078272237989
Mg 9.374044790902133 6.333846049138242 8.166352642340222
Mg 5.129370681041203 10.707499114295082 7.612339395002311
Mg 14.21241907258481 6.810590825432293 8.167915696764652
Mg 12.992320558954244 10.60539270695874 10.946825416105087
Mg 9.810317201344763 7.344072192756129 13.069678267735476
Mg 14.607985038576187 7.808266220515908 11.110947960733418
Mg 14.752316998210993 9.694837780336847 8.754695452454868
Mg 4.090352347208335 12.034184728125794 9.940260118896875
Mg 12.520691116790486 8.545381731674713 13.117866348376433
Mg 8.264706897395806 7.929047411845388 10.48797150857715
Mg 7.590163703130263 11.27694508273848 9.920029001660906
Mg 12.03783706650968 4.774042353243245 9.135663502507697
Mg 10.737370277276312 11.228238580804442 5.901035307949986
Mg 12.53758086962039 11.889321152001335 8.264438020076035
Mg 7.834839484686492 11.071945163187202 6.499117113898629
Mg 8.290615890834651 12.613822489610223 12.5672435400069
Mg 12.504902766558637 9.049801276104148 6.948912143402667
Mg 11.636124520353219 7.799758934595772 9.996167353153341
Mg 6.385280429649667 13.459093078531591 8.136810276096162
Mg 9.595421936300022 13.15059708109311 7.8518160303940725
Mg 12.378967421881509 5.679331321948008 12.288204503868053
Mg 10.167425775135282 10.17549356707239 11.952705057483657
Mg 5.400165900542494 9.201804539149057 10.345120989944697
Mg 5.827450558472874 14.084434817165217 11.27671193852118
Mg 7.054892278511325 8.424566503177845 7.785165372772848
Mg 5.237901771468043 11.538713819952438 12.57988633000886
