36
Energy = -33.66797559 eV
Mg 2.9349628936367607 8.050620190233914 5.286190789344002
Mg 3.34707688547884 5.085101301882548 6.07240419294337
Mg 3.0418579949925366 11.024144430151173 4.762152889239356
Mg 4.700664556068281 2.4241146988372515 6.852533565295891
Mg 5.092839396523833 9.393490563337878 3.3075929471027936
Mg 4.908461320222087 6.355834763176352 3.655135004277352
Mg 4.8121291083251645 3.3804053607731297 3.9453398471242944
Mg 3.639317276311787 7.206732436432257 8.21146585643994
Mg 4.8081048331043 0.3097110702308072 4.508867985212954
Mg 4.662991626410694 4.456727274483177 9.01865952102383
Mg 3.548630560477048 10.161886518348592 7.593428117257895
Mg 5.893954459218177 8.271860296150157 6.11093481522707
Mg 6.383673316134608 5.223221764134434 6.231038204557866
Mg 4.425308537034523 6.4071323501084585 11.296642296689226
Mg 5.818980213803526 11.340381481092288 5.849909307004115
Mg 7.341284900503132 3.1812429796015915 8.309989716804402
Mg 7.660286204574178 7.629013323212458 3.5289086348886953
Mg 4.1219894020747665 9.21360066470255 10.491700536415804
Mg 6.622973094626127 6.919092521711621 8.717062596475774
Mg 7.837809484558923 10.625296146027562 3.6524540776662984
Mg 9.48134293693941 6.806070381584563 11.514801963497996
Mg 8.709772126702166 7.209904571497055 6.422370963810591
Mg 7.253995956912322 2.186907067248262 5.306031782620244
Mg 6.375960598285518 10.038156490001192 8.722511092083959
Mg 9.046782921226058 8.774932925045594 9.214768459856264
Mg 7.08316161666432 4.956693196266569 11.001484832832686
Mg 7.567386795085539 4.573069504216442 3.444984604102569
Mg 6.856121671870037 8.225453142718315 11.470222366345697
Mg 10.388009113622406 8.968277669733704 4.349687875354237
Mg 9.417325349180285 4.137445926783932 6.017067941869982
Mg 11.376926787790431 9.145785779054092 7.134039319522004
Mg 9.316532956769601 5.387237520060679 8.780111014926264
Mg 10.248392497592429 5.992514158442592 3.7827661646036623
Mg 8.566415817888979 10.265301525827278 6.563379395666901
Mg 11.673799605528428 6.2940211697840684 6.395476097755084
Mg 11.648851887746195 7.177380386686737 9.365278686128844
