39
Energy = -37.37006226 eV
Mg 10.749578697963667 3.398928396736527 4.551486369519799
Mg 10.035470022850834 3.713375040233553 7.51094471121777
Mg 11.333179359324319 6.0598572414825425 5.672872889924549
Mg 11.202354288941548 6.311844343375571 8.647029509184128
Mg 12.077706497181067 8.879282898651583 6.811335436537826
Mg 12.619715687875992 8.778519408271494 9.804722127870034
Mg 11.865845559832623 11.38796519033653 8.549055343879967
Mg 8.945062489236477 5.758204073321584 3.6767308036683497
Mg 7.909600580224632 3.309937561009907 5.352497898631039
Mg 9.578429710745667 8.440099954272661 4.998392996450615
Mg 8.72696347749606 5.113665679995195 9.9692889871372
Mg 8.364337953611498 6.177248002862783 6.791622935714414
Mg 10.701465947032505 10.59127819420297 11.163052667840722
Mg 9.951247589812404 11.177460617816518 6.241912007120205
Mg 10.085592088358997 7.609536989557818 11.211376953722887
Mg 9.379092405457751 8.87803239701522 8.29272858335789
Mg 6.903710173763166 3.5027873556904323 8.173970200250992
Mg 6.923112914121997 8.155383019938048 3.388598513684834
Mg 5.986715123321046 5.501163798237167 4.3972036529908465
Mg 8.806368085839628 11.812990731263515 9.060981958111212
Mg 6.812099532447914 8.817661185637597 6.397633824619205
Mg 4.93888497951339 2.88855870202454 5.859162864789285
Mg 8.179743625294222 10.892548049322246 3.7884697538504217
Mg 6.997329045225844 7.506658969536026 9.226906522128939
Mg 7.816696495201475 9.658676094223788 11.346154200220557
Mg 5.274686364492208 10.68626803191282 3.8722290993394926
Mg 5.3179927251240375 6.015385239613391 7.288128750684703
Mg 7.399761998508348 6.773613155921327 12.310562855198835
Mg 6.973719113573412 11.95589347582048 6.358101028720476
Mg 4.120719827161948 7.952518592495385 5.125791476862491
Mg 5.598011970262007 5.0429553192911705 10.451577787076149
Mg 3.3689416427688252 3.877279629246833 8.207595048091452
Mg 6.116429443483164 10.514964252520825 8.98581328698471
Mg 4.182397133246951 10.794550330570292 6.531486550198153
Mg 4.955336037323706 8.149038469658203 11.322689363947138
Mg 4.015683115574722 8.505620226899586 8.395640390414513
Mg 1.9926780998979843 6.555062694850924 7.174287649535756
Mg 2.9749647886434603 4.902151032588648 5.041029164726434
Mg 2.933249153111091 6.222213586989999 10.054234036722207
