39
Energy = -36.47993363 eV
Mg 8.518504114917624 2.3062272958011842 5.181404555207535
Mg 10.408688634588975 4.644942231153256 6.815076727097781
Mg 10.159074504938992 4.647795462235742 3.8094332413805283
Mg 7.390173382238396 3.93475458719765 2.718499312227123
Mg 10.74680841061548 7.065579552100431 8.7220710854593
Mg 9.277042016690077 4.800142336577064 10.69299221694931
Mg 8.580279394565638 2.9272738679486556 8.233595081382047
Mg 8.70370375602925 6.871483139331001 2.6015657291269343
Mg 9.714941504376474 7.3182072100314555 5.621582153201858
Mg 6.4740924135907125 6.058087246375232 0.5315327765133139
Mg 5.6753321189471215 1.685699002341528 4.057323804264267
Mg 7.461333200492719 5.0115165241495685 5.579882451552505
Mg 7.941081513938553 6.012424582926812 8.338923592075798
Mg 8.82892907575567 7.807153430937133 10.911187515471562
Mg 5.8621687844816535 6.628124934053795 3.5069551616998718
Mg 8.489104907944832 9.2168150254754 8.222378825014987
Mg 4.573983031759101 4.324154380464894 4.888089047928071
Mg 5.996563450103354 8.933651913085997 1.718408511934959
Mg 8.207814688874997 9.450335272993305 4.042270512073982
Mg 4.455758560536706 4.174005203469524 1.851353743599714
Mg 3.6805434811045963 6.956532836961775 0.8515475276751235
Mg 5.3994037605266145 10.15006294663261 4.55431252528236
Mg 6.732582930307826 5.955459498205122 11.900115162157562
Mg 5.928461229210366 2.472241571695358 7.027258490036904
Mg 6.802352283043166 7.867463547523424 6.210100138212452
Mg 5.14218214423782 5.483451067470552 7.6282925281565035
Mg 4.03382363390054 7.357831900846176 5.608330199643319
Mg 5.3858870513774715 10.105215750641529 7.656596127144679
Mg 6.275373934014177 3.734166988853466 9.951134748467146
Mg 3.0699337262368296 1.9361455945904282 6.038605488634708
Mg 5.96173371250024 7.970043069990147 9.674673633178688
Mg 2.446276200626254 5.847236728862138 3.41810022085114
Mg 3.1153672772183927 8.785771457317919 3.113671563496236
Mg 2.83035154078221 10.153375292052022 6.1200653839503945
Mg 3.953647698039201 5.729482249987342 10.424460352146012
Mg 3.3814303199582527 3.108950089524349 8.787167063585189
Mg 2.190493730160652 4.996991693044473 6.736955917554237
Mg 3.144431273226541 7.879221662490734 8.374155876332857
Mg 1.1479350912381778 7.678756769387382 5.738614625621888
