31
Energy = -26.26547085 eV
Mg 13.919705283300997 8.816368393248254 9.924372342084665
Mg 8.528047269832358 6.469365534871823 7.728767808924276
Mg 11.9271370067511 9.64150615525731 13.749312350659904
Mg 13.321611886366473 5.851340263154378 10.010544329994758
Mg 13.689357596580207 11.85468292219187 9.181684432889973
Mg 5.3544377067865865 11.591000467393105 5.831575434291327
Mg 8.651441776478078 13.565499242998463 8.0223984897605
Mg 11.469535867892692 10.393090527714186 10.513679068704516
Mg 11.050452022856293 7.471130300854793 11.273484028715604
Mg 9.799436718681996 8.760414567731846 6.124557862750104
Mg 8.962940396740436 9.263558278073807 9.167767729639039
Mg 8.788275651864877 12.02204850260588 10.620227349148394
Mg 8.0745971609984 6.691098173602839 10.785655104330171
Mg 9.405563291049647 4.827177928425767 12.642190859730988
Mg 6.991299117244357 14.077579961510684 5.470541607317631
Mg 8.451817316232738 11.336381579349204 5.8930945276637114
Mg 6.784750662356882 8.793951062060845 6.252107246463111
Mg 13.8460268099943 7.513114138235914 12.708433613269229
Mg 12.296941963949696 4.638533144957634 12.434905023053723
Mg 5.509728853047328 13.857133061746147 7.951707015398469
Mg 14.148438421558751 10.783136147909081 12.1784841295286
Mg 11.44543904968516 7.631792322542283 8.26941047241714
Mg 9.191211526975314 9.481258214464109 12.362112200985713
Mg 11.222970085232761 13.575999842674406 9.700296269345145
Mg 10.423450637334941 4.864094756247667 9.717023244197543
Mg 13.591440416897665 13.717516263458613 11.563337217287856
Mg 11.071727960162072 6.805018099895768 14.218840178601823
Mg 6.661242514807938 11.04412038770678 8.575105459730592
Mg 11.109599854124793 12.35451121540985 12.700424276413578
Mg 6.110596891852687 8.048972594526555 8.994668456767503
Mg 10.998715560616702 11.22615514864199 7.6311292255065535
