32
Energy = -28.70426806 eV
Mg 12.571058873903684 12.272299576980556 6.367949421137875
Mg 9.422131585898914 12.518778966406742 6.947538870161067
Mg 7.7181615140759 11.60165221191962 12.685998834822744
Mg 7.872293612076508 9.053261934882505 7.789472950931603
Mg 10.706557542522022 11.604812451964762 4.129691143523189
Mg 8.576276565454302 8.902200674498493 13.914204628818394
Mg 8.062227876542714 10.559749778967143 5.069632817091989
Mg 7.797214711912718 7.541804344129109 5.107865626967355
Mg 10.438215119730463 8.44897378567497 4.010313794610621
Mg 5.5053846887713 10.978717690663933 10.49805771316117
Mg 7.034305024072983 6.1227895361064935 7.790963625702339
Mg 6.41930053352433 11.633501999648557 7.604726124916437
Mg 8.528788245842067 11.651729606878694 9.794998737601604
Mg 6.134004320737091 6.029679528167596 10.640231021097655
Mg 9.97293807508673 6.623473953660712 6.892543435466668
Mg 10.176903411747853 9.00830597359012 9.519123572461034
Mg 12.944648299178754 9.438435491046054 10.602900102384492
Mg 13.586493320398754 9.66584834401945 7.688400839556384
Mg 10.69334872339903 9.708851656847623 6.712555247078653
Mg 5.9069636031835735 7.021047496405591 13.675413249957689
Mg 10.832781542577768 7.642706111232982 12.131014698742671
Mg 12.291814468160826 7.039019109758548 8.79931443080654
Mg 11.56328829868364 11.755052015716673 9.130538568077528
Mg 5.552744327293485 9.923988311481413 13.663261450150847
Mg 9.246263028563945 6.108995631791452 9.868272471415827
Mg 13.134226880540679 9.95795930431659 4.523167026032929
Mg 7.5827598523848465 8.731033991919782 11.025607127078118
Mg 10.44510645363119 10.658217825538394 12.088289837242112
Mg 12.704661271385339 7.3489604884845505 5.809986133696768
Mg 4.272410563342413 8.307225872806208 11.552804404157108
Mg 8.479019260836099 6.015269094369017 12.766825269033594
Mg 5.148369240127821 8.438430687996108 8.768897743254252
