30
Energy = -26.54105073 eV
Mg 4.64935764843603 7.2912692571742825 0.9220058602695834
Mg 7.71057473927539 6.269084857528682 1.8155937208536326
Mg 4.9768378685942976 4.442518648289322 1.607572527402601
Mg 6.555817355230724 9.10680652071534 2.2564913592197993
Mg 2.8486077443146622 6.033940152981141 2.994343657667908
Mg 7.137579877215728 3.5910436920596704 3.340716925804669
Mg 3.812961276362686 8.834019152718975 3.829009559937139
Mg 5.79766839734665 6.512094396462601 3.9982705223483848
Mg 8.47168989659131 8.317301562382543 4.4426031426935
Mg 9.213329925275248 5.429653708173654 4.625542442037344
Mg 6.162503271298551 10.345880553072735 4.970178532921785
Mg 4.27453116770194 3.8422776049739045 4.6592185562633555
Mg 3.3707199640167627 6.479723568444054 6.001447241570688
Mg 6.751229943557325 4.603917311540024 6.201925731184425
Mg 6.355306236559673 7.582065854443006 6.667492873409463
Mg 3.8965572816250678 9.388733989347045 6.786245282868998
Mg 9.546909592297554 7.105292155953713 7.091269716629033
Mg 8.292324173757859 9.885769455797538 7.189819863696677
Mg 9.391725135582497 4.047619664717752 7.560288541431543
Mg 4.22091870787284 4.281412931409801 7.859978700702596
Mg 6.7337611532046875 2.7145686974424725 8.609184961667658
Mg 4.208129974041246 7.0701057153733835 8.92730634161789
Mg 7.271125451124668 5.943167571518255 8.914949973806596
Mg 5.937577118221573 9.66690807516824 9.115369701137165
Mg 10.283689260866261 5.934496840919593 9.853333610792637
Mg 8.632992954179125 8.523338680625839 9.853651314978812
Mg 8.664112126787835 3.517803709491491 10.615062407247468
Mg 5.564968741425007 4.588111901654644 10.843517873542988
Mg 5.956102262837898 7.623782488817328 11.318520031290662
Mg 8.306205743777154 6.023106270181377 12.124904014383747
