39
Energy = -36.11134984 eV
Mg 3.985223242153464 4.947717131074093 1.2757340173317353
Mg 10.2822575644521 9.430932348352195 7.534644290495245
Mg 4.48472251371049 7.765424412304256 2.595719523583824
Mg 4.846445117349125 3.0799719651283737 6.0527843405345205
Mg 4.69482750775959 12.219643655010803 6.956626496622426
Mg 3.668056060321158 5.543664302638773 4.5576926191164855
Mg 7.0951748854749 9.157678095888771 2.206323690912249
Mg 6.870551818565794 6.182871807488094 1.523019218280667
Mg 9.623710182330603 1.276569783424557 7.41098510914781
Mg 8.041835418138906 9.626894489127661 9.763916368155146
Mg 2.346138474561848 10.540857313836833 7.524195625212267
Mg 7.7508703302761965 11.09817658309796 7.142487898448226
Mg 9.221998002740554 3.8260277950187067 9.125571451561008
Mg 8.625885709267633 6.556230200323092 10.516679774872717
Mg 6.117534947035673 4.031507502912489 3.505704581871048
Mg 5.784382975363501 7.478290019463692 10.226059018751178
Mg 10.535212028438504 3.9063655625342903 6.346774752999344
Mg 8.961648974540486 4.631229521265575 3.7472769603865883
Mg 10.81580010817176 8.725177408471307 10.42048192640991
Mg 3.5226287700092267 8.424616884354833 5.405002057834469
Mg 6.339463182787828 4.633439767588944 9.561360393078845
Mg 5.939375769296354 10.046101097646108 4.872079902733372
Mg 3.323232246784328 5.666732373479047 9.793949365063849
Mg 9.384959288877692 7.399852523033214 2.6637886007230236
Mg 9.987089675006613 6.812965493071659 5.566751095198527
Mg 2.296402416271051 4.442575981357262 7.164974866951569
Mg 5.3121613034314885 9.258340960601199 7.811163760366546
Mg 3.4459670542308887 2.6031825171410623 3.0325603814022073
Mg 1.8778924363384197 7.386185736929563 7.620250185930778
Mg 10.799508876843143 6.387461259963598 8.377873734008947
Mg 7.524734736015568 4.715822724719662 6.5964318381562865
Mg 8.843387076802228 9.479757388534518 4.847177204066662
Mg 6.799742203561373 1.8992835069322578 8.10687373619217
Mg 7.787261274210375 7.526309463174716 7.574176949011277
Mg 6.7200816102874645 6.98457288551708 4.710830077864157
Mg 3.0839547624959067 8.76427142355267 9.963867339181876
Mg 7.774068932718828 2.0175467726729326 5.194995661243858
Mg 4.966952643692907 6.22693016023991 7.275137152467459
Mg 4.012642643021174 2.792603945463222 8.921860797166545
