39
Energy = -36.35487464 eV
Mg 7.2139477661903655 4.549314658492343 11.259768313287099
Mg 5.128623941411559 4.649537700514541 9.07893006058051
Mg 3.1702869837031487 4.878887941519092 6.7151855487195755
Mg 6.870191356331095 6.440053566628532 13.673293320401012
Mg 4.6344213600717685 6.34096620840464 11.79805763103245
Mg 7.666552397766356 2.926561391727753 8.71921974657416
Mg 3.056989827698081 6.825721526639594 9.198302259061059
Mg 6.087774040977608 3.983451831189712 6.197386058358096
Mg 10.113307313177042 4.850444032827931 10.12564952127245
Mg 8.991978555231606 3.309452829052567 5.921557411349018
Mg 10.639650451173 2.6060966084920234 8.351238938665142
Mg 2.0265479035298597 6.111650389629057 4.195317693335238
Mg 8.665584930265721 7.17168000260576 11.328938410348961
Mg 7.92113246448838 5.889759667829415 8.137064650740221
Mg 5.3258463147612405 7.062284351769764 6.698129329384976
Mg 4.990770602843223 5.743120393505134 3.8941292440453625
Mg 1.6153102629056497 7.548518134283634 6.739200359515534
Mg 6.377569439235507 9.077038670582462 12.37877866338204
Mg 6.013313134149118 7.941247093029551 9.546249072593884
Mg 7.54295196682289 4.02458900955575 3.3469442170836885
Mg 6.768384308894728 6.366733667201106 1.424513735489531
Mg 7.911933349011462 6.480477563285354 5.1393619064221925
Mg 10.901931297052611 5.382261929427086 7.11081749081715
Mg 9.43850877990109 5.179342761773749 1.2955225069307013
Mg 3.7423173910243985 9.468795814400085 7.801588244321665
Mg 3.5608278492045575 8.647553346140501 4.6708941862564455
Mg 10.330895995167083 7.814020250335158 8.794958393623855
Mg 6.36518352045962 8.56549828020093 3.427944890217236
Mg 8.511794079046384 9.873695053898974 10.171832763852567
Mg 7.81993680310234 8.832066302296589 7.183794232954611
Mg 9.353871732280485 7.846756256663804 2.6192195371776266
Mg 10.533998690072718 5.251654423881205 4.0862885044632
Mg 6.14902602832108 11.064008757666603 8.680912016811858
Mg 5.749303830665718 10.490613557600973 5.651192548107525
Mg 10.617673849532995 8.003209059125714 5.625650123070336
Mg 8.766641725907462 10.16901080185973 4.483794250584592
Mg 10.291072668864865 10.597120663728742 7.260002097589212
Mg 8.809366920580516 12.580164726053999 9.09000005106546
Mg 7.988166219194564 12.338387246990875 6.32738211205268
