33
Energy = -29.9915269 eV
Mg 12.029221258718952 6.173909338091632 5.736224611389649
Mg 11.999531333945775 9.296330096554978 5.763108975812741
Mg 13.917748603697156 7.786947323841383 7.403590478993139
Mg 9.491108283112762 7.677739961309242 6.728766705949119
Mg 9.78712539402761 4.573791051602262 6.983593846953288
Mg 11.458074140462553 6.574619309060437 8.799912912753486
Mg 11.602409829195473 12.166135995160182 6.38307343923468
Mg 9.100765619390767 10.548450517946543 6.064624904662588
Mg 13.773603696817846 10.691610380521103 7.993221548394761
Mg 10.820761187377915 9.955636590243474 8.71637692690379
Mg 13.269018039942718 8.42391686453528 10.307688731054702
Mg 7.1966283629209 5.83430141900685 8.01086336337439
Mg 6.786500310875808 8.796434406728293 7.13579236536907
Mg 9.219124909448947 4.6710709291185655 9.95484400163554
Mg 12.331984758721827 13.315187688870898 8.96095152566558
Mg 9.207788923229993 13.073244192366722 8.1418313995138
Mg 13.225046157900287 11.304553903235666 10.931392127837448
Mg 7.925594579713531 10.704821952939396 9.454161922739608
Mg 6.4864670650562735 11.819443960296809 6.5521785038405085
Mg 11.059977953445697 6.466020042939755 11.804290975435045
Mg 8.765704155481897 7.895749263107112 9.826047828123196
Mg 8.766528307727901 4.868823933776962 12.919180710345742
Mg 10.427165312459477 12.290811799724427 11.021868406408892
Mg 6.607333910927065 6.015859124680216 11.146696568589398
Mg 10.783027327015526 9.470295265699102 11.870079962481881
Mg 4.889834734367504 7.491086372977165 9.078898203849818
Mg 8.41805900112203 7.876835649415066 12.994644200977877
Mg 7.8812746909261095 13.688548727203559 11.047736807602025
Mg 5.963301192834019 13.451841917403058 8.844284798255174
Mg 8.19245427417889 10.920360935858735 12.634302607653705
Mg 6.0544596458934405 8.986171274120641 11.379983064556985
Mg 4.811510819513269 10.525506282302826 8.838628693358217
Mg 5.557695617027282 11.925816536057827 11.44195712531258
