37
Energy = -34.75886358 eV
Mg 7.677865184507307 2.8814577884467147 5.404336199733981
Mg 5.831208466619583 5.858300242232687 4.917494631583385
Mg 7.60252901527054 11.201614030192227 5.351180636027146
Mg 2.8849938345350186 4.401523618616897 6.78375058831979
Mg 6.876958510870484 6.667441147722372 1.9885933231036583
Mg 8.768519961823056 5.359422557717175 4.04730019759399
Mg 10.557403229323908 3.520624569971746 5.846432759258685
Mg 2.501740799737847 5.181449144850127 3.945452952853335
Mg 10.355734355570318 9.818945020873882 5.61549085583584
Mg 4.381358572982943 4.892550365839012 1.6976596955242427
Mg 4.056477451387897 7.671550947958272 3.1607676346340963
Mg 6.6039561891443626 4.989835814822872 10.056401366034503
Mg 6.843784508425371 3.645785549513993 2.4697460738265677
Mg 2.6941816480251384 7.377707287145336 5.986661066687439
Mg 8.119276304226263 5.541460745106626 7.1570968442532115
Mg 6.002906892876241 9.902440363532165 10.73664598883516
Mg 7.175494657228113 7.403525040023366 12.018962477054126
Mg 9.097816026694321 9.196564327085657 10.844931705774076
Mg 2.0680216609491 6.614072945051246 8.899376033551773
Mg 5.798333428363204 11.248146836781546 7.849225188463605
Mg 10.179499849320347 7.986483715066506 8.131300901491533
Mg 11.276380198064913 5.039524447031605 8.187825025105807
Mg 7.89443540356292 8.043543651583004 5.746227677389078
Mg 8.928993741023481 3.067254958715054 8.514538099686236
Mg 4.490618280524987 7.131430230220872 10.750584997419423
Mg 8.754131761775051 10.616065823548697 8.073166915995936
Mg 3.8220011866448433 9.090473906058262 8.528412899919717
Mg 5.019919969631705 6.3798892007682975 7.687978456806448
Mg 9.362171412977055 6.04055874864591 10.267287391366501
Mg 7.1110324219989804 8.041117689458158 8.691343136540695
Mg 9.358625657344623 8.19482347665358 3.1252578438276415
Mg 6.610905487220975 9.437970519330218 3.1046854824535663
Mg 4.5883761405663215 3.108599832091093 4.548439491941588
Mg 5.746475852965644 3.4216432118885836 7.557536238389664
Mg 5.126905162439309 9.08713729669246 5.7831645746113525
Mg 3.6916833098864412 4.314369220041993 9.775505963354709
Mg 10.880130581905563 6.6971126826060425 5.5713321469447585
