34
Energy = -30.0947184 eV
Mg 7.6720451897941375 2.0305654829250113 6.765751360131352
Mg 2.1951124888376032 7.397637787751097 8.216203174766632
Mg 2.098332598492553 8.665872696271686 5.584259668318241
Mg 2.5589183821388053 5.294476405753867 5.667600538899997
Mg 7.426590694359693 8.231948681489186 5.785497697553554
Mg 2.381462099797202 2.3431773179136126 7.0006599494960495
Mg 9.188411344358258 7.146475875982557 3.3567618608390113
Mg 5.303307228856346 7.312384722441498 9.652750060096936
Mg 4.236827799191969 9.632633547515528 7.562023651629732
Mg 7.795090184020256 4.577891439858294 2.322163870022681
Mg 12.01089603913653 8.695968963454266 7.2551746623262074
Mg 8.383236143895244 8.230787846913653 10.763442281186606
Mg 10.078676576365673 9.581415744728195 5.104944754649164
Mg 9.283087302379123 9.642529944808784 8.082663773245585
Mg 9.600485925550059 3.434852352131712 4.67810760121845
Mg 3.2898417849642017 7.151973269398972 3.3279475563584886
Mg 6.237394793350215 7.159677410231194 3.042514688182221
Mg 6.5481374461080275 4.336994601112566 8.715842556784192
Mg 3.613888911667399 4.7030163931579025 8.630538731889944
Mg 9.477697393225538 4.194020106068922 7.826564491603713
Mg 4.836940620985817 9.519359839986834 4.529974511729961
Mg 7.367276158830516 5.21930077590001 5.479488788826324
Mg 10.191274249400976 6.524176310838426 6.08923782076758
Mg 6.603150262388201 10.038474581981308 9.22415688763572
Mg 5.039109927195345 1.7636425865934586 8.528218821139982
Mg 10.661320879596952 6.834365578775285 9.196069367680412
Mg 7.863162280585196 6.830938305103858 8.191650913195973
Mg 7.653636453721206 9.947232493744888 3.3135821061634747
Mg 4.976126391137825 6.739348205299674 6.5701736861362265
Mg 5.026178336853112 3.4609265178095745 5.996204088691114
Mg 4.834496425376117 4.508368665254074 3.2470241329918847
Mg 6.953987376178945 11.069724020700422 6.363550762934689
Mg 2.7122107618598545 6.504390593215495 11.047675281920787
Mg 6.901689549401985 2.2754509348897174 3.881579900987671
