35
Energy = -32.04708295 eV
Mg 8.373391936452025 12.183617566838652 14.618141360747329
Mg 8.185884879233527 5.088133362852666 11.175295061269711
Mg 10.28813726105928 5.6962429767991045 9.028346913802638
Mg 7.205953118064152 5.925324832718762 8.307394340763993
Mg 7.034141817790936 7.498591062779271 5.65263874636459
Mg 7.5735333921575245 11.52792529935914 8.401755950572186
Mg 9.155996889293421 9.250716147133886 7.108398599228246
Mg 7.856739244651308 9.768819619186392 3.6770141198595647
Mg 6.303040736346892 10.121050761115022 10.84301246522585
Mg 5.719175476970997 11.62157434949092 13.457092007241947
Mg 10.514680538699967 13.794272101009824 9.933132542594604
Mg 12.150831769462428 9.686710607622816 12.116348612638006
Mg 10.387268011483313 10.736890760289715 9.7577846681171
Mg 12.265487426070031 10.06192469534889 7.268295462655322
Mg 12.0689004513011 7.972565608206274 9.590526608982993
Mg 7.959546918144537 12.587199105398108 11.3100240251285
Mg 5.8088371821416676 7.01237601517107 10.784322667990743
Mg 10.641063243978794 12.384106225757854 12.640100334819975
Mg 5.899803766148053 8.663704552734071 8.25113569525423
Mg 10.573935048068947 6.929487675589616 11.997866459620365
Mg 5.950044829098941 10.382989930000967 5.878604113922232
Mg 11.619507239101843 7.195294861450729 6.679085086384248
Mg 12.959355803221888 12.784526578341742 8.399592656832208
Mg 7.155004079532873 9.544275341059594 15.201356605348234
Mg 8.634927314044027 8.240893447958038 9.91594134732769
Mg 5.0487349069621015 8.676470913245659 13.172544854404396
Mg 13.192115776500954 12.608532421956843 11.316402651293261
Mg 7.704403432021057 7.210128950522958 13.204259355756614
Mg 9.89298754730162 7.687441553077921 4.21258249247565
Mg 8.085070109241814 12.257638198610302 5.293686599241479
Mg 10.298927882715189 12.435160808193407 7.161301095288788
Mg 10.654253527084094 10.53999885967197 4.711012846271374
Mg 9.237708156479727 5.5185714270353685 6.20174845374954
Mg 9.06538922276363 9.766013270031644 12.563678152356864
Mg 14.00743465711485 10.27847025525628 9.767225805850082
