31
Energy = -28.34137689 eV
Mg 3.5876286976788005 4.7547687358054525 9.487465112199141
Mg 9.17490182051521 6.658265520328908 10.482811051255554
Mg 5.119773795774009 7.061471489302962 7.409784077427042
Mg 4.093394962831516 7.538815031926672 10.526305202997658
Mg 6.984231257040445 9.685668112189983 6.983121121049547
Mg 3.175467805553687 4.336217233204039 6.5542135952112845
Mg 6.265944479445857 5.702453061673121 4.986761271324826
Mg 9.825148189736367 8.876928812968343 8.441708077511409
Mg 9.438949669426306 6.835172456578796 4.035187497479621
Mg 3.265844382226477 4.627600878339123 3.611030661444925
Mg 9.562239528060308 9.55615090379237 5.480655547441485
Mg 7.352691012286535 6.493385015026034 1.8988954680623802
Mg 8.365667523301262 3.943362458613473 3.4004413597527954
Mg 2.0679796610873478 7.014720620898598 8.340645848240436
Mg 8.1071291005519 2.6470266114351233 6.0672578194799796
Mg 5.651977738959034 4.148261731604816 1.9475583436578858
Mg 4.558771079125796 7.321598074824499 2.919290707579844
Mg 6.45683182763652 5.5207907546381865 10.065709426521492
Mg 5.382596398894017 2.8382550370591777 4.772561477803634
Mg 2.6986246013951023 7.055262269520539 5.317967897559887
Mg 6.920050591104693 8.554679640396769 9.741231280516208
Mg 1.8707925487891417 9.604986025698025 6.896737242902767
Mg 11.5201318950211 7.555006758431404 6.191909118643819
Mg 7.033629857791063 8.631294998528666 4.153713657223069
Mg 10.21426593132788 4.691725630529131 5.9255777705305475
Mg 4.275183034536049 9.803331678712242 8.565116632425621
Mg 8.145233550901395 6.722609218683457 7.110874834842189
Mg 5.946949053910262 3.887437717391672 7.640315574178556
Mg 11.225753486137169 5.9300498339848655 8.588334741757036
Mg 4.451890804682253 9.49716075552439 5.320782281204347
Mg 8.827304233239325 4.072521451355507 8.703013820741498
