32
Energy = -29.55825948 eV
Mg 5.740042274423648 6.310438560652181 7.28873842075881
Mg 9.618502883716785 4.516495833896245 10.880881014744086
Mg 4.457226139649302 8.24194486454911 5.266248943418767
Mg 6.316691415301064 10.008532159864693 3.8507688318409605
Mg 5.161163582460289 10.961745566749897 6.560938594173769
Mg 7.25507712131087 5.904469335546244 12.16686730002471
Mg 7.470441533740383 8.982252873167925 7.114944975932225
Mg 9.121210327388242 9.27163442903753 3.980504594355027
Mg 3.8821327780960324 8.628629220069522 8.094938602117962
Mg 7.137699963977192 12.47600153212906 8.261920387170868
Mg 12.561849171702288 11.10621412530715 8.578161315678251
Mg 9.138594175289377 2.6529603848939973 8.599434731433828
Mg 7.195180637534421 7.032391050004002 4.695792805708361
Mg 9.275331992466903 9.839050153516622 9.38875500850514
Mg 7.229599099871442 9.046464719764364 12.014969816429451
Mg 12.036098600746376 6.239585991483103 10.475822123454579
Mg 12.018164724019007 9.33058015865577 10.935762169249244
Mg 8.191808358111647 4.778259862983397 6.685526339524353
Mg 9.8152677786085 10.482263459170387 12.761891938119563
Mg 6.813373669183799 4.44592597626451 9.533509878568248
Mg 10.675879769007015 10.115101649645169 6.363941574700411
Mg 8.67227854534672 6.941160011001969 9.00265313707272
Mg 9.990414032900425 7.15126198499464 5.980591340614432
Mg 11.879173187856324 8.044220912479473 8.134628419784033
Mg 8.14995860388175 11.68185651848917 5.60331861069962
Mg 11.079100143150297 12.335351855667327 10.84457036793795
Mg 5.592544378579667 7.293577107437057 10.145043991087404
Mg 7.993990984112817 12.122842651148714 11.100042933413613
Mg 10.064437413738437 12.629166636646952 8.00477260904227
Mg 10.949943717567198 5.002253849912132 7.979188330749606
Mg 5.871179333405 10.272606192323329 9.657368854056836
Mg 9.807870877583017 7.526948698309395 11.931695534611828
