32
Energy = -28.5660613 eV
Mg 5.607067082119336 12.78093328885322 14.845170873932133
Mg 10.400065179568998 12.442744164663434 8.623652176373787
Mg 11.92223694733713 10.178052177524483 7.143016311780249
Mg 8.344783884713678 13.725996149610841 10.444650256199361
Mg 12.98047634975087 11.24581414552328 9.710704896675967
Mg 12.19771779155435 5.564708325442767 8.915412229186083
Mg 8.403193168363385 12.717412940525065 13.359234866127423
Mg 10.498146151397103 8.871197795967273 10.268223434268107
Mg 8.078323039327028 10.62618048466013 10.78396840568373
Mg 7.480546798537324 12.583862397854858 7.604174258747372
Mg 12.316314478266708 7.22339163690405 6.422126739807127
Mg 5.836985998963719 9.88750793283088 8.078220146295982
Mg 8.092423646537531 7.825112026449101 12.36885403366282
Mg 9.839132961354743 10.050529189095537 13.709511131868567
Mg 8.956125617225451 9.795323017908327 7.9625465285931405
Mg 9.844208963463341 8.661475889589017 5.220253989260681
Mg 9.790986660664341 11.802975963393267 5.647116605808809
Mg 12.975579856571144 6.543544656927682 11.61671735270085
Mg 5.369674241809891 9.214755240050236 11.172075764916658
Mg 10.82954291721829 7.241145217685376 13.441815039617449
Mg 5.482403442685949 12.22429281176225 9.906474103329813
Mg 13.376535567798207 8.363507065677647 9.20537802378758
Mg 12.69233526849855 9.493571120213872 12.28693807769723
Mg 7.403937495022168 7.615790144062939 9.519295109012228
Mg 7.184393171383601 7.720982284890726 6.45900329283209
Mg 9.86897199543049 5.924586326107078 10.798431334052506
Mg 4.103464111766276 11.52348111250744 12.588201919484344
Mg 5.826985568922937 14.054738705647441 12.190584895793295
Mg 9.635006262829688 6.626542784621086 7.744270519688629
Mg 10.802159372369672 11.97112082722786 11.539033226572473
Mg 7.216310709801026 10.454853014637159 5.259394398925258
Mg 6.7882634396170625 10.188850952156457 13.778404079756413
