30
Energy = -26.45593503 eV
Mg 5.669318327299535 7.226260468513708 3.138382624660221
Mg 7.127780286322774 10.027218810036118 3.023571267102107
Mg 4.128999074857116 9.971404925898721 2.8033813834748225
Mg 2.7889492759855945 7.914642775363474 4.6650190122307285
Mg 8.458664126440276 7.770965330000106 4.520169094792773
Mg 7.2942823398742815 4.929598597139951 3.99526835744484
Mg 4.3401947681887165 5.050546807660922 4.801324640935865
Mg 5.439545866479525 9.0294370869083 5.523771079913672
Mg 5.528764113929054 12.149364897376223 4.424178308592892
Mg 9.793969384477395 5.501281739173362 5.836035033089439
Mg 7.9419328362758925 10.5618484416474 6.015925705585436
Mg 2.8702473277967178 11.005382524295761 5.320560156367393
Mg 9.099474044692757 2.6029361544290195 4.715190929069129
Mg 2.7547597195463527 6.26861415640195 7.1107265345610395
Mg 8.445692920526133 0.7214741998861494 6.972114188607826
Mg 6.008593036755734 2.3257372682836697 5.362067350219748
Mg 9.114213267382157 7.960796961625828 7.526406416385054
Mg 5.104739405325376 11.640607492245453 7.268775670731857
Mg 7.703074400574826 3.880802133434763 7.217497719873666
Mg 9.71092954644445 5.148179419075274 9.071259161991437
Mg 6.430386033984785 6.502306733645017 6.715300874331523
Mg 4.67010377927477 4.068268199407856 7.689878659244465
Mg 10.660881407468146 2.8038758757044624 7.287146540358367
Mg 6.413562551239169 9.159535117409336 8.434249386110068
Mg 3.3629119576048287 9.064900589214798 7.8179013410949425
Mg 7.7019788863677805 7.049335182990459 10.099925511752557
Mg 6.129050084777777 1.5437200163308404 8.570082997433568
Mg 8.925834873576 2.1149170367321077 9.624813030271321
Mg 6.631321587500096 4.3015750085642095 10.08307735061574
Mg 4.749844769033494 6.704466050606966 9.365999673159711
