38
Energy = -35.61900074 eV
Mg 10.534681696807732 10.054751844333031 7.727876248931926
Mg 7.596590895019826 10.96332573859995 8.401771654964543
Mg 4.718044113667865 11.327095036282318 9.120860465351303
Mg 11.701839516795866 8.097833586367138 9.876191633233448
Mg 5.376453606728588 11.496899832988344 6.184124214836638
Mg 8.287247614683452 10.693846731459082 5.5061576216580566
Mg 8.613691392439218 8.390552546489085 9.627861075185464
Mg 11.088110480586908 9.3646663452278 4.881924468338077
Mg 2.4907513983874936 11.238958476765655 7.257328329152025
Mg 10.146218765220913 6.717360193037009 11.96387604820717
Mg 5.675951833732946 8.720623281540785 10.196125693181111
Mg 11.640458805488143 7.2226248896827006 6.993771193283971
Mg 8.709880815116897 7.775564001823395 6.57181240294016
Mg 8.479392684751257 8.555468682026163 3.4172788376297407
Mg 5.706344745149846 9.280732899003606 4.020142612316944
Mg 5.868911966049024 8.645493602585033 7.132902728621384
Mg 3.0639819797861665 8.56327094812552 8.636171579699017
Mg 9.753629266647936 5.6018990016977845 9.01230416647627
Mg 3.1670113341711623 8.913726334909022 5.5512268044364355
Mg 7.027865340569499 6.22857281403623 11.139990394243664
Mg 6.76051374072929 5.869102615100563 8.068438631283081
Mg 8.738667237723464 3.8420612801161513 11.246491857778075
Mg 6.249535370425304 6.957986988640444 1.9175757053615807
Mg 4.180488364456609 5.912900962816487 9.813735498882748
Mg 10.534413970295708 6.503935118037484 4.19615789159171
Mg 8.224592606162064 5.455766004340112 13.900464150455205
Mg 6.521253074808984 6.4040433104512475 5.041921665967392
Mg 9.175287291004814 4.710921285589757 6.231192035980938
Mg 3.8692121251953187 6.158793023934739 6.7524545998255014
Mg 9.145399891787518 6.654070534356736 1.2614185530415907
Mg 3.7448205169253783 6.564495079767789 3.6175417300501236
Mg 5.794891919830925 3.4698411631622275 10.636637934794203
Mg 7.73426913207596 3.0262324427867524 8.396599058479724
Mg 8.247519282918626 4.610710402991891 3.3240426821014015
Mg 6.50720890477696 3.313851926756606 5.549282467537668
Mg 4.591627695185906 3.377740748456725 7.925566606687667
Mg 5.296748727479457 4.210929996560295 2.6516038137323963
Mg 3.6099581557539047 3.747109325631726 5.0579296488715055
