37
Energy = -34.28615388 eV
Mg 12.12295713336283 9.56374713802087 9.102663896718255
Mg 12.13788420779513 6.687682781015531 10.100418621028814
Mg 9.815383467378725 8.477852171588465 10.865265179372628
Mg 9.32098124788203 10.580395372357554 8.527436216963682
Mg 7.15083946201216 10.069176793928152 10.56012641285981
Mg 12.94573983598501 7.262211227022149 7.388965023627956
Mg 9.509074562500162 5.37566532759916 10.502590556267938
Mg 11.308722270188435 9.555215740781957 6.17268754514141
Mg 6.386284144780622 11.091954947857088 7.662480362330835
Mg 7.114020258255594 7.02686682008017 11.0825446294925
Mg 9.548843249282044 7.550303940852287 7.970946783385882
Mg 4.598312058410733 11.623669179433985 10.01140655572482
Mg 10.97890905882069 4.781217216926839 7.750959190900504
Mg 4.486895603357671 8.638705330851524 10.637394939537069
Mg 6.863196548764212 3.9657073862991643 10.705619256436634
Mg 8.285609555358816 9.943564768150495 5.679722248760229
Mg 6.4427675674789935 7.942017479880256 8.162468858076554
Mg 10.959449379213288 6.627425604614476 5.242420343310402
Mg 7.901712006815309 6.981444361502238 5.5098951174586
Mg 3.6882897524726084 9.771716583133253 7.818306901395909
Mg 4.428840092862063 5.589182831392826 10.997431908149393
Mg 7.707052840984163 4.996407488595735 7.9601772893830836
Mg 9.139715119220543 4.165252928186794 5.3166647545273165
Mg 3.358613369457317 6.818536558539774 8.452923731952868
Mg 5.375807121933023 9.200088630825492 5.303154843249993
Mg 9.21734058900677 6.158554570331922 2.7690584158120495
Mg 5.097336604883668 6.089608664201783 6.027623302029124
Mg 9.97026169314682 8.947034328450778 3.4637170074060286
Mg 4.7626220594614255 4.091729822617029 8.429804199883657
Mg 7.048590821315311 8.286087652912352 2.8619096071108006
Mg 6.584960433369267 5.023807835374834 3.4345494361943762
Mg 6.403894833353138 3.1820938412559525 5.856464002816638
Mg 2.4655828517928127 7.888945678802287 5.65580915571007
Mg 2.2253317994540143 4.779561813042748 6.48170044240052
Mg 4.303211407804733 7.138450663417557 3.1123887015960467
Mg 3.894744224710172 3.8360519591739792 4.125102148946377
Mg 1.7006464874133658 5.807730167871346 3.7255264007096103
