37
Energy = -34.39195866 eV
Mg 5.693655927434984 7.8676292740996 0.22737053870319882
Mg 8.279345397186539 7.696211018860301 1.7941427078689849
Mg 6.457441663663007 5.1612871519758095 0.8797266829854821
Mg 4.042255919482365 6.3302923941668 2.252997743406741
Mg 8.47666449542168 4.626646134247826 3.0001571414820454
Mg 5.484013087406095 3.7679502883875813 3.6285997718303022
Mg 10.028317190178424 7.134258875893202 4.160618058186186
Mg 5.628376796354383 9.32450374791651 2.7656242211817736
Mg 3.95727551709832 7.865565680296469 4.94558463145271
Mg 8.045902710121585 9.472675985774945 4.691005693725349
Mg 2.821703833499361 4.752740228301686 4.66242719925738
Mg 6.555808642120495 6.697509706623618 4.086504612589207
Mg 7.489054346501313 3.1932529912717618 5.806938846407741
Mg 10.450208034720475 4.124835557989827 5.05283282012261
Mg 5.322637981303005 10.755615292406672 5.527299828586302
Mg 11.3108381985395 6.268307093157312 6.90215565087376
Mg 1.488864436113376 6.9945173792605635 6.302928116223915
Mg 5.212737673641888 5.4507129770328335 6.534937678620714
Mg 8.308328607433843 6.065996998472054 6.335565617791247
Mg 2.853200533800149 9.766262948338142 6.9899520755151725
Mg 6.270343718195827 8.187514881321784 7.019399662165388
Mg 4.474856054410097 2.6239296824331535 6.633790474999047
Mg 2.113805335280782 4.395100558774427 7.585851420690527
Mg 9.586344414497171 3.9106190128085703 8.0467591785702
Mg 7.537149314374274 10.996167952025202 7.557210522940375
Mg 9.537114643558471 8.720455893111797 7.265656239000749
Mg 9.954360229001013 6.6312643578578205 9.550272500240437
Mg 3.5728475721292465 7.224956179624049 8.497561099799313
Mg 7.0354256109550874 5.912169750790286 8.973907664945617
Mg 6.81602753497688 2.8571540145315937 8.865373497321077
Mg 4.314584044088347 4.465581688402974 9.49275839502167
Mg 4.991597239569143 10.023218358926533 9.104808159339205
Mg 7.784497512477101 8.898403383348814 9.780884984780775
Mg 9.041957636463792 4.015056675432441 10.973502116586461
Mg 8.134411371529147 6.7169617037849205 12.037882405044657
Mg 5.325136162937944 7.34599292350122 10.929743231865782
Mg 6.2709326074110825 4.426703252727089 11.80529080375462
