32
Energy = -27.55362649 eV
Mg 9.948176627651806 12.156979915259678 11.877031362707333
Mg 9.66834800862157 9.302277886778318 12.907055826746001
Mg 7.159313183636182 11.190167908768698 12.234157279274212
Mg 12.27021304267548 10.357708596604954 11.731683652532913
Mg 6.870840854080295 8.333602447546145 13.213648107878429
Mg 11.426074518874795 7.444945890933671 11.32548656131978
Mg 8.124310631894645 12.41347560763249 9.512604588000197
Mg 8.728621573031171 6.348723269381169 12.120188927822413
Mg 7.246877276702627 8.921252726115796 9.899302665862248
Mg 12.738526557391019 9.085553228824297 9.012155688911738
Mg 10.375103235788554 4.797552519274744 10.214328726601748
Mg 5.195097332867911 11.922267219227793 10.024501798680916
Mg 12.64836399337693 6.0677012011935725 8.908684344585737
Mg 4.588625242599523 9.371182174503145 11.643599731072483
Mg 11.02556450543189 11.629876177137545 9.153050381302243
Mg 5.787416361138384 6.370435641738623 11.231635244861888
Mg 2.996469685448438 7.094540963132975 10.29583670671388
Mg 4.095699952902807 9.408811837479467 8.681923570069532
Mg 6.376619310955954 11.018718345045471 7.4180578091346945
Mg 9.691537449489584 8.59892162490749 8.059086276638793
Mg 9.174337482725837 11.871083886480449 6.714367108696992
Mg 12.409695691841423 7.536593861899787 6.369112807216038
Mg 11.760435528362242 10.454331872031352 6.400806687207118
Mg 10.205714775665124 5.447128384342721 7.148308431195496
Mg 7.915729093193151 5.914447653755791 9.140287669812897
Mg 5.106901319251122 6.398901874375554 8.243048965140853
Mg 5.218767553826748 8.45647925923702 6.099189575046205
Mg 12.437261494302858 9.081669459689236 3.67373195897723
Mg 7.434097170405659 6.416394190970421 6.190573820386323
Mg 7.9028014135102405 9.450743778341987 5.423782893186378
Mg 10.022214145413214 10.683217907572587 3.788292442685126
Mg 9.93967962972641 7.478356032603633 4.702542789063975
