30
Energy = -26.59855297 eV
Mg 5.797135275155894 4.668387540841367 2.3779965109143966
Mg 8.641428284873989 5.501823845538974 2.123022256066882
Mg 6.437669544275395 7.615808987183466 2.8439893859285257
Mg 3.769068079726237 6.516476055082818 3.8280469019328502
Mg 10.018329409862687 7.507847407607902 4.105916822880628
Mg 4.784405061840767 9.21685052107385 5.1095527896227955
Mg 7.70299408603485 3.0800568130696497 4.165474404672492
Mg 0.7333221806975074 6.688856844687159 4.019246175305399
Mg 7.714751585164595 9.141619296223444 4.971644324416205
Mg 4.718998218109277 3.8023060319681274 5.06738622624124
Mg 7.494375389971862 5.931019292112911 5.153275709486626
Mg 10.505114005902454 4.478468882462259 4.125619417666529
Mg 9.800778361973942 9.083019786086943 7.046683702176805
Mg 2.1059886917623816 8.088902323770867 6.216873262928083
Mg 2.0416416555474073 5.090949021532765 6.253385337315459
Mg 4.945699733154181 6.543329769840681 6.707217401480279
Mg 10.4175503308512 6.034136363999152 6.773507081194902
Mg 7.5769810422742365 7.097139237498509 7.898268637261127
Mg 9.546482890517018 3.1648965871232626 6.614548540217261
Mg 3.658796542643198 9.665596255382251 8.056001850542467
Mg 6.72589607523375 3.7318382137183566 7.2700676983715935
Mg 6.570022557076314 9.9633310088998 7.532309079274569
Mg 3.8489347942585748 3.7401471187366098 8.087611455829212
Mg 10.275849977962586 7.374792314494812 9.550737582126166
Mg 2.903559345643171 6.607888144761481 8.951326195983983
Mg 8.863977664193353 4.640555520588691 9.206689395901178
Mg 5.768589011286298 5.290113164862833 9.722787144430818
Mg 5.437279826378178 8.32442556257401 10.045253057857883
Mg 8.334883817643679 9.560832815314656 9.947863078034464
Mg 7.869395707930905 6.8584844209087645 11.237597721884901
