31
Energy = -27.16334007 eV
Mg 6.2554032828235195 5.4569204930204585 3.1537722025009085
Mg 7.63770027416158 8.015809328539177 4.048548775363355
Mg 7.7305611868405055 5.534999457691223 6.172341841347067
Mg 7.422399351110883 3.004045100986606 4.495978950618711
Mg 4.831555959719368 2.781323058315831 3.1211135304577096
Mg 3.03041605229231 5.21996148339226 3.3699916073525578
Mg 4.647502648764662 7.815237151890021 4.1648433353697305
Mg 9.04337428977737 10.48889892307213 5.312308987465446
Mg 10.65357126004037 7.974535270041242 4.796296115764123
Mg 9.449981720727807 5.35299627271036 3.6847636547619795
Mg 10.306545679143909 2.9442704877363206 5.520800484683308
Mg 8.080453424532994 1.296631975179101 6.814371359929282
Mg 5.1663216002757695 1.5655734038940639 5.964065902851687
Mg 3.1778927744699157 3.2057998655233035 7.823174944394269
Mg 2.5487507576050477 2.5473344135931857 5.020569621163815
Mg 1.4407779841191657 5.106402207923229 6.006470550040724
Mg 1.5465420882635004 7.631507771095279 4.4490311984667334
Mg 2.944526977170517 10.189385718999658 5.150950229542491
Mg 6.000501833863152 10.623969717791198 4.959384280681912
Mg 6.011480674730637 7.858824715466743 7.0889335288186945
Mg 4.739538970817009 5.043196836233078 5.877559255422047
Mg 7.546806044888225 6.029209029901556 9.169355318709895
Mg 4.455164783136882 10.541212797638035 7.585590551697669
Mg 7.43482996200438 10.640423977977061 7.756654032551494
Mg 9.17393581211019 8.138852831699735 7.374059744462696
Mg 10.903343961679766 5.672931842872983 6.589797147374785
Mg 9.409903072858768 3.639279195946267 8.289044267271057
Mg 6.288879047945818 3.433948473681215 8.128452190940227
Mg 4.588543370291469 5.833495631090274 9.016120570975193
Mg 1.612938762478706 5.637505037033052 8.92071545874911
Mg 2.9013632391657054 7.757024376876323 7.15644720808168
