30
Energy = -26.34133441 eV
Mg 3.260109511277675 6.34955017845283 2.591019052817747
Mg 6.308403773333261 6.489730535044018 2.1406004855820826
Mg 4.363835341989518 9.222469123726713 2.5940818836079185
Mg 4.961525234129502 4.04583465961745 3.652783451148912
Mg 8.660155638144321 7.155723811823925 3.781420732933962
Mg 7.921370212353328 4.366941943080587 4.15832254950558
Mg 2.3509879230329873 8.323310465587353 4.691449787119073
Mg 9.553765781422939 9.162554707257966 5.7863936590206775
Mg 6.502095667820074 1.9174042581418878 5.343145015444483
Mg 2.8384204969841704 5.4573206039982995 5.6258611422391045
Mg 7.118279420171506 9.67089444817685 3.7687677613024495
Mg 5.470999185108642 7.187816462495133 4.829127876277466
Mg 3.719333847184177 2.6339911594819663 6.229440783852349
Mg 4.528094868210658 10.181925130200996 5.622389430652386
Mg 10.611189149863003 7.916520155342503 8.33122968935314
Mg 8.754030038710365 10.14925159754199 8.86158309484183
Mg 7.292072618447722 11.169717628950647 6.417872245748589
Mg 6.1774296195294065 4.948462388946319 6.62105497990834
Mg 7.2069270210761065 7.735515129963754 7.179623907157069
Mg 9.506294189281538 5.878636613657743 6.2652057110087345
Mg 3.7494860651425985 7.720940381815588 7.350884945365369
Mg 8.593557598741166 3.041474768343486 7.194593334552864
Mg 5.8719661510574666 2.103035380766051 8.315910213189676
Mg 3.8895365292771586 4.709843977982677 8.503943622605084
Mg 5.6327799262928755 9.82878023811217 8.59588836455433
Mg 8.203862133406096 7.419957494939568 10.173349040970576
Mg 6.95197727108413 4.553335331722041 9.71005060534819
Mg 5.271004884032552 7.0439777548224045 9.712503599474632
Mg 9.939033367642606 5.019946528505906 9.122274527786818
Mg 9.852531802751841 3.6561924090005595 11.890283774129625
