32
Energy = -27.7505659 eV
Mg 8.724567446125583 3.9777854839738964 9.387148934530297
Mg 5.92751345904368 7.2898695947988905 11.963698177258745
Mg 6.21119265547505 4.323399088252142 11.275779485723826
Mg 5.173403363284079 9.536974406172433 9.893551334346087
Mg 6.011900429996528 11.645050829840656 7.760439402860003
Mg 8.068484093735261 8.727897394219651 10.186583250047535
Mg 12.402378086367326 7.716328440374394 7.208391829613675
Mg 13.829374143977441 10.158386447641746 8.368746006063757
Mg 8.540878603383634 3.0431644817774663 12.549009467767227
Mg 11.491539284083021 12.07328108743798 7.712505053676559
Mg 7.366976889138148 5.3925049167455885 13.897762404235124
Mg 6.378603549446502 10.132341589931084 12.766631493696643
Mg 6.9522198703733045 8.802666954164481 7.2838833420407605
Mg 9.383340267822579 10.710539056232829 11.956063885972362
Mg 12.790942183571053 10.292879142014646 5.612041919034035
Mg 10.99553847501052 9.220970883675866 9.468160159333504
Mg 10.417154660310338 12.080508654208495 4.891236605204242
Mg 9.00386581064246 6.168427700537662 11.253454328374335
Mg 11.139143582436498 3.498745130674578 11.381622715486115
Mg 8.85765125027517 11.259341077205821 8.883679576836695
Mg 13.744561810595496 7.720474387404344 10.123023190609036
Mg 11.570366085132477 5.759302034280791 9.492289808879933
Mg 9.271261889446725 6.822564564620595 7.916390393031523
Mg 11.281696741353597 8.094939689041134 12.23164314788744
Mg 8.537899626560513 8.206481052174132 13.534335595750786
Mg 13.061866608290956 5.64585488111874 12.170653762292746
Mg 6.644187039503561 12.142776895101257 10.674450658524224
Mg 10.449920526756797 5.385458007850285 13.735769452208498
Mg 6.434544889513789 6.337551551728313 9.101117631753121
Mg 7.586668508946461 10.990999034527642 5.237444065556069
Mg 9.88790132589629 9.433698859513912 6.576286709015438
Mg 8.518212912501262 13.351947169702441 6.778981394179369
