32
Energy = -28.71974369 eV
Mg 4.738049723048368 2.102286573405992 8.142636142960512
Mg 2.5357390841246366 4.99375584170273 7.382968086940954
Mg 6.616893363471926 10.03508778662044 4.656122224097895
Mg 3.7664840666895585 8.961550125119734 4.0756558112920205
Mg 4.004568748987785 6.047820065346809 4.874603829868477
Mg 5.642017979532486 5.029170759211416 7.601278072964039
Mg 7.7217830747160825 3.0397451788305405 8.882592188289628
Mg 8.54043616518172 8.542530823973655 7.246879060034741
Mg 9.168015165116286 8.153233545942571 4.175161392946904
Mg 10.696793490396447 6.683231898857381 6.581656854862357
Mg 8.800137718001602 3.2324671453505713 3.6899284480214773
Mg 2.565786746571523 8.151672925121442 6.780809678149321
Mg 4.002946959917492 3.110998016759156 5.382015123239357
Mg 5.696210111555912 2.3942985437453888 10.991652009660072
Mg 5.963647091823379 4.284998345650084 3.3919063790813047
Mg 7.624610344613626 5.843504805617709 5.51018068541351
Mg 4.015712385744389 10.970005516773982 6.181080261045252
Mg 3.900197706315749 6.940072094274251 9.404921577510507
Mg 9.381931452837218 11.049933476347126 5.945682688854857
Mg 8.537879165018326 5.952056760718467 8.646890812154423
Mg 10.827037003625552 5.379582267807295 3.994314844515283
Mg 9.732917011384533 3.7842361854736555 6.598220449932032
Mg 6.70243561412926 8.213448592807145 9.623056804912187
Mg 5.624146572329441 7.921353875226718 6.702300970219916
Mg 8.46711581139289 5.7842865809724815 2.218855410400675
Mg 3.456164789232765 4.0496630967838545 10.101430371423323
Mg 6.279895906473066 5.354327324678151 10.640117891711528
Mg 6.896206672935479 2.583661744561569 5.940886184084993
Mg 6.149829224956002 7.429095361352286 3.1035187516737337
Mg 9.057847583502179 11.200446937646365 2.9468653686108635
Mg 6.692911346751067 10.908414935932912 7.659481312679954
Mg 4.193651919625651 9.873062867391157 8.92633031245047
