33
Energy = -29.18919734 eV
Mg 13.852851720105583 8.125974210239931 9.026454730772288
Mg 12.838984861738322 6.4357705693998914 11.178166837215498
Mg 12.289378863494843 8.396960807110398 6.64277434699939
Mg 11.81461087525302 5.791938674436685 8.198575510809897
Mg 12.08286496362335 10.680805762658379 8.916003925918616
Mg 12.970062074329995 9.35599145353971 11.587144910275105
Mg 9.9356404104301 10.179343446344298 6.592321934874064
Mg 10.374128609453088 7.929321312632047 12.451901831780855
Mg 9.65210422138332 7.160697290582074 6.135197050107324
Mg 7.814099377173679 9.17738491262679 4.709894993715685
Mg 10.282948024823865 8.263016779620177 9.408985280324693
Mg 10.30133769195173 5.15906774524947 10.801052964124008
Mg 7.846844644515356 6.3160789035263685 3.6164014698849076
Mg 10.658545300445923 11.099792644887657 11.794569177861437
Mg 8.62510578377896 5.53538175683997 8.403176242427275
Mg 9.081565845507876 11.357447771960413 9.165159785247038
Mg 7.447086346404831 8.630320876221047 8.357815117885297
Mg 7.7926949939161405 6.671156058348301 11.146019973690743
Mg 6.464803885603389 6.571281000156811 6.328847425258394
Mg 7.9820781212720995 9.593070356114017 11.502159346093578
Mg 8.0991496685935 12.64885537075823 11.723132524278892
Mg 5.36015993083143 7.934115461401718 3.2166853464635814
Mg 4.976569662783743 5.071215678701297 4.010402014958642
Mg 5.724816258306951 5.602416993093829 9.270567127731756
Mg 3.9568228200092865 4.824074061338787 6.834524183526538
Mg 7.115700083865899 11.449110137810312 6.737459921486489
Mg 6.372678178474805 13.03152309203672 9.270779126563202
Mg 5.199724263122225 8.313656561529177 10.69263978928613
Mg 5.346777075862879 11.33223059996962 11.498741874172792
Mg 4.999080911465533 9.437907404464992 5.776965407554438
Mg 3.9468944227018925 7.639408159058887 8.012796760831309
Mg 3.0640594572929225 7.104514235684681 5.053289456082311
Mg 4.803314704471204 10.54293826292701 8.618961245577085
