35
Energy = -32.03918205 eV
Mg 9.97740047700068 7.6184715024049625 3.550014584955141
Mg 7.967126241891446 7.743071992705281 1.311596271543296
Mg 8.103260754598553 5.1508880360980935 2.819525526922394
Mg 6.091439820539037 5.430559149827394 0.5200229993017984
Mg 10.06514465346645 4.992855321564567 5.211437218286198
Mg 7.08499464555563 3.785810738881605 5.343131107000315
Mg 11.87396210215722 7.330328649938043 5.924864418061863
Mg 9.041192118688585 3.4803307395047782 7.651079896307983
Mg 7.492031670427364 9.572962073749606 3.653872246834843
Mg 5.394522414798797 7.308796412837157 2.7874118932179996
Mg 5.072917855887262 4.063382320973626 2.906088246979299
Mg 7.408331458505191 6.928632076452109 5.29878366891037
Mg 5.902424324912593 2.4031225528763724 7.830245905110837
Mg 9.403720577736538 6.5664903384819535 7.710481486369806
Mg 7.919418717531272 2.145966316065733 10.069359107766056
Mg 11.352972097905688 8.95604476428655 8.377791872501314
Mg 4.045204800467245 2.8196305848707333 5.484799771777976
Mg 6.388766354472034 5.5162688790937064 7.8387659499357865
Mg 9.34341082429313 9.334816621346434 6.058358717871127
Mg 4.445913568469801 5.81378475111338 5.34862819816628
Mg 8.61455202625033 5.0289425157274605 10.244577242552094
Mg 5.47902430005119 4.0096959289274485 10.348967282073039
Mg 4.941195073353073 8.927265197757777 5.265852657287956
Mg 9.190617498476216 8.053423806867412 10.291429052973886
Mg 3.4110805655751233 4.326244772363367 7.984557362480958
Mg 6.6828441062296235 8.544271501607634 7.963134057136837
Mg 6.812482795825929 11.107945361751801 6.279535297958555
Mg 6.276602467901712 6.986204298459667 10.657205640915361
Mg 3.3700302203094155 6.242840166113546 10.273318295380141
Mg 3.585194137408413 7.527659384329903 7.63750757466181
Mg 8.775698282706266 10.719010579763388 8.727265270459691
Mg 3.8082778598330487 10.67615621591279 7.405189686413937
Mg 6.9871022152183 9.879799140643076 11.100489039190117
Mg 4.186920951227491 9.297174048262132 10.050166535260644
Mg 5.868642154489035 11.755293432926388 9.124972127272802
