36
Energy = -32.77537569 eV
Mg 7.51462484158699 12.426248351738456 10.392841263038555
Mg 5.154298298330457 11.643479118572282 5.095322629541833
Mg 6.030416079418176 12.512572724687208 7.858840734422444
Mg 6.167364386746701 9.73190317347191 10.277525826555753
Mg 3.682846557479396 9.071144093564895 4.570461997941192
Mg 9.18502354831358 9.7951947768273 10.1342821402951
Mg 9.173227766112397 12.09305338346839 7.974041498326546
Mg 4.708413840563685 9.548950938101186 7.46197252688286
Mg 7.489667534264332 10.14637003402192 6.277858843661025
Mg 6.457279009963917 9.525952456276809 3.3922844269945442
Mg 7.365402176681993 7.648682641607754 8.31819274604944
Mg 4.280094075044916 7.401984123603612 9.591114682941306
Mg 5.260451291952 7.577498189069867 12.408083393280158
Mg 2.01559351889394 6.5695921476108134 4.047002681661075
Mg 3.0013695253044173 7.009209951795276 6.865291735887026
Mg 6.009315341149432 7.243827398235167 5.562420232155252
Mg 4.7680917074015525 6.86802240116974 2.7780272090680507
Mg 7.973205542501402 7.21456443154655 11.381480055339214
Mg 8.941541909628686 7.97616809623542 4.822309716973647
Mg 5.339622965438475 5.156024427897747 7.89210691337851
Mg 10.194072453450959 9.19567574646773 7.356072111637284
Mg 3.981544733609018 4.663190505910026 5.167420588324777
Mg 5.552304175573179 4.916653295520559 11.034980281301193
Mg 7.733589645364065 7.072550769166919 2.301227216298946
Mg 8.27061554268108 4.692963204008333 9.69410838358095
Mg 9.759017846651622 5.283432060004334 3.695077261428164
Mg 10.276690476643783 6.995384032284653 9.367743556561209
Mg 6.154621363344451 2.550871489272794 9.275844391792711
Mg 8.257673946968687 5.275748479947292 6.535414349532693
Mg 11.21242663379566 6.419473409792254 6.3327405629318525
Mg 6.1218940305559615 2.716328138977811 6.148837120854442
Mg 6.688085955380873 4.655713007672899 3.783836713796231
Mg 10.905997980911463 4.237020601671746 8.493536864912086
Mg 8.762106437284391 2.3913163714765786 7.578364735886602
Mg 11.139995164595407 3.457713851573008 5.64158511534673
Mg 8.589215009893854 2.422665062405554 4.509271478964555
