31
Energy = -26.62465181 eV
Mg 9.010087493387019 10.879028981082824 4.1001223524394295
Mg 6.70695923586146 4.235588273797389 10.031889372348445
Mg 5.169700633578915 5.868671249831702 6.707872978093973
Mg 7.2775777048341626 7.102322644383828 8.510673299352801
Mg 7.876091260580642 9.904332815073426 7.140629994904757
Mg 3.361438549622562 7.61026968453077 8.97599591507561
Mg 3.0095795620654457 3.810051771624645 6.239333166308446
Mg 5.657916941918484 2.8381726723266416 7.54627295278858
Mg 2.476144990725661 7.075245724755351 5.906033802307903
Mg 3.8710731007792227 4.650461062873467 9.30669629894871
Mg 10.107508073295145 8.068705913684216 3.9148404726684727
Mg 6.17068784323756 10.579493974538533 4.560958181384063
Mg 8.562608575467827 6.057028275554191 2.239469630029859
Mg 5.525241053854226 6.791155198111587 11.042732175966586
Mg 9.496573282955566 5.283311382988124 9.75948469247211
Mg 10.00752379956626 7.128134001890888 7.018609355324162
Mg 3.6629425397949067 5.249643087490525 3.7479075928035006
Mg 7.960997480372915 4.680553581699925 6.91125551405771
Mg 1.1830066065956453 5.669214183442571 8.143893266477516
Mg 8.82572295619811 2.509115064685043 8.90493463329648
Mg 7.323992938531092 8.866515965092402 2.3622473847268917
Mg 1.4403015536897077 2.637970624651141 8.661606815402601
Mg 9.91359797965161 5.0955307436011665 4.698642905091573
Mg 4.937703055990037 8.920099015191365 6.770472285310555
Mg 4.643671745944198 8.075507966392744 3.8734814981558503
Mg 6.627341565201037 4.557653429972891 4.21806129013577
Mg 5.811975791777938 9.467532892831297 9.608849015408735
Mg 7.394613923349454 7.416559562594984 5.244118852376227
Mg 10.785795472012351 9.941523457610202 6.214318348362243
Mg 5.714853779175759 6.3371175770221795 1.6703164146779155
Mg 10.992074263577273 4.198792974265523 7.473583296894556
