37
Energy = -34.06209407 eV
Mg 6.090796890223834 10.919113057402061 8.263866165747768
Mg 8.446530816480786 9.523324791773577 9.853627967537856
Mg 6.105034922866009 7.978852560360064 10.810320899417057
Mg 8.965040911880903 9.840658361613961 6.859393003592142
Mg 9.174125647867747 6.882447950159149 11.365354116941882
Mg 10.501337258293182 7.736270358247358 8.55113581332592
Mg 6.786833718624326 11.085158505855743 5.185524482289614
Mg 6.515794502464019 5.0333669904244775 11.468682808914087
Mg 3.634010609964085 8.633713790993152 8.768300189642083
Mg 4.749418050916178 5.771256048426823 9.188236625733307
Mg 4.141444319865286 9.945586615087642 6.011713375855877
Mg 6.522215385674708 8.054256732658871 7.756277978943488
Mg 11.329079125287064 5.031104024576418 9.831178880127657
Mg 8.869413601918206 6.596029471139674 6.12138942030092
Mg 9.055163213978386 9.461809483589256 3.796891348809091
Mg 8.049069854847156 5.859832474194474 8.899101358922428
Mg 9.01755461462279 3.590216035466716 10.805949190701968
Mg 11.518672855257844 5.377378804750209 6.875257240907589
Mg 1.4216445611446775 8.395208693597759 6.462670318225406
Mg 11.221269740913376 8.216503969987674 5.470006942991268
Mg 1.9658245291321248 6.022462729507896 8.154706602391451
Mg 4.160625429173001 6.9473590488914185 6.176332531843119
Mg 6.427619206619455 3.1756079270951965 8.923149582131343
Mg 7.233728204541778 7.679094256068279 1.9713197736289534
Mg 9.621311651049048 3.835750167706271 4.7026188409746705
Mg 6.3853283458905645 5.116327279774969 6.488050947872213
Mg 4.85768591087588 9.552704111215295 2.9733867760020227
Mg 3.708494997104628 3.7331429970177545 7.166828488525586
Mg 2.1540929279281325 8.499508117437264 3.6511733321813935
Mg 9.755560992119158 6.571567838438837 3.2039742929522905
Mg 6.621103796112953 7.932190294863518 4.831503125790729
Mg 9.213222679391441 3.3956724168696977 7.634090782215599
Mg 1.9834632419637372 5.53150927474352 4.920476498604632
Mg 4.45390617186168 6.516042599668452 3.0905298048444187
Mg 6.99379061356041 2.3775989922679086 5.65718782906297
Mg 7.13069051488979 4.9534057961440805 3.4359133690974155
Mg 4.4756869198175 3.755963771146949 4.309828801382977
