38
Energy = -36.29759378 eV
Mg 9.90055698347383 8.192280277043892 2.136872635892158
Mg 7.0482622420632755 7.060044158308116 1.5525626065514402
Mg 9.320535053537007 5.39630258227458 3.2505634858772385
Mg 7.6891964844347145 10.041116518246143 2.1416746303289727
Mg 4.227130216464434 6.104411077241509 3.0533961707154553
Mg 6.531914666208444 4.192909351356533 3.113518166750643
Mg 5.024611304598582 9.017464444560778 3.261903692356596
Mg 8.976879321710953 2.523566010099533 4.147417977122188
Mg 2.2032815993676125 8.321587421700102 4.00898529652339
Mg 10.210044911300086 7.620939657030896 5.29309388121011
Mg 6.277809472513872 1.6448018819652828 5.008022092116853
Mg 4.197465177682004 3.8057631613628353 5.16151089937701
Mg 7.2951005997532405 7.330864712127797 4.441516761862518
Mg 9.85171431139823 10.422866646523444 4.194755837628941
Mg 4.7573528585846 6.827943661418905 5.9402261741141364
Mg 1.7621661306636713 5.528923919307978 4.943529462952515
Mg 7.007406049917233 10.255384271065942 5.285360081616579
Mg 10.182020542403585 4.652388529796845 6.033513818425581
Mg 4.0287046216415625 9.848281075764488 5.992693330435572
Mg 7.432147592608337 7.58828652667629 7.402934308548556
Mg 3.0048680534167502 5.050989336947441 7.777598429580549
Mg 7.07542093594854 4.795380032911371 6.0071978824235375
Mg 9.435407795757863 9.982492939396387 7.148498143241654
Mg 5.790780811977383 5.6729392239067975 8.82116175912283
Mg 1.678149136336318 7.778424312152269 6.893926184260086
Mg 8.434310999565827 1.9845365145739025 7.041374828454568
Mg 8.696276191551584 4.511280712741293 8.543028524785926
Mg 6.380324480695745 10.269212268538835 8.284416799838425
Mg 5.487956191038897 2.813665915752011 7.789521587302226
Mg 10.25467987440613 7.082672789297931 8.320845129683399
Mg 8.773439591077235 9.259637441970522 10.022385296483886
Mg 3.987381830651794 3.5484850441915614 10.558465921110235
Mg 8.262522058362594 6.340854263064148 10.784153526815942
Mg 4.094802672133477 8.289959902223693 8.505375055359886
Mg 6.95914282968099 3.2479755255800655 10.550926241598575
Mg 5.982742729199461 8.23391192456643 10.763403235652426
Mg 5.588407863687382 5.38894518362575 12.22924236677198
Mg 3.237243852188922 6.420668822690518 10.642585815109564
