31
Energy = -27.2893175 eV
Mg 9.234703388031704 4.047747966428955 12.90179840156871
Mg 12.273872265082481 12.502722675154953 11.069608586247444
Mg 7.770884917588666 12.275871503758278 5.471838820480297
Mg 9.421735023299215 4.570808543328691 9.825471585328899
Mg 9.681826386729496 11.606478429131704 12.787185002802053
Mg 12.672814188045967 10.358873814403754 13.003362126159727
Mg 9.642688536011478 13.232633819194186 10.05318080475171
Mg 11.898556560282817 4.705567773061701 11.573998612003253
Mg 12.066475260608202 6.849442811913683 9.324748819874356
Mg 9.310573082335859 7.419923349762525 8.232767849079567
Mg 10.690718215752577 11.439872918043735 5.51220271020288
Mg 7.154654406194396 13.277159637455307 8.287997142430408
Mg 10.455765099543171 8.793967369147406 14.053935924274796
Mg 8.375801815300228 6.585871228766201 14.350558567817968
Mg 9.722820772939347 7.061758152351829 11.48902607825671
Mg 8.608731316124066 9.245190652624995 5.599648704417964
Mg 10.39428054801266 9.733007048543886 10.560684698791084
Mg 12.780325574244461 7.555594322331432 12.228705075606548
Mg 9.775442418980843 13.913315899893005 6.95083829436155
Mg 6.452907574102556 7.658148030385702 6.87341169006276
Mg 7.277845580797213 11.409561920881032 10.760007677644142
Mg 11.96566354928816 12.012429656706539 8.222420700292323
Mg 6.96524316061324 5.879022660609447 11.76104663707333
Mg 7.129920308336067 8.533007538281321 9.85745042619468
Mg 11.255953686495577 5.728400163352102 14.317434112015379
Mg 11.647944918336472 9.089622031944891 7.312282492974826
Mg 6.118570906571061 10.539260167239332 7.466906772991966
Mg 9.05049052832057 10.72738422700203 8.185031277154481
Mg 6.811270055750152 5.549439209247563 8.817221857867127
Mg 7.688883668182114 9.159621002936515 12.759448600533961
Mg 13.322427405853414 9.664243784587478 9.90650435921959
