38
Energy = -35.11574911 eV
Mg 12.464168656079321 6.4198322605864675 4.9050854642299955
Mg 6.769619775742256 3.2676800620869635 9.77752079531747
Mg 8.340921004694648 4.081353919133064 6.845607193272749
Mg 13.093300207480233 9.293907123522366 5.214979375419757
Mg 9.707089383057195 3.5892958295794144 9.586590507286486
Mg 9.830586043594975 5.099800396235121 4.27593604392683
Mg 11.150079693413236 5.001644151659745 7.2145170588206575
Mg 10.325227825825845 8.173891256742642 3.742051954913165
Mg 11.775810725601323 7.953903763790012 7.565254230359466
Mg 5.513474433262578 3.143241434055333 6.945634029943104
Mg 6.973180865042248 3.9126550344611504 4.096066808151888
Mg 3.847730111244839 3.7849985441605183 9.46091109468468
Mg 8.184547040898575 4.933542637416354 11.877569493001113
Mg 7.461163930993118 6.899923883159337 3.4738158725805857
Mg 7.060591091289562 6.196086257665856 8.709998985638292
Mg 10.347044692548456 10.209064087030084 6.110843343094214
Mg 8.897399970808477 7.199035660940258 6.363444064371098
Mg 9.975195559356024 6.4909269432434185 9.714897466659547
Mg 4.146382786346926 2.843807121664104 4.247488352248765
Mg 5.731566966076397 6.028097376264313 5.971639615389276
Mg 9.104984180353075 9.151767231156947 8.77392949358146
Mg 7.806045981660997 9.754248114204495 4.611196807698058
Mg 1.7571846994847935 4.505917240049303 3.9147658786900212
Mg 5.365674417717272 5.796764538030157 11.24239788234133
Mg 2.6425345718251734 4.145136629457631 6.702221186490491
Mg 4.557880029745281 5.700539090431165 3.1881683604912854
Mg 6.404501176235938 8.793887394702995 7.27817819199925
Mg 7.62441888017886 7.859812220185103 11.304729211911232
Mg 7.837688803720089 11.581861820783084 7.238165585474935
Mg 3.8727535716303314 6.560196042963406 8.34166292586949
Mg 4.983985752229271 8.584404817183959 4.382116540272679
Mg 7.101206099624486 10.727053347385894 10.317205563104986
Mg 4.891917926563029 8.779259844927207 10.019238975751998
Mg 2.6909829851398284 6.907019871944294 5.406617965147396
Mg 5.304179677312564 11.32479466031065 5.640572827252451
Mg 3.440543511821072 9.3340282360626 7.068755881926405
Mg 7.282175342786171 13.664767624099321 9.523902454867503
Mg 4.904326267468794 11.622934940426425 8.541640983549586
