30
Energy = -26.39079913 eV
Mg 8.591784875067571 7.526978085646239 14.179848613823825
Mg 11.927119064656047 7.360128463633431 10.399545648557387
Mg 11.022071238211828 5.909774950900455 12.859844141925555
Mg 7.811074517171468 8.169550226365898 6.230212191412802
Mg 11.185799926521536 12.052890127275605 7.47475581620054
Mg 8.403619738748308 12.91654883926114 11.020714497308795
Mg 9.828907145549081 5.080990843976493 10.103000039528922
Mg 13.276106907490782 12.168929459196317 9.65904458402015
Mg 10.994515265802695 13.967138782424971 9.97673865910664
Mg 11.04204768039278 8.924672021858674 12.828925875660893
Mg 8.381962141407307 4.730839155702457 12.828187781107637
Mg 13.425320869111857 9.861947487482862 11.256312455093003
Mg 6.691330134475177 5.435766669427168 10.41309142577846
Mg 7.966238011910158 5.411078597407393 7.667152774538732
Mg 12.59837731742258 9.484105210725025 8.21709880652665
Mg 5.291148786210511 8.066166801995664 10.998814810008902
Mg 7.2589760684032 9.453918011006659 9.095720390026688
Mg 5.5763729927954016 7.0589731481980325 8.093472009738315
Mg 11.327841083072745 11.981063344464559 12.169537913372782
Mg 10.061019056725417 10.414991683793343 9.864801644588487
Mg 8.368047797759557 11.137802668509893 6.782476429092722
Mg 8.763984029146414 13.783372288765944 8.08773682476994
Mg 8.5231542342278 10.405535921511337 12.742872892187673
Mg 6.338741595454163 12.416090271133347 8.769175372702213
Mg 5.891112332365205 11.062596017376666 11.452041986778656
Mg 5.973074170973299 9.111504804544506 13.777415910800258
Mg 8.589838054427654 7.729432497592639 11.155497711237697
Mg 10.635592116120662 9.41961638171329 5.850358909123206
Mg 5.935198076656473 6.225028536038655 13.305673100691164
Mg 9.924436824725447 7.6794209821416635 8.276361210281554
