33
Energy = -28.80686483 eV
Mg 12.872079687959037 4.35648453528909 8.358391454915147
Mg 10.764087389439016 3.313355352773296 10.141776527185366
Mg 9.697607212308851 12.082977938015777 10.65707361268582
Mg 12.76672180263026 5.569370498159327 11.125933693009234
Mg 11.284012979063407 7.408877445624002 13.183192598732068
Mg 6.501386854991703 9.104845865510526 13.224548651965387
Mg 12.222936595671927 12.479946083700902 9.082409971814117
Mg 6.168319758870014 12.19449605986662 6.366910409939823
Mg 8.03734756702836 4.70648800784459 10.372412328041431
Mg 9.385970468801817 9.342461492163443 11.812604205434784
Mg 6.882013016546784 10.881796677149461 10.731360140191208
Mg 8.408405182696526 12.497839337298013 4.428358808544165
Mg 9.105635575530014 8.993355464023908 14.798103607055925
Mg 11.028313296503127 13.14065643551118 6.130978475528432
Mg 6.280927088207806 9.71912817720263 8.09280262606093
Mg 7.537237148454434 7.008964139776639 7.493422932351451
Mg 10.311200757569287 4.492305166101649 12.761406342257137
Mg 10.016787262044007 5.218793338636341 7.8681030942933825
Mg 8.123036101422269 11.597104274683867 13.445090221477493
Mg 11.986684988204741 9.709048197587784 10.326875648146073
Mg 10.248730957929059 7.784654846013195 6.074872562123108
Mg 6.8941380264380205 7.7166379457175704 10.4705576450184
Mg 7.1315900612863175 13.417548558375431 9.132434970679443
Mg 12.342723683541767 7.308090426965229 8.370538986425998
Mg 8.20932718574936 6.60820563654643 12.977140726270399
Mg 10.505537873103496 10.415852443918435 4.705181931184694
Mg 10.006258941661992 14.449423508569694 8.697343824895848
Mg 7.742590364042635 9.489866758377563 5.528445251282827
Mg 11.96092093691045 10.153911910667425 7.2889221752027105
Mg 8.974405882337788 11.601631764714217 7.559879621152082
Mg 9.316904253486003 9.113912212270671 8.791268524453454
Mg 8.12273588183546 14.572770197515084 6.467663385624956
Mg 10.15938378224277 6.802267087483512 10.447909091240156
