31
Energy = -27.08633183 eV
Mg 12.241364172496816 9.80422835119941 1.8902817778311463
Mg 9.302897974111291 12.587767096245491 11.443875148644928
Mg 13.688470707030849 8.786163961587455 4.352490170488907
Mg 11.117453503717115 8.4229248730397 13.521317292481417
Mg 12.56820118123166 9.666393348076515 8.930256011134182
Mg 9.425140040119025 9.14799829120403 10.495062375214946
Mg 7.128646880801685 8.131728902204705 8.609641769459271
Mg 10.613519151604331 8.632216252679951 4.539507877078044
Mg 9.374512224788186 10.770760834026447 13.743538613397527
Mg 12.135638254177247 10.847403187692278 6.219175470787004
Mg 10.775093496224526 11.828268681431533 3.6770554829820137
Mg 10.304359517277247 6.511725125806819 8.938252540008957
Mg 9.254942419471147 12.14007181712239 6.286396979705018
Mg 7.640941225266368 7.656832750900468 5.475980458007657
Mg 13.798686289904827 11.692112564666546 3.4842249667597676
Mg 12.333456424626041 7.598160424122309 10.9125655586253
Mg 7.600840731809761 5.938720987819039 10.64626557062379
Mg 10.14178575728851 5.998428091646306 12.061261818248378
Mg 5.211577923041665 10.363401149168562 9.502712032164702
Mg 5.680602757168595 8.11549452352044 11.392334842873932
Mg 7.822699243846655 5.389765597007844 7.573526434156713
Mg 6.9329301474812635 10.788627131922972 11.992257389404172
Mg 8.14437847818714 10.319072270179735 4.185527659119855
Mg 8.08124385599195 8.029586633198315 13.108822631094146
Mg 7.912175403323956 11.488311296779374 8.991849971121136
Mg 6.460760495837031 10.341590204698281 6.571092257394915
Mg 9.71677054504714 9.27350097954454 7.458247226862671
Mg 11.782069496216577 10.777619875589043 11.6957553229633
Mg 12.459382902172711 7.563857052733781 6.8759723933889685
Mg 10.876906957589968 12.021319865505944 8.912482047700491
Mg 10.142770924126806 5.965067349851037 5.874874687312809
