37
Energy = -34.95195576 eV
Mg 8.00059764977549 5.84522761424766 3.089853022620714
Mg 4.946729215937602 5.530199936942745 2.3577915138419776
Mg 6.472356999684941 8.013369359609255 1.616630520240792
Mg 6.7544747970270125 3.1562657260796296 3.477339856896104
Mg 3.6406605271383423 8.336936620029226 2.0558496119691703
Mg 9.544795620024358 3.7725105209544934 4.87980752294751
Mg 8.391499435440277 8.79229419359834 3.712576614714142
Mg 10.371900408209122 6.729264766468052 4.959024839439325
Mg 5.690033159999646 10.330769954739704 3.518841605648494
Mg 2.8748236025544376 9.805043934783468 4.501687933516702
Mg 8.322071347683444 1.0898664847985238 5.287951151667337
Mg 5.619837517591257 1.7624531146656215 5.911826236953642
Mg 2.676627092475437 6.797822702413762 4.595319190673943
Mg 4.2940456773706535 4.38466153579313 5.096232970407942
Mg 5.690406011597985 7.464535869493469 4.738171253507351
Mg 11.449032226192823 7.909838288891049 7.668534451800091
Mg 5.034600806235751 9.955250777268194 6.565992377839715
Mg 10.661368420198109 9.739764110130688 5.478921658377379
Mg 7.803738010666891 10.836621581751524 5.9295888003725
Mg 7.08392290658311 5.081447796320094 6.078972899151168
Mg 6.935841435182753 0.25891732791467087 8.411089828551722
Mg 2.4305907595132314 8.406567741400528 7.236663800311286
Mg 8.047883823291677 7.877889686919534 6.74613435839228
Mg 5.267061322441797 6.9907821375125385 7.772531276722183
Mg 4.052922944610478 9.62568134814865 9.449741498989946
Mg 2.6532739540237014 5.416844318694703 7.491853882403441
Mg 5.0634473691251936 3.706755991171833 8.05091410169659
Mg 8.271412181435352 2.831490645494555 7.750075506919412
Mg 9.854966424098475 5.406679748833188 7.675143065130869
Mg 9.859475460819203 10.284600431373557 8.310468905499768
Mg 6.9535750255288304 9.821093487631554 8.913479794873417
Mg 2.813514037787352 7.049152720364296 10.075220098946586
Mg 7.315098250227798 5.273119150120855 9.389833691729615
Mg 6.307057729072067 2.2052992170830628 10.533872279388577
Mg 5.858404854773737 7.586453795460071 10.763939919922745
Mg 4.528409325932858 4.765327214597175 10.765164560153025
Mg 9.028063043392125 7.723719521943911 9.707478771426373
