34
Energy = -30.50685206 eV
Mg 10.143962394728334 2.7491908018900952 9.863563583572805
Mg 10.054881500556467 5.693289075600234 9.619711311560234
Mg 8.187508696809912 4.283445942678256 11.700778258430311
Mg 10.101904535745089 3.735684484868653 7.06354993559878
Mg 7.437567973696997 3.2989075104536694 8.816326192810376
Mg 10.061013973468459 6.709341406199815 6.649181704171276
Mg 9.56119702028738 8.560954269267462 9.154286960826498
Mg 7.746268919278868 7.221927435790998 11.416981391842528
Mg 9.849364116496323 5.004698907158235 4.10259968411502
Mg 7.3261204861583025 6.323946403182141 8.40586780853286
Mg 8.275455820876596 10.177342408308352 11.481541941676804
Mg 5.499739189539297 5.139256106969242 10.734747104298904
Mg 7.418858490047697 4.300643993578916 5.8383106139473
Mg 10.853619982979266 7.880902670886088 3.9925716835497664
Mg 10.699197785588572 9.689734789143856 6.486118299753529
Mg 4.885371801914525 4.286077517289557 7.7189897418071975
Mg 7.710292627238806 8.83879924879583 6.652734658961343
Mg 4.6279847196429325 4.1377943885224715 4.623316785360493
Mg 5.4787635082903465 6.811562335028656 5.975862009904901
Mg 6.3533691851035226 9.323992973804604 9.398731287221786
Mg 8.579486213404879 11.392164734342527 8.644659119950353
Mg 9.47800023845899 12.408810417098985 6.071374359966637
Mg 4.236052177824656 7.350892417361037 8.776763511747946
Mg 2.662343212086703 5.045511685099324 9.758976548512315
Mg 8.773682145159846 10.189324788411836 4.145591351565551
Mg 2.2206502345006713 5.761759685222143 3.850548674438875
Mg 7.863320089381705 7.243144070311898 3.9086655927159466
Mg 7.125752059211559 4.474159808355286 2.8472109779617334
Mg 4.397012445506715 9.930732684347129 7.114098333482447
Mg 6.605435389627188 11.749171872922258 6.3476288150042866
Mg 2.4112863248285965 5.777569882768595 6.758094829055544
Mg 4.961859877831612 6.705902668753904 2.9790622957406976
Mg 5.669047067565503 9.49955483032228 4.353208120062651
Mg 2.861770508940232 8.332488872922756 5.156241068114642
