39
Energy = -36.15385036 eV
Mg 9.531564685192027 3.2945279865870845 3.266664159814106
Mg 7.407836250807083 3.8854424502070817 1.243260224864028
Mg 11.853830010258745 2.75902467407189 5.2086204937724325
Mg 8.858806808984811 2.919192804323058 6.231678095440674
Mg 4.969850313344354 5.2732968314781345 2.060952076950817
Mg 6.598754325329451 3.8226388236777726 4.265729577241325
Mg 10.793483155823177 5.472811001126302 5.118748323622786
Mg 8.42187806151551 6.224926141452823 3.1922327264469366
Mg 11.185961814185054 4.140531642657049 7.8678053604310785
Mg 7.541099403640187 9.255814944232641 3.381058896240495
Mg 10.417946319339487 7.171946705999125 7.922346893255781
Mg 8.383138706652375 4.194191400115923 9.14440095450302
Mg 6.039053137247578 3.733218240158182 7.265867308272112
Mg 3.3236620592876602 7.512936629193051 3.068246467251671
Mg 3.6386661145347117 4.939535576003655 5.281208764639905
Mg 9.851348070934336 8.326663538380242 5.152815379932519
Mg 10.66969104268713 5.668029441739226 10.503028907286117
Mg 8.027134198546074 5.853021260221667 6.442314640964277
Mg 5.822023396303868 6.91500170374503 4.667646019777238
Mg 7.165570066984035 8.815652925709289 6.602486138958191
Mg 4.874471379552309 6.687183384572278 7.625216967440576
Mg 9.162053901856071 11.182296765703912 5.348772986744604
Mg 3.2907493905814644 3.857770622808358 8.180893567283508
Mg 9.542442548969664 10.098639893087789 8.171684306556665
Mg 7.500468316818279 7.182742525564326 9.149891679002623
Mg 1.4144865318795998 5.941726002891087 7.347062008188871
Mg 5.5459453065750655 4.964498819962257 10.156521351580235
Mg 9.648896811016924 8.52105989364437 10.872408623644313
Mg 2.785924929519769 8.149041617678566 5.939739786621778
Mg 8.006488244711141 5.861086491676406 11.881543847329558
Mg 4.837846666792488 9.91075344728307 4.786116815171754
Mg 6.6802127063396375 12.135376610546102 4.205442752925931
Mg 4.581216228197187 9.888407890093458 7.908783296166651
Mg 6.952208439295148 11.81360381343521 7.2586464591741455
Mg 2.08312643636609 8.485339956320589 8.862083990258057
Mg 2.6457936396031596 5.949845442790149 10.212367921996373
Mg 7.0031019793114675 10.136556827117282 9.84663375336918
Mg 4.792950339173614 8.088069052002988 10.467004367469281
Mg 7.050874792724439 8.550984903599595 12.492527327480353
