34
Energy = -30.92248233 eV
Mg 7.476683731594184 9.13603906969822 10.785244435659612
Mg 9.141277057979044 9.764667664273494 5.0555340941967
Mg 6.609883730561652 11.125659159888322 6.133353870247521
Mg 6.2823145728197325 6.802865012793175 8.662550781779931
Mg 6.285563345771243 8.00378090689447 13.406159623771147
Mg 11.329084659371814 7.937518035839943 6.2550410809069215
Mg 8.822560743058652 6.237719140253834 10.099814418588899
Mg 11.33155975291981 5.406374425035318 11.67084495138533
Mg 7.314648002498592 11.823666535300855 9.086802693849876
Mg 13.65291653528084 6.996970011690097 10.89296996665443
Mg 10.764590220258768 11.45464546973086 9.633993262928291
Mg 12.87799549942477 8.985066290701502 8.59666322713853
Mg 11.542499073814787 6.2322496008438995 8.708703670967422
Mg 11.816961930236536 7.915433309650648 13.36640570063653
Mg 10.621229999188621 13.9001728308474 12.034606023114144
Mg 13.656055537113877 12.044086123450207 8.862416331507255
Mg 10.579285685252609 8.653050606935633 10.74423998387959
Mg 8.936953131563314 6.386040717173834 7.020831698998313
Mg 11.305400710642399 10.976330535029376 12.874966591322435
Mg 9.031237206283222 9.318247624761918 8.161752885807807
Mg 8.489369210981936 11.762858466009051 11.831028312865172
Mg 8.926128404185938 6.438643586018301 13.124905142988993
Mg 11.726202242900854 10.856143900827526 6.508053137958507
Mg 13.40853187871118 12.8144270906535 11.777302843520761
Mg 9.34380850065079 14.183697913780923 9.337591011235656
Mg 4.474757744852924 8.11055159202264 10.928250289282847
Mg 5.352940165316691 9.642402863277788 8.41283782705589
Mg 12.381086294802078 14.806746702725496 9.821970414145023
Mg 11.731016930149389 13.79445128176308 7.218545003179255
Mg 8.989014203903904 9.33994443884446 13.642063480122207
Mg 13.677500350120809 9.874330359876478 11.34328079360987
Mg 6.193754266981608 5.673569881999462 11.518330637272685
Mg 9.172930242532308 12.397021371404387 6.7792222918499965
Mg 6.73281466890216 8.208923403983169 5.998131355190976
