38
Energy = -35.34249372 eV
Mg 7.005749946838475 13.206952645070333 5.752027297635195
Mg 5.464415651448277 11.397210794261783 7.600391653490661
Mg 4.192435075986064 9.11724391486458 9.039056294164865
Mg 7.257603360227689 9.322319822057539 9.282016654621035
Mg 3.1330767951354326 6.683010150366218 10.383528419956182
Mg 8.635686643620408 11.127320828029482 7.17089262509747
Mg 6.142597816993604 6.8120384642937575 10.589211608355216
Mg 2.1982896716194373 7.169210113268077 7.468368935280941
Mg 9.15586853477958 7.130551126920898 10.771876261738349
Mg 3.5025251912821918 9.495188362648058 6.017547567078776
Mg 4.808311024069715 11.758665676474125 4.505702583128853
Mg 10.316025677786254 9.15189059378086 8.652293232019254
Mg 7.771535621141201 10.802233384416661 4.097736979358295
Mg 6.570085214728615 8.911542714632327 6.177869847832444
Mg 5.214777844690733 6.579151984067636 7.590953418012604
Mg 1.6347244453701557 4.612946113236743 9.01366743798578
Mg 11.550195060371806 5.9194756909195565 12.75237124300479
Mg 9.164572624066233 4.279149010739989 12.483992068427641
Mg 4.706889103174352 4.22953549020243 9.535980677678886
Mg 3.809252026122533 6.709270591586154 4.734115318358352
Mg 5.248853654296375 9.029460392090135 3.3410984799564614
Mg 3.3502654177301694 4.256001986033732 6.637881286956174
Mg 8.237248600592158 6.760367497512658 7.770732854548754
Mg 7.773922280443887 4.330750596601003 9.74074699637334
Mg 9.69430906806773 8.69198200089906 5.659251430125624
Mg 10.83656632709985 4.691797072294415 9.886554288931293
Mg 6.9426613359721605 6.1229991085404425 5.038465628675914
Mg 6.4437626196327065 3.722476052419756 7.02548305376207
Mg 12.245928453331855 7.4056221342980075 10.297737837794468
Mg 8.196955136053822 8.070013504072213 3.020910561939767
Mg 4.97337317985906 3.8365301655323187 4.217640082564582
Mg 5.654197308778342 6.260324273629267 2.1836686219746033
Mg 11.30993026857359 6.529701726845787 7.4581903380787455
Mg 9.501671238606011 4.010700695802392 7.0927219431440065
Mg 10.053023039412258 5.844838402676056 4.722365541314067
Mg 8.137743551148338 3.354543840094207 4.4061945240413785
Mg 8.617821007881064 5.275505055267722 2.119879104719797
Mg 6.457439624925429 3.389529206213716 1.7194788970212476
