37
Energy = -32.85706086 eV
Mg 11.574910134276468 3.7130178038844495 8.189930321657329
Mg 13.392371602327934 5.998165620702359 8.271376679453812
Mg 9.19437461154297 4.126356196110799 6.5046048550515865
Mg 11.256068299721472 6.274965523405763 6.129921829861911
Mg 7.131087612882447 4.4139231530795096 4.531374803358353
Mg 9.827303936890376 5.44344136960465 3.763635943880196
Mg 7.713000423612123 6.082726180891827 1.7572458058849212
Mg 8.859583761683147 3.227124188508921 9.418646317129383
Mg 10.621541634186688 6.166176871683809 9.568044466398433
Mg 12.205261366086305 8.618425787255745 7.758515381634719
Mg 7.700021998853563 5.957294610725652 8.680978602731338
Mg 9.300769818293999 8.579527854135932 8.470422669774393
Mg 10.176453866906469 9.689176921786341 5.688171879565181
Mg 6.50617438201446 3.129839468562159 7.5082306307101465
Mg 8.335798675639907 7.189511533184414 5.8949560962743455
Mg 8.758862092293962 8.680976826378382 3.1328605683871924
Mg 5.03074659535815 4.896523657717719 2.5391557420611695
Mg 6.932163411842098 4.652518774983668 11.38736818201593
Mg 8.55136159427525 7.294958305761932 11.328431657134109
Mg 6.058163571455219 7.482179679328137 3.8548905118708854
Mg 4.742779286886443 4.758594292027804 9.366906643229992
Mg 5.534188516814044 6.055081638177014 6.587389705502474
Mg 4.420234514829595 3.3761297800242094 5.375631495172778
Mg 6.8913741788920495 10.23970635356564 4.851201683665095
Mg 6.317355708275181 8.805632348322222 7.780195316827328
Mg 5.6370867972269565 7.457625322243616 10.716317128194369
Mg 3.2819411931343128 6.289360484896664 4.477540988912485
Mg 2.6319199607072923 4.863497198905234 7.278364645402498
Mg 6.180384844417309 12.542763763090889 9.35654087816854
Mg 8.14617617562378 11.20538664512144 7.4508703677811585
Mg 7.426925010841976 9.964223866285868 10.382112894822546
Mg 4.180880440417295 8.902822350421681 5.634856075165224
Mg 3.6266189893972336 7.510562531418352 8.491988721724317
Mg 1.4326283467887129 7.600482658536776 6.435462709517482
Mg 5.063008689094818 11.545450008771203 6.77934491854807
Mg 4.419996050068876 10.159267117950261 9.822082513577252
Mg 2.3389972883072017 10.222003271987594 7.616141826559889
