34
Energy = -30.27890092 eV
Mg 10.319913486527854 4.578394387545249 9.497621938852374
Mg 3.4933571727287833 5.573151447822419 7.724365539439035
Mg 3.629552153512153 5.7198713847921985 2.565633143868648
Mg 8.09160694449832 9.968023218554606 9.014783851317327
Mg 8.85056499798908 2.797218114253507 2.319802996187688
Mg 7.752266877070799 2.9860970671992084 9.412617970868984
Mg 9.55648858848965 7.440914020993582 9.609866477649302
Mg 10.700414050936795 4.628904081069029 4.001332470968988
Mg 2.6161962462408517 8.343307361896338 6.8494979770504845
Mg 8.786940627544224 8.153063811285406 6.597887829832142
Mg 6.198801934132798 4.294251157954305 2.576277547538645
Mg 6.658992457007953 7.754202803685404 10.690826675328827
Mg 6.2205822813618505 7.355644489532371 2.602930303604134
Mg 8.747099783483641 5.78640207365272 1.7937785973824332
Mg 9.395369819125246 3.726299586264842 6.827088900789131
Mg 8.09634309344672 5.22655550351322 11.375482754919938
Mg 5.982647390426531 11.56458499027144 7.559084660717261
Mg 5.368033764688127 10.446900327452715 10.41516166781652
Mg 5.590997337977989 3.4745550776002587 7.381824582196846
Mg 6.5255678024448605 9.447783142318144 4.917094689489073
Mg 7.990646778014294 5.611412209462937 4.9172561714550005
Mg 7.097399969602318 2.545196939786181 4.959776793177509
Mg 2.097654115306424 6.037837345721165 5.059936037173988
Mg 5.3048865507828005 5.04563403396761 10.112144533112488
Mg 4.089607109272476 3.685832441346614 4.817816553905766
Mg 3.8687372557836355 10.86477360164438 5.661107637521753
Mg 5.685034704169383 8.471522317508708 7.684754143977238
Mg 5.287304309991998 6.478642524385193 5.493658128485092
Mg 10.140219019451033 1.708785206833228 4.7291184956123065
Mg 7.374204642809623 5.892986531422286 7.960462963563411
Mg 3.643273401952607 8.512019684136696 3.847716136101477
Mg 9.016167475266638 8.185919575660924 3.6292196647926698
Mg 3.675591503470067 7.901809690465468 9.847011605633408
Mg 3.1545045906537195 10.798472086162388 8.554028795830368
