37
Energy = -34.42183269 eV
Mg 6.504644351810696 5.026306730668051 12.037004634258542
Mg 6.483678007588084 2.9521581256630705 9.82018139364652
Mg 8.64134046752521 5.3723141978692635 9.740585625733383
Mg 3.966202991885716 3.776553780804172 11.066339115358167
Mg 9.24821509985874 2.7152766028686313 8.629285900889203
Mg 7.453000468856797 7.72668409079614 11.223575071063214
Mg 6.900570066769886 3.2963268327479653 6.756135168214422
Mg 4.397213349470292 7.096157599186949 11.185558124446318
Mg 4.044461114288069 3.492575149182665 7.810250422642556
Mg 5.781552469101885 5.821539666762655 8.742367144191615
Mg 9.721964288859859 2.4929312098661476 5.703446401558918
Mg 10.399182306098538 7.69194009693943 9.103360484552981
Mg 8.312590501782005 5.971852749557644 6.5151575031857165
Mg 10.983048172793383 4.91266641742511 7.681356191623854
Mg 7.570850358027439 8.292032849558773 8.275136795586949
Mg 2.4183870103336935 5.4870199416392555 9.325894247740202
Mg 5.463875286909602 9.706199846005678 9.783566127426536
Mg 7.96786811804659 4.21766389590592 3.935825695460771
Mg 11.031923045159518 7.488637360551288 6.127799871543224
Mg 10.958663421877306 4.84596006964914 4.622668026975836
Mg 2.553080804563934 5.7773283369572725 6.256460080449771
Mg 4.892423254999688 4.391102937412226 4.800866863390287
Mg 10.315988189513087 10.143423141595688 7.224296270190367
Mg 5.436604878887476 7.1462782144999295 6.094985581253841
Mg 3.4166390741810684 8.027846911005444 8.29381115239148
Mg 4.919533812489879 10.100454600461754 6.749998982329058
Mg 9.295075117888764 7.108626830312074 3.5572920462206064
Mg 7.829028518008463 8.928450422466488 5.43833988628697
Mg 10.860601474006112 9.756207073728337 4.079219007804794
Mg 3.292136729247238 6.704613060587302 3.3957866178918543
Mg 7.551023834898688 11.33030088405758 7.576859667032537
Mg 2.5512237334659105 8.69079506975832 5.4128866882507145
Mg 6.3587078906040055 6.697439012183984 3.1744994185671827
Mg 9.334579595316672 12.022504589256231 5.04115165751265
Mg 4.974273309850535 9.311588810411461 3.696242434601439
Mg 6.424169131913504 11.708710163242406 4.700982139280873
Mg 8.154545302167845 10.124177604918337 2.747235286623114
