30
Energy = -26.74864302 eV
Mg 9.106537189782415 4.216390419103149 9.308863898763455
Mg 8.083810231034358 3.640942114156965 4.485751235523735
Mg 6.266289486746195 8.067697086102886 2.4287552060245874
Mg 6.246261803697131 8.099000217481302 5.97648953269317
Mg 9.96545740893857 7.324909027307436 8.813698143768201
Mg 2.857726269934819 5.1256889030977515 4.825827762321577
Mg 3.702494614062187 7.986876778122584 4.078031539299863
Mg 10.999969284265903 6.200349985585514 5.704766087421598
Mg 11.831515778674666 5.061588350328843 8.34120680823157
Mg 2.1796285681343437 2.386168597803941 5.877891999290924
Mg 4.235893827097673 2.363899319117607 8.035420171531976
Mg 8.193846911668073 9.941102113237138 3.6073779715773076
Mg 5.353643882580864 11.37461059939586 8.678813664241591
Mg 5.306629204257309 10.630610186135458 3.681988568486332
Mg 7.343244799548913 2.58076195424788 7.255551475246652
Mg 8.035019810115083 5.779512101298218 6.732363199019065
Mg 10.262268497055857 3.3020267444091633 6.527566832713198
Mg 5.062973659011817 5.470683493684374 7.315207839113961
Mg 9.285447746456521 8.780800355817695 6.1861556345729
Mg 6.173863818238736 3.7490251185393384 9.790437553060473
Mg 6.978759722088443 11.118027717509946 6.173111702186252
Mg 8.600509282062191 6.856669511933739 3.8791166249560507
Mg 5.160335338678757 2.8912966135688323 5.1701268035345995
Mg 2.6190936898542057 7.439199975652124 6.870176129746504
Mg 4.752919933991896 8.305633027127044 8.765244082579818
Mg 7.038070313161617 6.60197399135967 9.557437954890622
Mg 3.9270946041081936 10.205604168692698 6.32667055135619
Mg 5.808243457181404 5.678945849974787 4.173447027367867
Mg 7.645503666983529 9.350544879470466 8.653480535554337
Mg 2.093106135646043 4.585619734794331 7.895182399983017
