36
Energy = -33.44306341 eV
Mg 7.55834830909898 5.372749257481662 2.5333334495935644
Mg 4.3486689345323 9.685918706651995 2.391389455807553
Mg 11.137318744872161 7.939173244165028 6.409446475338172
Mg 7.27113078799686 8.438458780241895 2.536469974872256
Mg 2.656719352677351 8.14331600899378 4.15576422819291
Mg 10.707834538626734 4.772538636608217 6.2623747253968505
Mg 9.343821402484911 6.812782323850382 4.365127464410196
Mg 12.286109667735513 6.351111600300355 8.576739321515522
Mg 5.438800154912493 3.646032386950428 3.6129048968359205
Mg 6.530101978965831 11.217749293455723 3.6642907171418666
Mg 8.493297801576967 3.3248731128765843 4.593279168077359
Mg 5.778450970625699 8.206503591577562 5.2966653326127275
Mg 10.269637676136663 8.511594103438716 9.401622578218165
Mg 8.273255165408896 8.42736698213776 7.029361980532837
Mg 11.100508846245178 3.719201194752788 9.268920109452361
Mg 4.824570026159054 6.549112113851776 2.818701180175662
Mg 9.018581794427952 9.84434429635819 4.617565211305344
Mg 10.751330253932242 5.977134120219759 11.145227806933876
Mg 7.082558535663674 5.616829489708609 6.023768250198261
Mg 5.718995414781498 2.811943142967105 6.428346490020138
Mg 8.897469556952974 5.909677974428253 8.395249460152417
Mg 7.766679633379528 7.143895183681079 10.886762438822151
Mg 6.764338103629607 11.011043254550035 6.661700384937262
Mg 6.187703017466072 4.333375580385977 8.914936629735312
Mg 8.537243402279037 2.94351272301789 7.606983399809714
Mg 4.01139878300774 5.463556336329483 5.647669229722698
Mg 7.485160434196858 9.955507059206143 9.4995153365416
Mg 5.815603861577502 7.327964533704024 8.356073720853587
Mg 8.520572083049908 4.050765572047585 10.84192385828919
Mg 3.9438764723049724 10.599161014451829 5.461135802334895
Mg 3.288926855098782 5.255798545583173 8.585309565384359
Mg 4.901341631557083 5.918354423410425 11.13272542232436
Mg 5.282586210935175 8.895966166941134 11.26367725306002
Mg 4.4961603174013005 10.189815405946458 8.607114644915274
Mg 3.052228068468166 7.985943875160203 7.106532065476635
Mg 2.8118224310749906 7.866981677270978 10.099416196449562
