38
Energy = -35.27369765 eV
Mg 7.988560109150612 1.7589563520826548 6.594448425852497
Mg 8.297520817226413 3.397638116822719 9.183886070200005
Mg 10.258867293122798 3.920550850351621 6.9164793572697185
Mg 5.286555237656134 1.582881165222212 5.2390785537025275
Mg 9.80950079531231 6.099590676869651 8.97262895863135
Mg 11.910007881354375 4.665594494136078 4.423841923277738
Mg 9.049316154767775 3.6516412873161883 4.189380591275844
Mg 8.219595186136933 5.344622981098115 11.527304993055647
Mg 11.54331385956016 6.8496896024203116 6.393292096133771
Mg 6.604430285833419 4.337436860170699 5.896188898205408
Mg 9.927228414138346 6.640801122742389 3.395424381508366
Mg 10.318562162415255 8.980066723853005 8.32338091079957
Mg 5.470835377400543 2.8241353480257723 8.22457103675524
Mg 8.212873247511519 8.118915000146288 10.553596016508331
Mg 4.481262592058814 3.962116567321696 3.648830593006785
Mg 7.049013896552973 5.5997492119244265 3.1083655617524415
Mg 5.867248025173926 3.722193378936907 11.187356545315852
Mg 9.689278792580687 9.21984312048173 5.278257618678566
Mg 8.56639350179652 6.479639095620066 6.102733058686746
Mg 3.7049998136422513 5.0404833626560155 6.611590779051746
Mg 6.674643617305093 5.911550806574938 8.521322924359001
Mg 7.315656813134112 8.524450074402019 3.4858672658852794
Mg 7.320735089883426 8.866617720570867 7.585111323726406
Mg 3.642609561702571 4.865539895200892 9.667521987935784
Mg 4.383822116679241 6.969276754256809 2.9434351237440404
Mg 8.485435725631586 11.011645083450812 9.995893301009025
Mg 5.660891305536914 7.230958236403142 5.701214988137399
Mg 1.9810639151851024 5.5319137210772755 4.07487070111236
Mg 5.4797457300680845 6.840598434742049 11.219341560123558
Mg 9.311787765421192 11.64880725245969 7.098489212475043
Mg 8.590752992290492 13.89249448557843 9.112897804709707
Mg 5.6174849158838285 9.747732467123209 10.01081081993901
Mg 4.102441698189968 7.593444924364532 8.451649338591226
Mg 6.943628228979514 10.95495876684216 5.245195550888886
Mg 6.404534694472201 12.136554380434857 8.028915328817632
Mg 4.4989225563711175 9.802709440814134 3.9296043957169413
Mg 4.4460118420072305 10.134010226424417 6.9139501343221035
Mg 2.715346497503671 7.9439218935396525 5.619407881574368
