39
Energy = -36.79221723 eV
Mg 4.853564009229027 4.192898934455923 1.7050925233985827
Mg 6.305462791586973 6.670014555531093 2.176373781832428
Mg 7.222425330152339 9.496243668531164 2.4429959059364292
Mg 4.405777109816093 8.762957498566715 3.557445010346032
Mg 8.048531974757525 4.177592643373679 2.08886275347388
Mg 6.201581940177141 1.7186042680805569 2.347583156214772
Mg 4.131749042416618 5.869248685672129 4.305774499363853
Mg 9.188294374891498 7.047622321575426 2.9583259021326036
Mg 3.8049333217460877 2.7117185740325276 4.1603267290784975
Mg 6.189324101914518 10.654623139474504 5.019536464281883
Mg 7.003496248173319 7.28102841610611 5.179572726056207
Mg 8.655403843617632 1.7540041978484862 4.049870186912393
Mg 9.050575052166376 9.699465056368389 4.793778297818574
Mg 6.5417769610995515 4.125569446851355 4.884705383920261
Mg 9.694984064308777 4.480687185647492 4.651862101681062
Mg 6.008224416524525 0.7389036779329965 5.137012545066401
Mg 1.9545281532403105 7.483342529407007 5.645015911463633
Mg 4.541717895108443 8.558768870244501 6.642363757807159
Mg 7.883497410623882 11.265746749773006 7.446609363151584
Mg 7.755671904708584 2.217071422255265 7.095422893327303
Mg 10.167677804884777 7.122524783712339 5.904089622673297
Mg 4.837475704591954 11.46350324678704 7.627386440179359
Mg 4.564413854509133 2.5131424617548395 7.103799619647986
Mg 5.219038904290141 5.680267773642564 7.284514978862406
Mg 2.3550005363450186 4.551258965998375 6.440026776303381
Mg 10.428370921911483 9.648555769773125 7.449249407972865
Mg 8.291578113139341 5.21547845202597 7.392936087913414
Mg 4.311681395394545 9.127301971873704 9.557498333707409
Mg 7.2485321679136145 8.150072260543643 8.126139656011727
Mg 6.187345305031291 3.5567887106687897 9.337681895839872
Mg 6.362338582597472 11.287213208514029 10.129049648581468
Mg 2.3972055688039107 6.850160737223383 8.543396759177464
Mg 3.125371518949817 4.016605141614418 9.314184285376037
Mg 10.266071277000732 7.1350871137820295 9.003817800760348
Mg 4.871530381270136 6.262129577835894 10.31679499863584
Mg 9.115177215834157 10.005781321753652 10.067014544652649
Mg 7.862100502705225 5.808494083579967 10.405651465091442
Mg 6.764975769150938 8.506968164197149 11.317043285135084
Mg 9.682594529412297 7.692554412986801 11.891194500210121
