30
Energy = -25.9724621 eV
Mg 8.401386815762667 6.92701328643818 2.866044754377601
Mg 4.739334227096073 8.568995739156982 4.109618353343556
Mg 3.067413577965094 6.231888329237806 3.275881070437379
Mg 1.5477104502200576 8.757341380603535 4.192295939654661
Mg 8.81907761302811 4.106179442348205 4.086835707959255
Mg 6.064065437979189 5.515578585850804 4.0137697929349665
Mg 3.0307979849169553 11.039739731426964 5.221358151118309
Mg 10.392009272827588 6.622948211205031 5.15112066691336
Mg 6.0230259957430565 11.062167650210922 5.081100859364766
Mg 7.646435689922416 8.291263365170053 5.445931737164913
Mg 6.35208326518521 2.5801229478767946 4.767811343315387
Mg 11.15405193482835 3.717976189246178 5.866193123091267
Mg 1.5281930793655527 6.119255577550447 5.807172196538395
Mg 5.218367252207192 6.802957554096799 6.6373734870936
Mg 3.6623871444101557 4.144948173413346 5.381099492004844
Mg 11.63917887857613 5.931184392995669 7.8635617462352325
Mg 8.070588389226707 5.450518411122819 6.910051177737038
Mg 2.6211606824777722 8.57123237597454 7.05289758020972
Mg 3.0970455965549384 5.3753302145191375 8.29489650536808
Mg 7.912690619886332 10.620102231893913 7.351454379318063
Mg 5.640915584209288 3.529226970288351 7.49815478447185
Mg 8.55440736785394 2.2776144402699465 6.70816624452708
Mg 9.905485539742342 8.278006408449842 7.631385839484872
Mg 10.699509229941981 3.2723745295241433 8.721952480974144
Mg 4.941374070004496 10.319554778500573 7.812106824406639
Mg 5.901099273462431 5.547072417911861 9.777762450927037
Mg 4.1503601057419335 7.984625563920435 9.565629015349485
Mg 7.115722148788609 8.108657178768356 8.751778156476261
Mg 9.247814048569742 5.998422507857524 9.71157423809275
Mg 7.875621517374875 3.267014208039857 9.464334694978831
