37
Energy = -34.38291752 eV
Mg 7.200303647002912 2.238823248612792 8.562319703351394
Mg 9.73153502404742 3.918076410480576 8.363565158739686
Mg 6.920406230889081 5.114380339931585 9.422883626378367
Mg 8.619326749788172 2.4034201376548525 5.863784686498944
Mg 4.343569720904129 3.7623666228009864 8.649049925487104
Mg 5.08763868744742 1.4464703880256597 6.575326542524923
Mg 9.451501616447427 6.4533511711691585 10.208777493227476
Mg 11.51279051617657 6.371376299134164 8.001657010457258
Mg 6.432031289045502 4.358581923965978 6.475788690682381
Mg 8.079606363135223 4.781959594283383 4.034472859466114
Mg 8.406745966304173 6.478959692892089 7.0661404475005165
Mg 4.2770287624479115 6.556928743450491 10.085638196293239
Mg 5.8287843836802375 2.609762496899122 4.030839056455999
Mg 3.2274834607886467 3.892388714242822 5.863731198430731
Mg 6.771709097136956 7.100740768378798 11.866045533913526
Mg 9.90056047471193 8.964133018582704 8.51764068416925
Mg 8.875669323303589 9.185916648346888 11.446340377087264
Mg 10.68852953652603 4.822749328841036 5.532725600984846
Mg 5.084070110510171 6.7796783823311575 7.081465622096205
Mg 4.894491325118514 5.547172984663112 4.057828115818498
Mg 2.111285753180104 5.7915003757946275 8.003559554624267
Mg 6.7219765944939205 6.300048218221292 1.759137884227641
Mg 4.995155587218169 9.494535979339716 10.901316592452302
Mg 6.878260875426671 8.154955992477598 8.972191830117252
Mg 10.501948178994459 8.001977456761066 5.610593561494834
Mg 9.495963489965803 7.141411835769536 2.8522329418608225
Mg 7.735423228497739 11.086146575038471 9.53081322450521
Mg 6.976846448379388 7.612332275270664 4.691724794141589
Mg 2.5129814783305533 7.003008105135818 5.25596708741923
Mg 2.9799189778477397 8.685029309867142 8.38690021491433
Mg 4.490067368393793 8.311516271988411 2.8682684355025763
Mg 7.627782436403651 9.805147754173555 6.573122090664767
Mg 4.363404487114582 9.357966787042871 5.730671303206578
Mg 5.0914582204792245 10.797234361895432 8.206657921541062
Mg 7.284269930816791 9.101480734762454 1.553068629761957
Mg 9.12290475744915 9.934988022498464 3.8353951676744904
Mg 6.231804199696872 10.651562114369426 3.881430415615743
