36
Energy = -33.62593297 eV
Mg 3.2226197979438895 6.060472227401576 9.279527189425457
Mg 2.5939276400577347 5.039755694341905 6.246649034219822
Mg 5.120237758728029 4.084038765586634 10.619635177981092
Mg 3.768451835923097 3.1904860140731444 8.17504464224774
Mg 4.392561415755134 8.938351246513845 9.190246640190916
Mg 5.764456825753524 7.035644966907542 11.065149739661765
Mg 3.857846014938025 7.661545588534407 6.466889738042778
Mg 6.77028661302039 10.179644422237764 10.641505125272793
Mg 5.859679636660755 5.897877209055876 7.87878339527466
Mg 6.812864582674262 3.046394117146679 8.003685623452805
Mg 7.961128513221346 5.0876077747106745 9.962177465290717
Mg 5.261596727776921 4.038187209895008 5.434750470661028
Mg 6.28527456766424 9.415355083873953 6.842646355007944
Mg 4.871861821989937 9.367951236543817 4.080194376525178
Mg 9.943239691606607 3.428804790103345 7.894388106475032
Mg 8.175606615289055 3.923097660404413 5.35628314204304
Mg 4.285449708114438 6.358009884655355 3.6533775479912567
Mg 3.4623324477504345 10.705643399716326 6.5761317809066835
Mg 9.078211538523098 6.155630806361771 7.080403145156652
Mg 10.90485935750886 5.279850670179852 10.239673099373336
Mg 6.976429548782233 4.975126808221095 2.8272227201622533
Mg 5.92204169476034 12.0549305439364 5.444576315985153
Mg 9.159853168714132 7.649484149070054 11.310194084776652
Mg 5.252853615791035 11.890082914878297 8.662143100295797
Mg 11.03903763199469 4.6323876971518345 5.004960115741406
Mg 6.72926217755105 7.819952598814161 2.1344300102666898
Mg 12.365960489334398 5.201302677924501 7.622087905778523
Mg 6.797327664712118 6.978915514605189 5.315430717442532
Mg 7.6977406137495095 7.992650268428678 8.816523474816428
Mg 9.323990123088226 6.973305266144756 3.7735311245506304
Mg 7.862929361055378 9.862530580866492 4.091948234657329
Mg 11.072054399958105 7.8241213614969745 8.698722636792624
Mg 11.698480252249176 7.449102070171464 5.648098216573903
Mg 8.05447262354088 11.715860653630994 7.664400381814694
Mg 9.388734355942704 9.179449568813975 6.527906470076158
Mg 9.65356849212788 10.250437318445876 9.65679743092788
