36
Energy = -33.25897763 eV
Mg 11.54974528676153 6.370206433887804 5.983616151836182
Mg 10.220145970113363 8.848093868253812 6.797357073622696
Mg 10.132871663037616 4.819474968580833 3.9248566322220477
Mg 10.159745199807162 3.768721562200326 6.775313112977972
Mg 9.723195985056023 7.82923400714792 3.682674209061491
Mg 9.963616908951218 6.181195878908681 8.648945429102747
Mg 7.881597906509051 8.34818931016019 8.94553285615965
Mg 9.235483446988898 3.3031490115578266 9.741438419242934
Mg 8.524711047194138 11.063125115606075 7.740853917020824
Mg 8.456754755356934 10.36719845944768 4.736318037977659
Mg 8.249261423895026 6.703825006897725 5.949677460212828
Mg 8.05715683339956 1.5540775487121026 7.638548227873916
Mg 6.551144001902456 8.193408072180137 3.436536522221943
Mg 6.2718146566417925 8.990932976510994 6.406262192084975
Mg 7.483186253646836 5.767959054527074 10.518281156274108
Mg 7.81473576082196 3.214417998742892 4.86010591308154
Mg 7.399992628893091 5.451551145195655 2.791111178918573
Mg 6.082485508659534 2.8472346966725817 9.66492556411914
Mg 7.27300127204645 4.558667915418669 7.612994232939254
Mg 6.519861650926584 12.55225823637209 6.2401485563797126
Mg 5.202941673916684 3.3673400753435416 3.243902894490835
Mg 5.5457849442717135 10.995446237508967 3.9411530134332238
Mg 5.466240720924992 5.771551213994402 5.405999004496496
Mg 5.332934056951647 2.4896311973768515 6.349376753657003
Mg 4.608105061326027 5.070060283103333 11.04045107677833
Mg 5.3692556814697845 6.712394311861081 8.172737270457588
Mg 3.748938301848414 8.51307831121905 4.760808679753428
Mg 5.197834343587672 8.190108487838799 10.72047342248228
Mg 2.5877039939408952 6.6330338026686695 9.636027009136432
Mg 5.689091843244757 10.701402547748016 8.894737172649833
Mg 2.893260965529349 3.9647872145745637 5.034508856918116
Mg 3.8624981778552185 11.405204064034542 6.366624613457824
Mg 4.089567735444801 6.173158018229164 2.801032177929961
Mg 3.659328294599377 4.128505313344187 8.18000937453186
Mg 3.3831942251319256 9.020019956601766 7.9754052977922125
Mg 2.478894769494864 6.468828360866132 6.562474293132559
