32
Energy = -28.74761211 eV
Mg 9.150630262056945 6.090875642836497 2.7107877608597932
Mg 5.522412844673315 9.913097790363354 7.9175049507287305
Mg 8.326412764148486 1.6837684278594875 4.936942338192577
Mg 5.134454062886613 4.986808969419474 8.427666705526988
Mg 8.006413936126329 9.804636218269183 6.211442079853403
Mg 7.445796736887444 7.130538787742017 7.66867253795368
Mg 10.353180128131024 4.187026973682315 4.825157834484978
Mg 5.625504051967514 2.846055361375323 3.918566863655416
Mg 7.409616226571116 4.9802546753260435 5.525039067895605
Mg 7.96211106508007 4.459767104653588 9.250460504332688
Mg 8.014576425357072 9.535970706072229 9.689856512365736
Mg 5.01355589989546 6.907734648555237 5.806021536993907
Mg 5.352657236362858 9.73633209457408 11.15852100363503
Mg 3.918466984771973 7.606670771687492 9.117668056047727
Mg 9.715679335007295 7.322807678840565 5.3502493415760295
Mg 3.2944371746449743 5.195387897790202 3.67923648387425
Mg 2.1236543284154052 7.990068632414132 4.4308399935217135
Mg 4.945483316868174 9.863218840630763 4.910279610540194
Mg 9.493502961046186 6.932720030175289 10.269491383118979
Mg 3.888715502022421 3.6718881669305534 6.153032088523834
Mg 7.194909882593246 8.051348092685027 3.8937891376687612
Mg 6.493179204117052 6.932834754506917 10.592831479575668
Mg 2.3647647916456216 6.188792737571272 6.852380675376544
Mg 10.286008219195418 8.642102365450576 7.9848236104350105
Mg 4.431659959105943 7.8616496441458485 2.6771236238509286
Mg 8.3246463686544 3.2739476393419227 2.5374106226772724
Mg 6.481359473779035 2.543988111111878 7.224046074917982
Mg 10.451018839028036 5.53301352195174 7.677720449733912
Mg 9.534501351646318 2.7249969090297936 7.391809611542407
Mg 6.161601268584294 5.441215786213191 2.5079852071942947
Mg 2.9516843511829096 10.669232507471863 9.741398577774826
Mg 2.650902142537242 9.314745606312648 6.984741370561927
