39
Energy = -36.83925316 eV
Mg 8.909958730230233 12.132283527129296 9.504244500142491
Mg 4.367399411424479 10.78888764147382 11.468416879989583
Mg 5.894370006741255 11.755530656592907 8.994685582255038
Mg 11.207523875411177 11.19862399406511 7.644435305874177
Mg 7.380994545079353 10.327596074017219 11.504726872490053
Mg 7.982310503890081 11.207220937793686 6.768783387178887
Mg 12.28653250997915 9.090429241866556 5.53997891827297
Mg 5.104490733056568 10.463656540961232 6.3063463184965896
Mg 3.8100434622206345 9.317184941544737 8.892069715653012
Mg 10.113967741250448 9.53164211058782 10.184360523419443
Mg 10.170178619008626 10.94193712379172 4.747329053738029
Mg 5.24182766495951 7.94932332622371 11.399036369401127
Mg 6.9294457807829675 8.89169202680607 8.836955159820207
Mg 7.40399876223613 10.162582914951775 3.919276281031146
Mg 12.491970221253482 8.456595005878256 8.342474236837337
Mg 8.200797272170904 7.287707073188767 11.255435138090158
Mg 4.666927184863005 8.999960571991311 3.643684635671082
Mg 6.825191652674822 7.981617774076377 5.965984740923741
Mg 3.633932912690223 7.774176503951667 6.221853934784208
Mg 10.590732598668223 6.6277002706378 9.680909454352875
Mg 9.498055848909223 8.611521942825718 7.242094964988838
Mg 4.003414411258599 6.084719976110522 3.6043963404681527
Mg 7.954662017751311 6.102268385402961 8.182189478425988
Mg 4.868111343707322 6.379123006597358 8.787037846685777
Mg 5.622389402049436 5.256784878844584 6.138381187488846
Mg 8.957471530682858 4.136377361085054 10.434667905177776
Mg 9.674424302141476 7.993235938687282 4.2180464520148915
Mg 6.211269366671048 5.0549894099116965 11.225853253878883
Mg 10.983414350542255 6.093844826963847 6.634340678228042
Mg 2.4519448336795877 4.9285226734035 6.030751468940426
Mg 6.9146200173903685 7.144666390785331 3.0163232081045663
Mg 8.480585716013762 5.354966365941607 5.097210099356683
Mg 6.453740879316903 3.395489232611964 8.723690470912347
Mg 3.9040027408536284 2.6516058561616425 7.2887305528655295
Mg 11.63902154398387 4.010625478092167 8.897077426280962
Mg 6.33093203496804 4.132284300837047 3.188662076104282
Mg 3.9085715014020304 2.8941915535857037 4.336428261875639
Mg 9.183707002925487 3.403189594524509 7.340559223019564
Mg 6.68188869381016 2.4209561891080345 5.76877927335093
