38
Energy = -35.61972484 eV
Mg 12.28972177037805 6.615975446351739 4.477727126292352
Mg 11.53869215357376 9.43700257715665 4.156101447344028
Mg 12.584513272669222 8.596149320592998 6.86031146341725
Mg 11.734296139774502 5.598586769176517 7.234605697981723
Mg 9.52302276631021 7.268394070015181 3.3106006484101864
Mg 10.12169122524834 4.547506964785609 4.7240081563038085
Mg 10.407358177857647 10.783109495145549 6.557761839720049
Mg 9.574331531574359 7.731113386547104 6.417544449059866
Mg 8.522522488445325 10.041253804340686 4.163464944740928
Mg 7.543417972855547 5.018306219979944 3.1593157018049065
Mg 9.988710086328952 3.039880657139828 7.3216303832149965
Mg 9.832685083393391 5.060805218359092 9.642712050729337
Mg 7.585462750180855 5.473201835474187 6.227267694793292
Mg 6.542501508249853 7.967527213332878 2.99401070402369
Mg 11.143717937493983 7.74939024093731 9.353328349380813
Mg 7.5843737539801905 2.631060888083356 5.586566690817267
Mg 7.340671312591507 11.230279239826348 6.755050708449343
Mg 7.418436196112152 3.3959617676209435 8.76284862371748
Mg 5.67901754883426 10.782927517418548 4.085324260660896
Mg 7.399693848983693 6.784579842607087 8.777380715027432
Mg 8.88266969832936 9.662966920739581 8.932826394729844
Mg 8.779356253372852 7.600997642537506 11.30933027433573
Mg 3.7927850279861217 8.448420607058743 4.4626650524471705
Mg 6.602952696094855 8.326006372330337 6.064723568610284
Mg 7.471638916667657 4.954340474870732 11.549373639756455
Mg 5.00356591229588 5.752283282078434 4.5723771285333
Mg 4.311511983854151 10.357649776567376 6.759803725683326
Mg 4.98891825010868 3.84515684671476 6.9254188327096236
Mg 5.98471707481487 9.572975083543922 9.083723233424083
Mg 4.991182164792577 4.57649789980705 9.949889355119073
Mg 4.5072899524776 6.930539435033267 7.740667598104249
Mg 5.544084655413617 7.377312497905929 11.139033621847899
Mg 1.688104577207275 8.923097350617876 6.589177984737824
Mg 2.2451163425375427 5.952899516218991 5.919855200572057
Mg 2.986206896348998 8.971556392993794 9.453742172950525
Mg 2.697093692067797 6.28926972883363 10.8337219746518
Mg 2.3511792081166742 4.338137668842576 8.517158058302963
Mg 0.9259791597383218 6.923937269061997 8.500172532916485
