35
Energy = -32.36884339 eV
Mg 3.445968469215348 6.816065475008302 1.7522181949613989
Mg 8.74667503860499 6.547760129527125 2.8114140375851204
Mg 5.928553889217364 5.303642675056838 2.541493292224958
Mg 8.17342345052293 3.421694598498631 2.7942781919526976
Mg 6.230082174200479 8.334627846493088 2.1326932800182554
Mg 3.255529476936046 4.86545815888851 4.255320716910503
Mg 1.6209663615802756 7.525926319688337 3.9115464824693498
Mg 10.521079316948507 4.483310567740915 4.326914708208328
Mg 3.2733933865007105 9.622955173657903 2.61668385040545
Mg 7.869855941022057 8.721770367309698 4.777983880506063
Mg 10.22940468852434 7.125067683105027 5.620106947114772
Mg 5.489940569143902 10.553301421791474 4.231950925299407
Mg 5.7227831522367465 3.117260690779771 4.755435779714237
Mg 4.93270327752833 7.3649720984302895 4.799805660690323
Mg 7.451936818663717 5.639878822808877 5.460124132702696
Mg 8.728981894492394 2.4759796409003276 5.554035358773435
Mg 2.2910826010028056 6.700919189634765 6.705882729756931
Mg 10.232510840076849 4.4565064865834145 7.421774489706415
Mg 9.009974034010042 9.296602914008876 7.5655085434386375
Mg 3.016432882608935 9.597413929626244 5.858971107473058
Mg 6.810438167800253 3.4728747604665453 7.561218596741213
Mg 5.382986588147711 6.448359501632438 7.685822624916543
Mg 5.99341407290525 9.397681291783709 6.986294702675164
Mg 3.816804903327006 3.9101070273312803 7.098457346432427
Mg 8.228663201968727 6.456901642699068 8.318121464638665
Mg 2.7040705433307988 5.692229710651719 9.449734522546487
Mg 11.424968044246146 7.291589756089483 8.342099936453776
Mg 3.6009377552635584 8.693112023054018 8.774081624670336
Mg 6.728644945670513 8.839380458716382 9.820381930476351
Mg 8.5327204310425 3.6610758356821207 10.000493967485507
Mg 9.677519547983355 8.446691426196356 10.532609712082616
Mg 5.446646010226405 4.355174371897721 10.036688240207344
Mg 4.7440701165666175 7.036549958991135 11.093308340411925
Mg 7.680511188861047 6.273571639402367 11.360762166989968
Mg 10.604008786471791 5.601268972716501 10.593465080208894
