35
Energy = -33.63742694 eV
Mg 10.344854978799782 9.21655661563228 5.121763900595734
Mg 10.21208268874215 6.362021641798088 4.115753444028369
Mg 9.776172911977914 3.546465124988082 3.4046702859475153
Mg 12.19207151717093 9.6978755476389 7.53296284483895
Mg 11.280890711748652 6.879164492476885 6.997930235525051
Mg 10.321849870439674 3.9672938855949957 6.381333789229294
Mg 7.664100499862271 10.812206161184722 5.479039247110744
Mg 7.663966053880772 8.168914772231387 4.028362659029186
Mg 7.6851647750028205 3.5144967184971794 8.045554980441462
Mg 7.173068077827762 5.240507559984997 3.5240030502175426
Mg 10.254780684003912 11.828953343637895 6.7169872815816065
Mg 8.785845262093797 8.854564088571689 7.74958135164468
Mg 8.23816299753559 6.196404925062768 6.414109146155994
Mg 5.196720820701011 9.984540119732696 3.9180494328374507
Mg 4.650435866535762 6.980574060969146 4.135241481188362
Mg 7.662450151471914 2.7934816434867087 5.223687228111094
Mg 10.65477384177511 11.135493594299469 9.570420580781256
Mg 7.715823913633161 11.68394666014478 8.390361614366672
Mg 9.793492180412288 5.388780848856499 9.174560300312528
Mg 10.917209925213719 8.089234872262717 9.892531276118635
Mg 8.411783814302266 9.579858569412677 10.748021722226053
Mg 4.987605598380236 4.481331340458128 9.175485940160398
Mg 2.8015609322210433 9.146826153751451 5.286751981970675
Mg 2.948794857279881 9.354527568065958 8.20220659020477
Mg 5.561215211182264 4.837830808311126 6.172009333084366
Mg 5.9497543407428255 8.241930757330694 6.639471041317346
Mg 4.895101983380871 11.184546448183637 6.717496315130014
Mg 6.991789151395931 6.774266279879233 9.145595288979585
Mg 5.7345665158494175 9.665564264161052 9.324897661409201
Mg 3.4147292172265886 6.596048598453536 7.138263045160216
Mg 7.686197447563826 3.8903891469618674 10.950102139934062
Mg 8.67165770948915 6.657121672646301 11.787598710146659
Mg 6.1038215362946575 8.20440361798992 12.003949298404933
Mg 5.5246372486634865 5.365219044802656 12.145605273199589
Mg 3.9685738057776536 7.1875926319488475 10.110029261465371
