39
Energy = -37.20089937 eV
Mg 2.7801954416290253 6.371055378486562 1.0286129736294334
Mg 5.804403727832795 6.272188926827165 1.4378417477471175
Mg 3.976414882527704 3.8282442435444173 1.885881711332843
Mg 3.783423738999935 8.508597327255847 2.689866597255884
Mg 6.91877698049245 8.831116965202659 2.9628286100182013
Mg 8.590628977538474 6.2241809423649 3.016420760938372
Mg 2.3027496062572808 5.358506822633868 3.865137253942555
Mg 6.680495845237788 3.8954528830207074 3.2356307573148224
Mg 9.890403804227 8.945911418041945 3.2920639909542055
Mg 5.2059855634427725 6.4072886971230005 4.5046647063464995
Mg 4.09304724291543 3.0616037008691563 4.808560166593562
Mg 5.10932387320391 9.586391816635913 5.221099736474668
Mg 7.962718476288607 10.530089282488843 5.32064938426432
Mg 2.617115388692308 7.68887066616655 5.6297165640953235
Mg 8.965380191182186 4.035194092328182 5.196426241381282
Mg 6.728365468675633 1.6271496059326516 5.23342017615146
Mg 7.811361966075672 7.4372130252630235 5.766108721941332
Mg 10.700414761585943 6.502112710979424 5.344551220964655
Mg 10.738780954971162 9.447762701366315 6.004169785504424
Mg 4.894330055237209 2.017040801601624 7.492795373889823
Mg 10.82605387937454 7.3815027202197605 8.309215798874575
Mg 3.4945358601541168 5.0032422301946955 7.246602648588592
Mg 5.274557516702348 7.522972298723755 7.4879881141510305
Mg 2.848359017707545 10.147826786473079 7.316340890262263
Mg 8.518665422347121 9.393379471514336 8.082309984355431
Mg 7.93796825394194 2.2932799574430662 7.8909506703682935
Mg 5.798053392438193 10.611522678512957 7.95021261553181
Mg 6.412418149010819 4.685180199237876 6.550041525547194
Mg 7.884597889664263 6.28738852918637 8.610207929057507
Mg 10.193989357563469 4.457662951238297 7.908331845231905
Mg 6.538044914506435 8.60336394893511 10.229126839002483
Mg 5.913722690673212 3.9931262012750475 9.513295076710127
Mg 9.493241683193801 8.356542444991375 10.876154628666765
Mg 2.087318879209622 7.453504028301034 8.54394157172961
Mg 3.67815606573165 9.43427885421376 10.033315333807087
Mg 4.405949545889299 6.4080888901118565 10.189947809006224
Mg 8.742591527076488 3.384289656797262 10.544707133407048
Mg 7.467099822537822 5.966932389568585 11.59216210851416
Mg 10.54562469594084 5.655209265607352 10.803966507123754
