39
Energy = -35.8785928 eV
Mg 6.132725312215612 6.354713532686363 2.0406657393512435
Mg 3.9751249218632814 10.318498363402604 4.980710517650372
Mg 8.518383304473323 5.528456356953275 0.5237106885714105
Mg 4.107078987905622 7.365007361733667 4.108333485177673
Mg 4.0565420003533985 10.032329154780573 8.005318462145047
Mg 8.375815250664635 8.411006234659816 1.3206465839188049
Mg 0.263082696659371 6.228915356879956 7.307165364173305
Mg 2.532949238805883 5.250727577232275 5.671061604238286
Mg 5.306281024471464 4.531539168837798 4.444404183225128
Mg 6.169968291925874 9.323543860764167 3.103733784164722
Mg 7.993323253397409 4.093269254469883 3.105983238230335
Mg 6.6306633007158755 9.619715098726635 6.198267131025859
Mg 2.119800442142764 8.325668689735911 6.271841262066176
Mg 7.348903891423218 6.8334683510281575 4.938309171585848
Mg 9.831681311573265 6.593362564354507 3.1989956714938335
Mg 4.946469669068439 6.93884552826091 7.050242647595133
Mg 2.68149465751214 7.361414935465093 9.077350084288453
Mg 2.1807506886265875 4.4053683785111994 8.629726891868636
Mg 9.019388236447677 9.55528151655213 4.081804170733345
Mg 9.411778157027419 10.631636974339836 7.019922990845824
Mg 9.692996570194437 4.647594924697834 5.561435110952227
Mg 7.3250149327866545 2.6400914214145113 5.798304845873762
Mg 7.402048169717932 5.201025758894202 7.694644555314101
Mg 4.918871508621967 5.167684696845735 9.69757656132015
Mg 6.888109769954908 10.9484464408369 8.987628439427578
Mg 5.497912933368297 8.262000668931279 9.911791985234638
Mg 10.14011101071109 7.669110335990831 6.124584474002645
Mg 4.668950769661638 3.5013920340499403 7.1775865731425315
Mg 9.550594419080289 2.6229454593800696 7.792142285985202
Mg 8.143214625088547 8.056720218140805 8.394574148446162
Mg 6.823763770409056 2.415877514798208 9.012552489403069
Mg 9.74074544797212 11.39761328468737 9.889337140616858
Mg 7.488622041832535 6.2080189725883095 10.81050996953998
Mg 10.37635617570703 5.714332846715708 8.418001109756998
Mg 8.28671462998672 9.165290249614218 11.26381204321454
Mg 9.170255887377854 3.862991470127455 10.45491495988622
Mg 11.046263072775124 8.763732112756484 8.997380239858705
Mg 10.354572671018685 6.81234194695128 11.299652465407396
Mg 11.205339289360733 9.667272138457259 11.888345753355797
