31
Energy = -27.02343865 eV
Mg 7.824684522383522 4.665168495731351 9.577345550192506
Mg 9.923960969180506 4.42181165600278 7.350602489224197
Mg 6.248709604843804 11.36659418162207 6.990378742155527
Mg 6.701528996799336 7.8163296962694995 10.566494728861842
Mg 4.870610836166154 5.81310996872064 9.129596605108674
Mg 6.690490763971311 10.76911437002529 4.065562491295044
Mg 3.5459898895537125 4.2955444117073505 6.821035776063795
Mg 8.167154985286652 2.1860404458375595 7.700131272910681
Mg 5.748067690434847 2.2955462936336475 5.75123298649196
Mg 8.767634532273629 7.188429337697465 8.050604620595006
Mg 5.792884479926335 1.5043563680670353 2.7572338415863524
Mg 9.229157216780045 6.44798064288008 5.1903938735049335
Mg 3.473457858796797 3.217686275147447 3.956327143027025
Mg 5.5249391348782675 2.857381195294154 8.663251472583575
Mg 3.3552701127124442 10.535660279681027 7.982307348120455
Mg 8.551618274042244 3.397946609368017 4.807950778636518
Mg 6.0376148723448475 4.657042260716125 3.3316903838721807
Mg 9.669459748255617 7.906523297974646 10.82523099009029
Mg 6.3172273196377065 7.55651493145119 4.513000249157523
Mg 4.161081000041497 9.613180670013266 5.299300218857959
Mg 3.054157275624645 7.411213123309566 7.255171386276445
Mg 3.788996104767668 8.50417687358771 10.09513588672285
Mg 8.703179198450513 5.614871959579328 2.356773469565285
Mg 8.519081227580502 9.478853206225638 6.036867926858915
Mg 3.660517004263932 6.231985122974768 4.5762814554093705
Mg 8.27115658059123 10.128795504140582 9.002983109429241
Mg 5.58389675149566 10.859040103549983 9.991454845982963
Mg 5.965005474464151 8.349586511682496 7.57404420582009
Mg 8.181959573214947 2.7069585732540666 1.7321497428702712
Mg 8.724360686519466 8.592165503700153 3.134428367192257
Mg 6.569623718675132 5.233868534113651 6.538514445493882
