33
Energy = -29.48489856 eV
Mg 6.776748543122398 10.046423006048107 5.706816008995706
Mg 11.517662077045072 10.64138200283783 10.59688163909414
Mg 13.350362322170497 8.246529373971747 10.426237256639112
Mg 10.52304745217744 8.101582646100866 8.931208961408714
Mg 8.578348863986685 5.167322605850516 11.767958743956099
Mg 7.505727980737892 7.296380586698481 7.124473857889012
Mg 10.370905467104608 11.827468972716764 8.06652928700292
Mg 8.094424316455594 7.680361631751763 4.1405632790206575
Mg 5.315754738241672 9.30124077534663 8.327046927812278
Mg 5.2358015082383185 8.896709326094223 11.430605584740315
Mg 8.939134382800283 10.376257787223402 3.1881114725817894
Mg 12.691211563257808 6.330676115880263 8.087941431164886
Mg 10.292386292331061 6.363381915797685 6.02599332457453
Mg 12.825902927100595 8.051227910312386 5.6163024348943456
Mg 9.20210935964931 9.013466905335461 14.951016130966307
Mg 7.3094656844665105 10.49073284742945 12.951529936728315
Mg 9.966613576087045 6.406453826643042 14.059676128500765
Mg 9.326028973015676 5.359586788751789 8.82151878497384
Mg 8.857047195979886 12.142638381332832 10.779436745920773
Mg 8.127071442669633 9.717969002316394 9.151745761664547
Mg 10.262292084314987 11.182155471500776 13.26408024870314
Mg 7.080991817485723 7.379620597184153 13.40865069899352
Mg 9.695831288630588 9.349754040785115 6.350624033917539
Mg 6.957079887537641 6.947407140042076 10.04468750358426
Mg 12.728359569270394 9.922893236961173 7.8553766804256036
Mg 11.918956123988655 8.577174675677785 13.135943000571721
Mg 11.700430383885712 10.870402830092328 4.8414074217820176
Mg 11.403206570281037 6.107418909059296 11.22288149359561
Mg 7.25496032917102 12.234210494764863 7.83068175351904
Mg 9.28914388834823 8.491198758443687 11.636287909269894
Mg 5.8236954282986435 11.621436583544858 10.478299344204165
Mg 9.006361852154013 12.275258343201912 5.414405499654523
Mg 10.907118842605573 8.229262746952628 3.360692532094976
