32
Energy = -28.99399274 eV
Mg 4.242246066451738 4.6470320452683 9.21252391989297
Mg 6.496881764388901 2.820096797530712 8.240892912513798
Mg 3.715450976679453 7.754252542338504 10.003786749090727
Mg 3.4978184642107935 6.694280444063886 7.152558006787617
Mg 6.0555113291790175 8.341801200077503 11.835723048902443
Mg 4.333082002400011 3.6756410163533464 6.310573487577576
Mg 3.059814928860159 9.700420515007329 7.776072074846755
Mg 6.634985400889448 4.137076003579193 11.017324681938758
Mg 6.516818721830227 6.696684356077457 9.286198585703135
Mg 4.013269031198998 8.941823395445278 4.873068845875094
Mg 6.713917916048993 5.586456788238338 6.6190100613892255
Mg 4.040926478622459 5.928580183773688 4.322747208473259
Mg 5.480588407961231 10.330914955014423 9.576362474899469
Mg 5.037571726641341 11.493867964620815 6.588229992234938
Mg 8.483555820067071 6.489111501473898 11.493074947943711
Mg 5.989876239271543 8.588708520812126 7.094868339474577
Mg 8.896906363386119 4.531473949289344 8.925873748429735
Mg 8.373483863921884 9.221557552741972 9.935400584400247
Mg 8.722308881499403 3.3323343864314126 6.059253979207394
Mg 6.616668275015678 7.36078430514722 3.9073452613388224
Mg 7.948465353474162 10.969883295789648 7.497291731413632
Mg 6.629628165365754 4.213948257697606 3.9814223981853294
Mg 8.803742104195791 7.808625099427364 6.612945180330076
Mg 6.985864481866914 10.289162964256409 4.613053693505559
Mg 9.19637310445876 8.61840305246721 3.1622855096945717
Mg 10.515333936872986 7.066620713371765 9.318232527774969
Mg 9.2629363421315 5.6851034657713395 4.1806636823952745
Mg 10.867455343542918 5.412965244789817 6.752369535302404
Mg 10.792342801247154 9.752194588139243 7.953496721790702
Mg 9.945800333498699 10.596267447475688 5.246917849723793
Mg 11.42210799760031 7.918787843973434 5.04374723797227
Mg 12.91044291961421 7.611436505760265 7.576768923242227
