34
Energy = -31.08177269 eV
Mg 7.387725825004051 10.123843899732812 8.431926896730847
Mg 6.1928601317427425 4.080535099688737 2.211636146701932
Mg 3.5669749112271556 4.785247563245873 8.54455893482942
Mg 3.0868946517805615 7.9126035405565265 8.965566121721578
Mg 6.483724810647212 10.29352419782008 5.557082455960943
Mg 5.2427937165003735 9.427267080745352 10.51117744191884
Mg 2.6655905485747704 6.529815670021714 6.200499344492075
Mg 2.9152976802539783 3.5803270368381734 5.826384864557967
Mg 2.05905926757123 9.380351710148622 6.416501381299788
Mg 8.008132491488405 8.311581261744879 10.815746356013078
Mg 5.024397092307832 5.465287408644043 4.6037098373280045
Mg 9.275032178299785 9.446940960111402 5.875831080078078
Mg 5.489924482766388 7.76590316217732 7.091004540657434
Mg 4.530146016164827 1.9110975791137756 7.696049045084218
Mg 5.756806205059114 7.00900888705567 1.9050526833576564
Mg 7.722491097574452 6.832973661695181 5.112552662035927
Mg 11.108704731936685 7.11547605093707 6.479604540686734
Mg 6.032557353072864 3.2670723444500243 9.918298931280509
Mg 6.4377317120387465 4.8646948049786305 7.24465753002648
Mg 5.422483863623752 2.343654058993788 4.790844885943751
Mg 3.697394850402885 11.417555471674746 5.034656478034961
Mg 10.56847208170622 8.026355978162245 3.531860908643441
Mg 7.988540653261309 3.874669867549901 4.5941474150998465
Mg 9.541153901995587 4.506794418309291 7.193408436576351
Mg 8.422281770749892 7.301315958776389 7.992392558009782
Mg 8.934660034668251 2.3657038967528856 9.584520702271217
Mg 4.501454064724876 8.441196736757764 4.262071720014937
Mg 5.670983123503456 6.461475036518962 9.916517181390477
Mg 10.632219763643448 5.174578849676672 4.3357520567379835
Mg 8.608700081332518 6.103491929825488 2.234314855629557
Mg 7.72184302497199 9.0439984652628 3.0364564201312767
Mg 8.423323429708098 5.195714970177847 10.125015646773617
Mg 7.49616663296332 2.0021988864575557 7.029089764570611
Mg 4.383477818733235 10.637743555397787 7.931110175410047
