35
Energy = -31.61305164 eV
Mg 12.489997528822393 10.197109132181364 5.592333241949768
Mg 12.68325702260712 10.634112892689801 11.217309476305013
Mg 8.490619145109411 11.53746451982037 13.72242101369468
Mg 8.441237010832516 12.744719814838353 8.79139023488386
Mg 5.681312197482648 11.585687373915759 7.839525025552724
Mg 6.410464853838507 12.10061051304668 10.79932238157918
Mg 10.91975442615993 9.533303406295103 13.614708280083635
Mg 8.104943958429592 8.624898673317237 14.524431861916074
Mg 9.470768555864556 6.593961312181926 7.119480848103097
Mg 11.218644630228578 12.806815739049783 9.882693894988803
Mg 7.089850761596941 7.396247563759686 11.765899884285057
Mg 9.761949481457307 6.6998620809086376 13.048969022795559
Mg 12.333176444305769 6.4979869085974595 8.518836880817485
Mg 6.713656615261301 6.772313118488996 8.671569328030666
Mg 9.449841384193306 7.010884822025463 9.993342559264766
Mg 13.426571892018247 11.103972283346184 14.507843933187
Mg 7.99281178207146 12.27070779623777 5.873099312078101
Mg 11.858546698840902 7.367406022675947 5.6153266410668685
Mg 11.126092003295746 9.269154584587985 8.526121688985757
Mg 13.570972481374632 11.140341231358644 8.318713878683962
Mg 9.51121343722313 9.421855442797211 5.501060857044973
Mg 10.758597901036428 12.091267938773544 7.028952373400157
Mg 9.234085721580017 10.18270348691161 10.94657972307856
Mg 6.215211020654755 10.166175585378966 5.0387634926306575
Mg 14.437458326068274 8.517410782855508 9.910350387716257
Mg 6.102592962970852 9.98780423026557 12.860756730992682
Mg 5.440974093322354 9.365551090295387 10.002920177505313
Mg 4.856470475965032 8.683714235857886 7.193321281712292
Mg 8.849138933245284 13.668626642426096 11.638011598906543
Mg 11.981300777788977 7.722295459949625 11.319258982032364
Mg 11.244443967184699 12.64107752505774 13.03507660888638
Mg 14.339666404720406 8.673510831290685 13.105010704337777
Mg 7.075403692080846 7.443741193870438 5.63451729334774
Mg 14.283804577464027 8.362170573638782 7.051269776218054
Mg 8.061755690816437 9.568401015238939 8.190523276142994
