32
Energy = -28.10775608 eV
Mg 12.67809630347672 5.686747131273851 5.542872991062526
Mg 10.277622435567345 7.383403453431941 4.5923141869326
Mg 7.698148953080547 8.804476866817833 4.3052920369242
Mg 5.022376184668136 10.123052112267578 4.232571407150604
Mg 7.163746458562255 11.404425861392562 5.958071804071856
Mg 9.796553877423905 9.89287642272177 6.280175720671287
Mg 12.197534029723716 8.24839121519645 6.870579023738534
Mg 10.021869797922738 4.417298017601538 5.432025040169001
Mg 5.044485990335313 7.13360425567298 4.115570132595084
Mg 7.700060361325074 5.822880837964346 4.169028864712474
Mg 5.435128157119273 11.706531109774804 8.434899297891523
Mg 7.8675052634831335 9.905189583550618 8.53327735651979
Mg 8.425941192968299 6.961487569088303 7.120105404749134
Mg 11.073027660777933 5.498521929680076 8.18376466338445
Mg 3.3883178619045924 10.870039467834468 6.538965322533723
Mg 7.474644561985663 2.872822435211023 5.139585262365904
Mg 8.629751046736038 3.715969961251 8.015920556011597
Mg 5.806893975994665 8.585569651537265 6.796167065557018
Mg 5.168487728885394 4.1304305431667325 3.685853760927198
Mg 6.003701711752457 5.051237011559807 6.648994963706771
Mg 3.0871024776908302 5.020376297184777 5.693095119411056
Mg 10.343912197690406 8.393441449027149 9.148021704182966
Mg 3.72778605103682 9.025660529320957 9.055451825670014
Mg 6.3863159856944645 1.8933003710997984 7.770173922098759
Mg 8.386347898268115 8.720214328349618 11.347444804263839
Mg 2.8960981686190386 7.942566765421494 6.2269164249487545
Mg 5.902271883587512 10.13362411140976 10.890204690324856
Mg 8.834997003130105 5.881329618250278 10.10717789538516
Mg 6.329677108985424 7.423275282937943 9.501888402902212
Mg 3.802565250677492 6.098358115168163 8.638418563192333
Mg 3.797767320261328 3.2156851399667796 7.990911825545666
Mg 6.129909654568443 4.364981320901042 9.61091561910143
