33
Energy = -28.44673225 eV
Mg 9.425259232771946 10.924894841765532 7.784894051327286
Mg 2.41380280662439 6.885281852660657 3.529348778409721
Mg 1.9358010420906306 7.1232954128245725 6.606476954064038
Mg 10.3932404095854 3.2956177274204967 8.252590145561927
Mg 3.0629589208657926 6.840379124019247 9.769465518811316
Mg 5.44810677218539 10.318306364755571 3.4064570314165192
Mg 2.836322253146305 4.514976960571841 5.344871588497849
Mg 4.070969209547372 8.811370559271749 7.809586961233335
Mg 4.364854890500365 4.724017365282092 2.775002313528242
Mg 7.370776133229379 5.422909441962831 3.227468719653073
Mg 1.8203413740731513 4.596514836073532 8.306463405376146
Mg 9.029056112662012 2.330131798164298 10.770875655990611
Mg 8.001810367236436 11.01143000096289 5.080018826355982
Mg 10.254025434284205 6.325203041939684 4.224191356794239
Mg 6.155425995357849 1.8016215794674466 10.533388463004695
Mg 4.691106893642224 5.604424326536595 7.489935160533624
Mg 5.908226575272254 3.942704664702222 5.344735292016436
Mg 7.845265957017445 6.300463163905228 6.491221458626836
Mg 9.2716746938157 5.428988854028228 9.974396818522566
Mg 10.858128989386243 6.064832532608703 7.217905625507739
Mg 9.343887593227786 8.148902801621913 8.893830635586756
Mg 10.112993532315846 8.764405259971637 5.896300736563245
Mg 7.757161839151762 8.313125684476663 3.867131674053275
Mg 2.9305889553315425 9.50867165245332 4.973399997662122
Mg 9.936386840872933 3.7492405828848656 2.7034021815930145
Mg 4.302903367037968 4.069791762617107 10.145149252178681
Mg 5.117600887898238 7.308505764068531 5.17694028652042
Mg 5.083682627679215 7.6625151469329875 2.1693358580181976
Mg 6.9687528253158275 9.0360308732097 7.1222786640846625
Mg 7.163414851404034 3.842474222428332 8.311420686733598
Mg 6.470604629193363 6.894891254096715 9.456557741382246
Mg 5.023511968477682 11.219055271948598 6.216719752291952
Mg 9.122100420246879 3.7057696758136216 5.618982809547222
