37
Energy = -34.29932069 eV
Mg 3.5880819159445174 7.568310981151217 10.356098359420072
Mg 8.123637237075382 3.700170493322887 10.885300839848272
Mg 6.6014709799406655 6.061475654054728 5.549955694430596
Mg 4.861048386328728 7.524278751332358 3.389255178284446
Mg 11.032342154230493 5.000175370992864 4.41631435998759
Mg 5.40383914933578 5.3144907981155525 11.256172314448584
Mg 9.370101006434856 10.046950969514377 4.784331465459279
Mg 6.417011237554587 9.155219153293839 5.488124846964215
Mg 2.92413668408551 9.968884648197534 8.354039063665692
Mg 6.896198335927973 5.483127043280706 8.58205837641805
Mg 8.209245734207903 8.179257965038092 7.5199777403794315
Mg 4.646997418411856 11.42891415996459 6.372173486347313
Mg 5.576436726178911 3.437091199833306 6.6113907877419145
Mg 12.457979240458865 5.324762817761071 7.119632691307297
Mg 9.090070835170948 6.603060292058708 10.473962156658525
Mg 8.016466139541798 11.430940251760166 7.19014097426238
Mg 3.574426381083921 5.799999395616424 5.668929536742419
Mg 7.223652056045739 9.368214884413408 2.5747080347145106
Mg 8.302496966629308 2.574720122844075 8.025846430844584
Mg 6.9320315798792365 11.916587240441803 4.349613485703954
Mg 5.646247760712062 2.785613271311775 9.542842876098948
Mg 9.42419833632434 5.633673454568192 6.98569739025327
Mg 8.883788657134184 7.164819866883817 4.003806700707323
Mg 10.924920667110966 2.8328034057410116 6.547347157785934
Mg 5.930029691050317 10.37665590265329 9.00365709586212
Mg 11.244467902833355 7.648455650046019 8.763562306527687
Mg 5.045891454457536 7.702297276032567 7.680973555414009
Mg 8.356795495385663 3.5598704139194943 5.023173728392276
Mg 10.830036386106679 10.331809829364248 7.441684436817547
Mg 8.96230438961436 9.750267255665342 9.883103332504772
Mg 2.9656087408821503 8.955919993519894 5.453948514046353
Mg 1.9634631904120035 7.232745907729766 7.7769700628469565
Mg 11.287279302229122 7.8576913029300455 5.709244565035726
Mg 6.543125329616036 8.066700385929572 10.749387581928419
Mg 4.486228302727035 10.544352190462089 3.3861004426943393
Mg 3.7393052252269854 4.940062389202572 8.63659450448017
Mg 10.660163781444012 4.172926168822036 9.333667560475197
