33
Energy = -29.59616539 eV
Mg 4.5185421853604435 6.857754614998005 3.7479323857119056
Mg 2.8212229876594512 6.064749914010049 6.127711315990589
Mg 5.776942103634208 7.688447924761828 1.2273538782295792
Mg 3.6735871044892017 3.3303755949886957 7.277710507199731
Mg 5.442165090582726 4.456836874587766 5.2352299950456125
Mg 2.1562679799456355 5.210187526898923 9.170800662557959
Mg 7.180222814190923 5.433970598757374 2.9426796060128773
Mg 6.702979383193836 3.494357577203964 7.830475204263167
Mg 8.446121189500335 4.123176375733099 5.308227563107816
Mg 6.2690892677995045 9.386732561383383 3.787062848017062
Mg 4.552547404619687 8.619385612662251 6.177860675750344
Mg 2.5976647311980856 8.081458979701285 8.472977982348148
Mg 5.244996747496013 6.16833338501071 7.938861236435322
Mg 7.38916706344956 7.0997201171878555 5.678195377459244
Mg 4.66268594469685 3.7810463661235865 10.089293726571576
Mg 8.49988228979183 8.157210831498444 2.1104735699678887
Mg 10.021048836267914 6.489092275110153 3.9622529159299735
Mg 11.331724624737825 4.8434413685115345 6.081796106050711
Mg 4.40042903310273 6.858680963372961 10.735562640922236
Mg 8.979544270601622 5.488912842221898 7.944996874036109
Mg 7.120351263659672 5.35447692222563 10.297866266107844
Mg 9.210582614570528 9.582590406796589 4.605118020548361
Mg 6.897559856279664 10.421475665551798 6.475169383558713
Mg 5.186693463264888 9.44299793147266 8.974748499830575
Mg 10.523124690739843 7.8197047497177845 6.565126222266841
Mg 8.117039196044292 8.304569722831776 8.425049791643307
Mg 11.880772671259013 6.065776552142916 8.685021252949388
Mg 6.9707913684232246 8.289471764580494 11.26316119543391
Mg 9.65178884433156 6.78930636166716 10.671778739505262
Mg 9.834025671148567 10.771091081629335 7.334693170385174
Mg 7.5226744485948975 11.22473224140665 9.250659764942753
Mg 11.453103412296336 8.949161279851484 9.16559559248633
Mg 9.473933682748617 9.93808110391896 11.038866650735017
