30
Energy = -26.31411858 eV
Mg 7.132255265703517 6.1013115066064065 2.3156460826924175
Mg 4.122654203332486 5.782456685145677 2.8091997068284673
Mg 5.421983441642581 3.2039435328918255 2.705812840167672
Mg 8.296164068092397 3.4884644717383564 3.2501543664903987
Mg 9.648156360212948 5.99703368306295 4.236619823987844
Mg 5.628242848748624 8.138200993076952 4.114906026477376
Mg 8.568726105668242 8.74652067225576 3.391307528218095
Mg 3.3027961098332432 6.797950425031962 5.49308925552706
Mg 3.7685047672275376 3.7013943112772134 5.315929317385386
Mg 6.377773988734981 5.27264763578616 5.216546598092375
Mg 6.795789740634864 10.859887905737052 4.774147757645958
Mg 6.572473780518545 2.118534776927184 5.327664190164933
Mg 9.51437854371519 3.492331548807162 5.969050980886848
Mg 4.269569265779045 9.912432819180252 6.215181892278872
Mg 9.441482189563674 10.382347641562651 6.1002004909099
Mg 8.007999700719441 7.728954649011457 6.233221370120909
Mg 7.991891970804421 1.8161411982522921 7.9730641098769865
Mg 5.222235720892474 2.972971888655028 7.917564664783001
Mg 10.349020891420318 6.1779877182380725 7.285658783898461
Mg 6.919535798451137 10.365710458041788 7.824820334254805
Mg 5.5014141660458025 7.349775129660896 7.612908397670703
Mg 2.3382350429467325 8.277034793456703 7.951368312292256
Mg 4.314040226314449 10.033456856892377 9.255380311021426
Mg 7.650324143757215 4.906422127105192 7.841933991584659
Mg 3.317196460812373 5.235158703717665 8.109458079111862
Mg 8.89811995464348 6.302972866449042 10.185122047134762
Mg 9.395120168225773 8.877659791647435 8.767518724151516
Mg 6.720704120064916 8.374441309113758 10.304381882783513
Mg 3.7361209422701003 7.352343740643022 10.467721758357106
Mg 5.833519412667749 5.289939559470565 10.09084977464759
