32
Energy = -28.21596903 eV
Mg 10.103627051788411 3.9833784747146304 6.99914602945555
Mg 11.863873131338194 6.363497077509415 8.243109382289944
Mg 13.214743041862738 9.121503162221236 8.358828694201595
Mg 10.402306255710611 5.118833603544427 10.47566880346751
Mg 10.828504206165567 6.580414145704684 5.366933663176977
Mg 8.083267800341158 3.5653353535456414 9.245626527998512
Mg 12.263831938937624 7.779863126023415 10.932199919644606
Mg 8.251080932124848 5.556149956200663 4.411673972370027
Mg 6.883736008682385 4.070220823420794 6.570148987358288
Mg 8.635808105541136 6.347509799589168 7.75224140807278
Mg 12.270039483722412 10.952579829274882 10.436480907718975
Mg 10.389036007435626 8.88463083255458 7.256674102511609
Mg 9.317292741957555 7.983563216186789 10.156156492710693
Mg 11.560478272158278 11.667357957900968 7.546687578999597
Mg 10.285134742601677 9.944533727915074 12.364975759226652
Mg 7.49504487955237 5.697928869498785 11.190350137734482
Mg 7.269635976387593 8.849542350137988 7.937564233451489
Mg 8.02851950308084 8.137993864586177 12.949332031468188
Mg 5.675470742251642 5.807586381904344 8.788339069631201
Mg 5.889065524202409 6.941386336461845 5.892763769916459
Mg 9.03737892127156 10.797691030353104 9.240637109792873
Mg 8.350931442949078 8.480305459233666 4.957127559571291
Mg 9.875447320241953 12.779590187705384 11.171739699814744
Mg 9.270169420161245 13.632358313392281 8.039650154114103
Mg 8.676662931685575 11.235236664452456 6.17305026816896
Mg 5.921116932938562 8.24937853954047 10.663940434637967
Mg 7.2990520330182145 10.795032481631898 11.790983931017882
Mg 4.163290306381613 8.387276571814706 7.932824213275258
Mg 7.093189723334052 13.287319822704813 10.007187975054103
Mg 5.651880274660994 10.236193709951316 5.9188386032202045
Mg 5.330010518036941 10.969033250925051 9.227633315060393
Mg 6.349269431015732 12.921763230187901 7.130688348938769
