37
Energy = -34.27101171 eV
Mg 2.9041520774210507 6.3803704929833565 5.889615890482435
Mg 3.475999941687991 5.349641776886985 8.761612761946662
Mg 3.9443446061995084 4.384960239892162 3.6904907035966907
Mg 5.035543064594629 4.1713122793159405 6.526326400360501
Mg 2.9802018458110275 7.130364878475592 11.283073112604667
Mg 3.803350433039941 7.35806456369554 3.1836583803154874
Mg 4.6204716595727335 4.758284235837848 11.762906798986453
Mg 3.1350903434524495 8.296646677025928 8.416765807207703
Mg 3.819288003563321 9.55748585481579 5.3561943798406775
Mg 7.410747049396322 2.2091901147881945 7.10709380887579
Mg 6.788627625832383 3.030072829555963 4.310883436866988
Mg 6.210291298082444 3.9217578326241314 9.278911850940949
Mg 5.631431575403636 7.676764484867391 6.680360673590507
Mg 5.523717190229119 7.289530390616022 12.9657450648478
Mg 6.483691853176824 6.038991958324116 4.431578611324576
Mg 6.6454572038690545 6.559870914682525 1.5477731277760942
Mg 5.9828092302058735 7.050203264973857 9.527282060447316
Mg 4.775353247283142 9.540880676861729 11.07380646172147
Mg 8.074524540860875 9.145773550412581 8.246894167007172
Mg 7.65846894506841 5.441711666596227 11.543722126802576
Mg 6.272688531351857 9.068419596645334 3.341072757805585
Mg 6.79736325988232 10.862101162282931 5.787293542580825
Mg 5.293087991508618 10.284691025327003 8.237045016285716
Mg 9.221893810085245 3.7191930289114428 9.101630092444706
Mg 8.420893362353278 8.201231807753695 5.361569973533634
Mg 7.871151111350293 5.741901894334279 7.2041327101050445
Mg 7.742287839262377 8.656509205884385 11.428069634679336
Mg 8.831035601429393 5.000175698774933 2.8726103134000462
Mg 9.610770537472321 3.5856661994489647 5.63096386549057
Mg 9.484835936977717 6.819858668350265 9.578616594358927
Mg 8.807393589782565 10.797724922181066 3.5509545902329647
Mg 9.802834692052063 11.054495299528336 6.403983778981397
Mg 9.228680903912359 7.974874527471844 2.394321115422361
Mg 11.253300663596347 5.32845571549285 7.527179079809887
Mg 10.758835799255626 6.356879229429157 4.737696343937084
Mg 10.927728158817633 8.337476294870436 7.24588624377568
Mg 11.214713077982063 9.36413738829086 4.363942266563304
