31
Energy = -26.21657132 eV
Mg 4.587595791341878 14.72312970169187 9.589561774404638
Mg 9.612129437600197 7.300721818372032 5.476397142472264
Mg 9.123318592793371 9.322183348860015 13.505562586619524
Mg 12.032760665962707 6.359052163443301 7.224970299984294
Mg 7.373744467090413 13.75313151669855 8.633040476066794
Mg 5.418803352251253 10.42487090947893 6.614009287746138
Mg 8.194278401142244 5.102721404541263 7.034100290577481
Mg 10.582121646238866 4.458307828830312 5.244231533482523
Mg 11.182795225287688 11.776450747499815 12.860217687424688
Mg 12.150447706516958 11.346615689192499 9.836574803004055
Mg 11.33224505104934 9.661952933436615 7.240355422095515
Mg 11.907149544645623 5.238060132105398 10.104762120265308
Mg 12.405295049951999 8.194483051989275 9.759025504963981
Mg 7.326423953615161 12.751136461511527 5.844492648341569
Mg 6.785021505885398 7.8175256269459625 7.269434212789644
Mg 9.35114978799275 12.78679502544223 10.650738736003895
Mg 6.409960238906164 13.542434272431914 11.614055716997132
Mg 9.780761734533295 9.753911462926435 10.606924734450446
Mg 4.644427021273271 13.261856927908935 7.0235066545198785
Mg 10.17093024802588 6.933827189387889 11.91782471228447
Mg 8.35476373708957 12.341959726414146 13.56743471553143
Mg 8.593289851122632 10.048166796828404 5.918599392011139
Mg 6.818011755579531 10.520902514745268 11.775082523303004
Mg 4.8945738530816225 11.635928075268943 9.606522635275065
Mg 8.812764300392793 4.926105616322463 10.066091282762235
Mg 12.179446578373382 9.095559652864894 12.61670991183282
Mg 7.5810972508158905 10.53153512121042 8.777087925012985
Mg 7.452686544499817 7.741125504834286 10.639900127222107
Mg 9.611769531222786 7.4511837785807264 8.580708307011186
Mg 9.929335750083053 12.302139147835929 7.641313303149177
Mg 10.669601355981397 3.57523169619351 8.0308461608206
