35
Energy = -31.65097157 eV
Mg 13.083637338373977 3.6900351602621915 13.43317077873463
Mg 9.232769084337844 11.54551447456893 5.242678033141858
Mg 11.775309474102073 13.413511718198597 9.335248827528526
Mg 9.307260211588192 11.33522210057177 8.618437935929089
Mg 9.355014689741871 6.555458667366249 7.602321222865973
Mg 6.680369568119978 12.082331267005742 6.574672942393958
Mg 12.762630795200861 2.667935660436442 10.683609319784267
Mg 11.727488213147296 12.315921064303291 6.546066963371483
Mg 10.807461892238216 9.225662125959918 6.557159431141693
Mg 13.537111769804955 5.629793030249348 11.164085296365837
Mg 11.402375089709492 8.75801645867095 13.75321050839651
Mg 9.099800442896608 13.982818208909338 7.324688901015154
Mg 12.21091392454141 7.454254217783275 8.626866308807996
Mg 12.43948044640046 10.418848242893693 8.77453605061853
Mg 7.471708480400306 11.325723419448632 11.365857713783269
Mg 10.417049421984904 4.336810186551316 12.330268159378267
Mg 13.420114096706776 8.92721983171272 11.245499124945788
Mg 10.709642277055934 10.77264273638663 11.385753472690897
Mg 6.472256673604894 7.230181897247611 8.745281758726254
Mg 13.88426524777404 11.991868557942691 10.858413530453927
Mg 8.292162258942925 5.726973580083868 10.526203740532562
Mg 6.061880109934805 10.242988356905773 9.03226248740888
Mg 11.006336441558533 4.770345917268613 9.334493089016025
Mg 13.456663055598279 11.032687177265093 13.544496271236516
Mg 8.798779768521253 13.006218012082185 13.47795903532322
Mg 11.743389979294802 13.459293484448127 12.550047863786562
Mg 6.70960863032492 8.373460346321806 11.604837089371392
Mg 8.77382637631121 6.905606884095871 13.327247828216633
Mg 8.523957207470916 9.873721100044047 13.736269470413646
Mg 10.965668724215652 7.179822983919743 11.323791718547149
Mg 9.095154407847645 8.78580050875125 9.682905997370533
Mg 10.880511298666713 11.543760779181207 14.86296278365526
Mg 6.604270249443054 13.320078879494908 9.179229748897669
Mg 7.80678406823478 9.172297411858825 6.762497642613568
Mg 9.182291041591531 13.836253598291032 10.626559278846027
