34
Energy = -30.5617068 eV
Mg 10.855528881180275 5.0600218175482885 7.2143187462096945
Mg 8.61606799322045 8.148628849492464 13.392621045310188
Mg 10.805113485718156 8.267902328820014 7.393677406498499
Mg 9.936436029787894 13.21863731521576 5.96594577994663
Mg 11.99731891911914 6.805415950707261 9.676765338595986
Mg 5.404233980722937 10.959641624263131 5.79671805632356
Mg 5.366964278668522 7.439667045240276 9.528725621074676
Mg 6.3504082122781895 4.283474242605576 9.161351183083546
Mg 9.486591696264085 12.492015383763023 3.15568021670272
Mg 9.15933204137176 10.051735459748624 5.407005927518043
Mg 8.85909355945302 6.889611996662166 5.626064142812018
Mg 6.362958374861586 8.267364190192533 4.7244754289792965
Mg 8.976457849353306 2.6186000197613595 8.575835155920538
Mg 5.325825331905887 10.574260969869634 9.052978164786383
Mg 10.114134438763854 6.090269685433945 11.926904325037523
Mg 10.30635983366366 11.14620454636122 8.180665087614573
Mg 9.018312756096432 10.97085461772503 13.039312284440545
Mg 7.042601886537789 10.702486299594112 3.2434798279229997
Mg 7.1466423233130385 13.454988643541792 4.6643238179016935
Mg 9.350270065026312 8.825279265256846 10.24370573361582
Mg 11.565793322062364 8.944310978846188 12.323124440095889
Mg 6.513963445251022 9.364641037584413 11.602434633501689
Mg 11.139369338758698 3.963090750440817 10.050011137114655
Mg 7.537287136576697 12.156764041332096 7.456072614036739
Mg 4.166091474214617 8.550863567386198 6.976041584275466
Mg 8.68078715000559 6.20086987913139 8.923440338607497
Mg 12.573353179332335 9.691916279679669 9.55579679536938
Mg 8.413310782667045 3.631854375067064 11.282125044745744
Mg 7.01736105381392 6.30333464031388 11.634449151608266
Mg 7.999095076933283 11.708869115645092 10.339257785474572
Mg 7.571361103047467 8.8886412610437 7.746918865850194
Mg 11.093724300343677 11.721188161832917 11.102418524491005
Mg 5.9655331092703925 6.165753522901234 6.78275388499055
Mg 8.012072949384784 4.11046658044058 6.328399814125725
