32
Energy = -28.7881213 eV
Mg 3.1032774559812837 14.203597946350351 8.150301473768447
Mg 10.143523260907818 11.440639775853493 7.069979297168384
Mg 13.833302578192788 8.251191881609863 12.46378475461321
Mg 10.588144907179073 12.157634975570053 12.67118154996843
Mg 7.195167602102642 6.902568875573544 5.3970358402299965
Mg 10.667263652159834 12.722096434523673 9.7390054809056
Mg 8.119956132738695 10.482077961599302 12.54004949245544
Mg 5.708859513369073 14.307739071169083 9.93765608562135
Mg 8.110412884501855 13.296029702159473 11.330067250853695
Mg 10.332396686580319 9.451518275303018 10.266918594584148
Mg 8.167070892944942 13.788686893988718 8.195517782900133
Mg 6.707673625112718 8.438181522333807 10.85130780459187
Mg 11.357784989784568 6.750637314142869 11.510223878170033
Mg 10.155812979275396 6.6218600515866735 5.4575070565641495
Mg 8.378663319357067 5.064804965938263 7.414533898925797
Mg 6.025105585021269 6.834685118500219 8.310216033221058
Mg 6.188820459613279 9.497776149973566 6.530818956838022
Mg 9.012507288477932 9.43869659404178 5.018570493177753
Mg 7.582412996216189 12.07430397721105 5.697876644931868
Mg 12.809710399367153 11.09390608352397 8.356237173987047
Mg 11.044314693770607 6.36852185112119 8.467315669228912
Mg 8.514069245450727 6.109568343272084 10.218290579388
Mg 13.179346994515766 8.343313169822336 9.502496980937824
Mg 5.5211807071574786 11.492657274319713 11.103026306275796
Mg 8.739907257699077 8.356183332469163 7.950075662875775
Mg 4.5261445533412275 9.413732086662145 9.076536740012445
Mg 8.772179988449723 7.542511990227346 12.814187657101415
Mg 11.124135039296183 9.290225981630204 13.351704289194503
Mg 5.419935533326898 12.124253866096595 7.894879162812532
Mg 7.919365703973469 10.894697813065774 9.259194790508737
Mg 11.666979253570924 8.861265505976577 6.748070944525806
Mg 12.960402016485014 10.915836786272527 11.325528998466778
