36
Energy = -34.17566135 eV
Mg 7.083875853437438 5.473865045361777 1.6012925542880858
Mg 9.965854525429478 5.829262972186403 1.6981410872954037
Mg 5.094199036478399 7.159198197312044 2.873614836171197
Mg 11.655970948346475 4.233580731351157 3.660090078372269
Mg 8.525632876730704 3.837483937795566 3.6361275938819606
Mg 8.101608253488706 8.185390090112714 2.580247966344966
Mg 5.492523428467362 4.376283150940043 4.073049250495497
Mg 2.941006823726812 8.90671246741868 3.7901142507519046
Mg 5.938064835016395 9.469464190950744 4.627988905265583
Mg 2.7497476064626443 5.7947513717028185 4.355143487954422
Mg 7.370507258744567 6.527787063725602 5.022940731515311
Mg 10.348914577538174 6.911197943436687 4.443856142773027
Mg 8.825573371379338 9.353887964757432 5.453213190806302
Mg 9.353168284680999 4.553102170149613 6.438849806442753
Mg 7.012557916980016 2.2979253235106087 5.820234287255619
Mg 3.5344710643157153 10.1334220680662 6.505762600101892
Mg 4.614507558616092 7.1912381587022995 6.29313206033324
Mg 1.071357780157367 8.02420095831478 5.836762025454265
Mg 10.288816799836471 7.365319962900503 7.40448243417381
Mg 6.322806943594228 4.8443169117377245 7.349315241522883
Mg 8.344859669691937 2.526011895481569 8.553831770529905
Mg 3.9410599261952672 3.1895696138765572 6.259935239820287
Mg 6.703812659786091 10.789250764603434 7.257191140311242
Mg 7.2740032132244385 7.749088796237208 7.781408613869122
Mg 2.118228845212588 8.28399701251769 8.484042631485918
Mg 2.1455075091479 5.472316066051572 7.30762324245334
Mg 8.847279199075874 5.400974365653707 9.325526983014349
Mg 9.66787306864002 10.298494380446916 8.164938002887235
Mg 5.61758836252193 1.5313794521435953 8.438521149048071
Mg 9.663636475682903 8.173969446213215 10.284500645114756
Mg 4.922631389954464 9.220128920615917 9.132497613900892
Mg 4.441688206500544 6.286851695414139 9.281470391626836
Mg 3.5484233143642814 3.4436895350241596 9.188822550538749
Mg 6.328921069183005 3.9872506164704955 10.356232941220554
Mg 7.533272716245153 10.231099437256935 10.159124742270771
Mg 6.843950203853713 7.181438894266312 10.793875383414724
