32
Energy = -27.92980083 eV
Mg 8.716018606530856 2.904264715187901 5.4777745172992125
Mg 5.734289033132657 3.116167466566632 6.180712569656872
Mg 10.680729643136331 3.750397251943624 7.54084527895141
Mg 5.211262238827686 4.636246812443466 3.3653408992541647
Mg 7.830800380516142 4.29352057265117 8.072567864023545
Mg 9.801532176645733 5.365360157956605 10.100395757448757
Mg 8.206896823819354 4.790971230684056 3.1835007398752233
Mg 3.532299085743069 5.12016502352588 5.955269482758698
Mg 5.016702493329449 4.842236103678461 8.585939286641768
Mg 6.953323613073072 5.980113346999788 10.549459212964653
Mg 9.644267749546046 5.816571080238636 5.570159169226328
Mg 2.479643519569214 6.298685179598128 8.501609992284116
Mg 6.467535287020445 6.120327785434012 5.836292004474463
Mg 11.509684044864468 6.60474353915514 7.768879646735527
Mg 3.8212280828291276 7.264105663243341 3.709280445432512
Mg 4.15362360375706 7.043119214928071 10.897544087122702
Mg 8.3392041788939 7.223191497223681 8.020969600985628
Mg 12.65604667662545 9.392131845304096 8.06638690160913
Mg 6.710583690687027 7.587557330477291 3.142743720575352
Mg 9.792791619640376 7.408322959147239 2.972507189179439
Mg 5.155534112630358 7.957997817919696 8.10155450248403
Mg 2.7129096451314587 8.385224964035716 6.2334081755035795
Mg 8.30927749910527 8.67478294701792 5.4184988569438834
Mg 2.3495030405926722 9.167673989547412 9.241861679771093
Mg 11.259198393309573 8.464293706309176 5.356229159326207
Mg 10.648261820533365 8.240921407745976 10.155604222773118
Mg 7.676767555034034 9.006069607218551 10.285332749321912
Mg 5.437569750963769 9.279165210974918 5.305637149152064
Mg 4.923626867808433 10.152635148827809 10.21868344834463
Mg 9.749176770924805 9.939458405131768 7.760321156962594
Mg 6.904453934760078 10.461839433982853 7.623614443935749
Mg 4.000822653165349 11.003374673706116 7.309662550853022
