38
Energy = -35.6179068 eV
Mg 2.319643053006303 5.475391646474557 2.8443246546020196
Mg 7.547610669191444 4.62485843328026 2.5013570334274413
Mg 5.021863025246562 6.679294891752291 2.087812050886891
Mg 4.575072834162761 3.6705843321458667 2.6405388052617815
Mg 7.789094606812368 7.75813397573083 2.7472177433060465
Mg 9.996759008728292 5.978099074966994 3.663069618131216
Mg 6.527626733382814 2.500152042554812 4.596096782323154
Mg 9.881654533334682 8.96021339464248 4.652149219113177
Mg 3.6042301932810967 7.6144782967145614 4.716405294943959
Mg 5.528901649832765 9.604982481496277 3.5154033004180825
Mg 0.8608182853693767 6.410571928048206 5.258298775195319
Mg 9.536876097030776 3.0258054975344777 4.247090327695812
Mg 8.126615775294956 10.937029867664783 3.118878361564695
Mg 8.427591841417183 5.215878331979092 6.078751907959569
Mg 11.154278344740753 6.720304961882493 6.330486434760561
Mg 3.270481770310964 4.395172106614474 5.684786260947209
Mg 5.873256826652211 5.604471560125456 4.779331598918636
Mg 7.832885426350517 11.119319427381626 6.028906581106424
Mg 4.821403566159804 9.885118166615184 6.503991139009501
Mg 7.182724657523661 8.064872472671833 5.831545497259734
Mg 10.910721770960137 3.782512726917382 7.109648426532068
Mg 2.148518402046893 8.292752006752094 7.400925240306488
Mg 8.5194828296843 1.883239614662661 6.816035589208393
Mg 4.788255398016849 6.7276453517568 7.510489788840705
Mg 1.183256971359335 5.581950471674787 8.012091082787062
Mg 6.089038710232398 3.796491957299287 7.368963743787999
Mg 9.72069597803347 9.03647634849303 7.670596032024853
Mg 7.592955385683133 6.712490235944474 8.503987093360246
Mg 6.956787245441349 9.78071636055621 8.688789796342581
Mg 4.07811961743046 9.385668036518968 9.430673039930802
Mg 10.55919849705851 6.194107177100372 9.206169443774279
Mg 8.588071793277823 3.785485116311207 9.20239315750217
Mg 3.4459322621267634 3.952987241259977 8.757526497555991
Mg 3.189798369209873 6.670668186489147 10.181708649830394
Mg 5.813527899435124 4.921399585668933 10.282269174952713
Mg 9.05580482092315 8.582358546161085 10.598712794837866
Mg 6.053277781535511 7.824361849614593 11.009646568914107
Mg 8.440448266097244 5.857237192924055 11.436213389060656
