32
Energy = -28.52939021 eV
Mg 13.696281086961811 8.294561814180861 14.819713219954243
Mg 8.164383524548274 8.687982186237624 12.881571003768249
Mg 10.05565649439197 11.461000437573317 9.498872484360598
Mg 9.443495760877862 11.046046265144525 14.390528834388027
Mg 10.971368334818022 7.397584451622903 7.227248271087482
Mg 11.16247183607929 9.71356764999164 11.99494124807537
Mg 9.841510449338438 6.25255479547564 12.528249667489376
Mg 12.708860600393617 6.972663443270079 12.252472137601524
Mg 5.476621177253023 7.956679015979447 5.251795517404513
Mg 6.552677267505714 9.44774803847421 10.248294697636913
Mg 6.451398157439846 12.613104672209689 6.013030603675419
Mg 8.067116199200049 11.578373679201107 11.772343434130855
Mg 10.327581931957335 9.428591434964298 5.009707928566098
Mg 11.906671596651544 10.346513411749552 7.390361286766398
Mg 12.812908861682835 8.45235635443434 9.570880039666921
Mg 8.373837226457844 7.14412788841922 5.563606219801276
Mg 7.415552866221781 10.102539598667578 4.69183853349231
Mg 11.358509801243326 5.775386420464278 9.910630103755254
Mg 7.19783972127172 12.152208639747927 8.885783979578397
Mg 13.013160889352914 11.507954863058872 10.010623164630232
Mg 13.970518511776746 12.594556606847334 12.641152957211373
Mg 8.396423606166362 9.417765706209307 7.620592910278985
Mg 9.373539288017156 12.01296119782402 6.44845958047125
Mg 10.986304139280458 12.710337756409412 12.265595665122724
Mg 7.227416660653637 6.503382447785132 10.798726126491811
Mg 5.401983896304825 10.129562463493102 7.366868268794594
Mg 6.1619096062411725 7.251842745085508 8.142224162310729
Mg 10.673317537937155 8.257029402505102 14.645076424198084
Mg 12.435574558281894 10.957142989193583 14.626227573151395
Mg 8.709006933706096 5.7302677815230645 8.223194233362818
Mg 14.246187216849087 9.633295477732485 12.15254443594316
Mg 9.601247221868785 8.34894814714301 10.006732443359944
