34
Energy = -31.3316017 eV
Mg 9.743735647042945 6.1585760201998125 9.153869702079648
Mg 12.264814232385687 14.216249541709956 11.803928727100041
Mg 13.45090940004025 7.091280270864646 9.286011593837161
Mg 12.292193799184263 12.726193649417032 6.8722330967481415
Mg 9.453928514171038 14.796407494847191 11.276983788532347
Mg 6.2454325105084365 9.213324379519118 11.62731064716866
Mg 7.41040710579564 11.19047105774557 7.329081047038916
Mg 12.883293802212334 12.837980525918223 14.64149854910744
Mg 11.15027683201323 10.594678108134527 15.251299857087277
Mg 8.86037809596753 7.213987780401835 11.855032528103079
Mg 13.891443538514459 9.87375766211557 13.860082776086543
Mg 14.0641651612422 7.252825216232522 12.244539318379324
Mg 9.974333783361173 12.989386315844282 13.720015551153843
Mg 11.621408795929 5.808599686461677 11.4216838957084
Mg 11.75340310367126 11.143492579704214 12.026080766697456
Mg 8.238004143562517 8.091355189410208 7.325314212458148
Mg 5.533457626240556 9.000819748946608 8.524570227264887
Mg 9.499067482331629 13.42940873162553 6.560109486263364
Mg 14.627366725902831 12.390467948800305 12.31842366950803
Mg 11.246452961850084 14.814577905482947 8.810437196237695
Mg 10.427175354986858 11.929457354910182 9.495279598270603
Mg 7.83112830505475 13.676480571434068 9.008225471218832
Mg 9.02033682019626 9.974086637360973 13.047181567485643
Mg 6.800805514162063 6.686052430608227 9.770048619855263
Mg 7.85472729295111 12.230817384876605 11.646140769288923
Mg 8.49733130094069 9.747557847430457 9.79771422524522
Mg 10.287247021445957 10.41016092953673 6.740655809000424
Mg 11.397564468082138 8.130150040530944 13.392147681791199
Mg 11.302017307079728 7.615894420811421 7.104473802737415
Mg 13.525966489670818 12.592685915490856 9.527436926533811
Mg 14.254268324797602 9.786134945286104 10.709722045245611
Mg 13.062245053725553 10.013395869265132 7.943048588924147
Mg 5.603233219993221 11.6317336095889 9.780516879987436
Mg 11.191507913639892 8.82269207273208 10.274142956916839
