32
Energy = -27.68702702 eV
Mg 10.492447509025457 5.584074793205915 14.28852828190414
Mg 12.694140132412814 9.138576588280182 6.125199061838465
Mg 10.820909310003081 6.66643420442878 6.3024384526345205
Mg 7.134686133770021 12.884068810564626 10.110386188920478
Mg 6.256476324687605 7.449078054231352 12.387199869158891
Mg 7.036029912961693 8.581348994559331 6.050315024757483
Mg 12.034994154467972 6.3898679005625265 11.725390911280845
Mg 9.847598571189478 10.273822562736827 5.9638839351277175
Mg 12.43736355790713 7.716601340408768 8.865671717039612
Mg 10.322018327178995 5.547449321346963 9.151164539413898
Mg 11.703638187517864 10.784355857773813 8.542009921489333
Mg 7.621745048788214 4.9252274357040795 13.325002260442146
Mg 9.395499847831523 8.401693934702044 8.43585996039954
Mg 8.218874081508678 7.39071719566333 14.904939166340721
Mg 6.071435032780602 10.125269528744438 11.052561946725865
Mg 8.35688078686246 9.705588153364891 3.342883868748035
Mg 10.874316142070485 8.5258525501307 13.941352624785877
Mg 6.483942129260539 7.7682497824515995 9.186306962611242
Mg 7.320454812549835 11.820243902970457 5.165656666728848
Mg 7.996581326256647 9.910252915835382 13.27366936287529
Mg 11.01543966813015 8.422060954154704 3.75502685524
Mg 8.562370492402296 6.755783579530965 4.32841409801881
Mg 6.46997745437533 13.692562065516897 7.271045258342002
Mg 6.92507444164364 10.632768696183678 8.095979659135612
Mg 7.9037383776694075 5.818152870255355 7.235285955269388
Mg 7.442168675593148 5.157477890954991 10.286571207570544
Mg 9.97762913754146 4.144799931222035 11.739931279939404
Mg 9.179901704703527 7.573572715856266 11.401379008230958
Mg 10.583353696008622 11.414035109010234 12.988953539360333
Mg 9.11150192052086 10.563335297952502 10.464469444354894
Mg 9.311733429580922 12.58308896303537 7.914523473853999
Mg 11.939268828518664 9.409049107222428 11.219457260008577
