36
Energy = -32.94138949 eV
Mg 4.54411734594594 9.627689910810094 4.686769244272651
Mg 10.174824815189904 8.077957601715646 3.683620272694154
Mg 7.339130913381678 10.228783402659687 11.377279753990734
Mg 5.552578977623868 11.548964849504848 9.39397080392231
Mg 5.238279736794427 8.548445882460191 9.912116776778607
Mg 11.468969937623156 10.086002557958452 8.537335614889072
Mg 7.4835031561472425 4.19933201724889 11.520147341023574
Mg 11.448650096674175 7.794796657518392 6.453507742411103
Mg 2.9276978692104176 7.006274649275172 8.672119867480173
Mg 5.916023706294944 7.052981563085941 3.703763522983603
Mg 8.80451919876359 2.8771937822212843 9.035736455523319
Mg 8.461780816617264 6.892062643937894 5.864880902715335
Mg 9.878568907443144 5.752913174621701 10.71111589428537
Mg 10.088016232532894 8.971227320590232 11.054942358711257
Mg 9.558928897155049 10.04653192788364 6.153401463762597
Mg 5.629069704685673 2.6563365585961902 9.859886349661615
Mg 8.856863783956946 3.6601897015815608 5.92322623423159
Mg 8.718296593064697 11.255679784549969 8.968225161629652
Mg 7.230187474793804 5.37668792211103 8.485192504934105
Mg 7.403740007041094 7.200808066264074 11.395260828033404
Mg 3.3033440091181463 6.770659662387748 5.561745768384636
Mg 5.45653435463837 9.20132255066289 1.504216518566257
Mg 6.669374276154341 10.442767953327492 6.825042182846236
Mg 4.845986761764956 5.607770752508134 10.541158998621404
Mg 8.467205756686903 8.196680907283614 8.582594823714402
Mg 6.474453529214352 2.269422770726758 7.144839271268944
Mg 5.739598329831548 7.470109310192682 7.026201549499352
Mg 3.670970998271547 9.767136717542748 7.5197434740821425
Mg 6.101153886147668 4.745015281066563 5.466775568180528
Mg 8.120250931173667 7.790503386934648 1.523440696709254
Mg 8.488032120831496 5.350597448101777 3.301111294939376
Mg 7.526698134023496 9.610323375042169 3.977073518912095
Mg 12.051083874447421 7.336705646105838 9.393654461540933
Mg 2.995016597120521 7.925694770412331 2.6686165669676276
Mg 10.403229035137848 5.343383777953349 7.820960274057133
Mg 4.261212240933763 4.476041601696393 7.7557165326671225
