30
Energy = -26.47249789 eV
Mg 8.30206980753856 5.948604238061911 2.2237724103589587
Mg 5.278517128072665 6.276733918564837 2.309054516766925
Mg 6.623601003263853 3.576633173706334 2.891709403216331
Mg 7.238564958480357 8.68244342271678 3.0565454874121176
Mg 4.297975094574898 9.014607992835991 3.1474816570684094
Mg 2.533124566366741 6.70540334204005 3.7319628937728497
Mg 4.102437699305975 4.229679404232307 4.4091754362645466
Mg 9.20101956725919 3.9712218910310413 4.454657480677105
Mg 9.025198229335915 7.085121107506228 4.837929857179247
Mg 5.771577384081325 10.401087819006605 5.3103112164225825
Mg 8.799508250280635 10.002515953746116 5.309005382473851
Mg 5.567955048618119 7.062300937839421 5.535470218612073
Mg 6.546261147100124 3.123649214810345 5.825494536627911
Mg 2.906507440436554 8.990077441657512 5.837150063004841
Mg 10.884798985490258 5.477291424501117 6.483133361786746
Mg 2.6242641111079523 5.926445531186929 6.63060079473647
Mg 3.890232449095109 3.2856870037910375 7.225488044632465
Mg 10.008231351939235 8.246207738420717 7.485948752072631
Mg 7.397721057382328 5.9520655521205965 7.526471101750577
Mg 9.11627918128539 3.2246482233924287 7.495559264327668
Mg 7.220961992772174 9.443085180462132 7.760623634572825
Mg 4.4345363828973134 10.402843846357829 8.044784204569916
Mg 2.7611866891727046 8.055940806840745 8.7607405740294
Mg 6.3736903590093235 3.2590380593561976 8.872751283819126
Mg 4.442125569947488 5.633002542238499 9.020866731974694
Mg 9.895519456635071 5.694705118815332 9.33534859247712
Mg 5.468767516149119 8.340653878315983 10.124257791627395
Mg 8.506564139950441 8.256925344300615 10.153821148791108
Mg 8.84731026575599 3.1521000563222703 10.602159941365874
Mg 7.02133240464479 5.667119073772004 10.685563455558288
