31
Energy = -27.47327858 eV
Mg 5.4564777493912135 8.821310286688236 9.15606562830528
Mg 9.901949244223287 8.561277023177873 13.498970962209519
Mg 6.189385090626357 13.523618593917412 9.236434994077536
Mg 10.172893616039188 12.20478011053388 6.977384847321953
Mg 5.884795019259668 11.076651339473678 11.05710317636527
Mg 12.810673355005003 5.839346935535135 10.657131517978256
Mg 10.742066377631652 11.380264647981566 12.884986378264218
Mg 7.244286844807783 8.353895021233662 11.529146428221523
Mg 14.434300322940768 8.157383510167408 9.373662444276945
Mg 6.588176269550467 8.702877318114977 6.453809216196146
Mg 5.204978693059535 11.537192736398357 7.024553565248325
Mg 15.40781888263817 9.741887223527328 11.9079105903289
Mg 7.358152276365753 13.690350079217176 6.50478729724843
Mg 8.50727828638121 12.643980477556244 11.139773527654215
Mg 11.416023746059768 12.421410306367317 9.941962417605744
Mg 12.295382890276048 9.050011222526724 11.14962195884748
Mg 7.827228737755074 10.720114593237769 13.331242511493928
Mg 12.130256377016579 10.105278519334242 8.05986683387519
Mg 9.900168554346614 6.61654945163953 11.176364077532863
Mg 13.013155788720965 9.380163214125531 13.946746182501025
Mg 14.744110227219075 7.053679141891546 12.641133762363168
Mg 11.941601369657157 6.433558749754464 13.412799026947575
Mg 9.661066035944986 9.749312210235805 10.260808501636708
Mg 7.772429183694304 10.953639459565288 8.476014642905763
Mg 8.15751605343839 7.4278209861041535 8.720440220142596
Mg 9.671869987059893 9.089500596349247 6.687544385779953
Mg 9.150599635844525 14.340051391187608 8.795186117466274
Mg 7.820206262614754 11.119656626804908 5.234570532346431
Mg 11.263946181567508 7.301689591697666 8.543274647548898
Mg 13.507515879963186 12.067499790026417 12.242957567798435
Mg 14.374453980701833 11.313440795385407 9.545100384967858
