33
Energy = -29.68543045 eV
Mg 14.517586715475336 8.229788130313993 14.671514190543569
Mg 11.210382671176808 12.410216002838126 14.017120116643078
Mg 11.815942066834591 13.85527613657596 11.276847810942552
Mg 6.523008165655497 11.152119806908228 11.576128724612566
Mg 14.873982125124616 9.925488060075388 12.07061563298235
Mg 11.912857853884978 10.5494013414232 11.844632314442432
Mg 5.4423619792524605 9.53216577920364 9.236739178755583
Mg 8.990031868918237 10.217431391748383 13.205842746586097
Mg 8.075825764908245 7.914911945048605 8.441629801149421
Mg 7.686355723727414 11.525149837404271 8.829009112760696
Mg 10.730102877837687 12.376613339214783 8.944136045402404
Mg 9.607645612931828 5.445240732740967 7.506751163608624
Mg 12.94199733960189 7.52743027014467 12.190353624991996
Mg 11.520286639508424 9.127190082702265 14.570304775726784
Mg 11.219212051276227 6.599527614911082 9.862483089262337
Mg 12.560054512996995 10.76150221133514 7.206784972693528
Mg 14.134350095232868 12.81710845824461 12.662438435977787
Mg 13.189562970286593 8.929533108750515 9.51310545197467
Mg 5.46312453230471 6.549047225044748 9.853830264257896
Mg 8.56449253036167 7.992668848986931 5.425949327139353
Mg 11.065476290674395 8.15079869727186 7.280624991975259
Mg 6.570435796311704 10.050169276590369 6.436224643023146
Mg 5.550099709818444 7.256262361537177 6.889528629180929
Mg 6.7497372703359515 4.590076873620266 8.1559802133367
Mg 8.391239391386566 5.555670658927805 10.526494787607733
Mg 9.547217034203616 10.665506570824533 6.564684686992646
Mg 9.119983525653298 12.670411525153794 11.574002733080572
Mg 7.446133336629121 5.268572568635774 5.402204958665441
Mg 9.95956689347932 7.391693679351186 12.544361411499843
Mg 9.888759504174214 9.564252065075923 10.00453167035151
Mg 13.792850082326444 11.031687303427962 14.94114282715201
Mg 13.689115557837903 11.970464422895684 9.703125426404736
Mg 7.290778392970948 8.30461851639695 11.47189795962694
