33
Energy = -29.73484693 eV
Mg 6.252153150265252 5.505262414030016 11.359559956003887
Mg 5.060827866969038 8.458311438033343 2.878118413316083
Mg 6.086850122451218 10.19630521763279 8.545002768573605
Mg 7.109192107878231 3.1483790522031474 9.664252302870873
Mg 4.764874145614678 6.875544747669085 5.315536594484049
Mg 4.367259635484791 3.1061413341143056 8.29134336431347
Mg 2.7645067437084787 5.376485454084346 6.958250740409246
Mg 3.966478895356674 8.018527784693623 7.890531443845609
Mg 3.0967385412764394 10.420468363105062 9.560346420905065
Mg 4.4565304390929965 3.686300865445449 5.216761417795455
Mg 8.873070380891384 4.699781724963104 2.6104969362543655
Mg 9.201826796879956 10.034849233342642 8.121590380103857
Mg 7.1973901068012385 5.205557521125837 5.230264445171621
Mg 6.7210944957518715 2.644084333511167 3.4692668091300916
Mg 9.091777633095642 5.3409625944698265 10.318845916474451
Mg 7.2999391134415905 8.068644865550132 6.478295981351322
Mg 3.9030292448724353 3.335558771790905 2.2467597116491134
Mg 10.064546745287586 7.194106994755041 7.9037681376385525
Mg 5.884123949059324 5.563384991925276 2.4832409790642505
Mg 7.6240818853479935 7.868803832936599 9.672455885652935
Mg 9.802005069246249 9.303527002962875 5.266611586156761
Mg 2.8404477763966844 5.82868205631976 3.394794094272406
Mg 7.3175006993299085 10.365180706550651 3.6320217113274245
Mg 9.138545091197951 4.370389963471977 7.511574253212608
Mg 7.584455636267396 11.57648743265575 6.251039595716218
Mg 9.407625496813218 2.89900147870516 4.8986880136925075
Mg 6.895908762583469 2.4503703325774726 6.643799314387963
Mg 10.123668521838555 6.064902648808555 5.076327542375131
Mg 8.090906238677135 7.5508003103674035 3.2663393558681575
Mg 4.875682877601539 8.144088520596927 10.776050814235605
Mg 4.949179138792076 10.023789324280898 5.670983880116105
Mg 6.137164493605454 5.667891179779863 8.02277188043914
Mg 3.602178609931941 5.5589879193492315 9.925869765000307
