31
Energy = -26.90527591 eV
Mg 8.751942171321687 6.90212086790979 7.417243419535141
Mg 2.7639507378134165 5.731223872292112 9.213119284536681
Mg 4.226612743091827 4.609899009293317 3.367110668076089
Mg 9.148915062568681 4.856213274735661 2.985570555122417
Mg 5.355821682094979 5.609127565319336 10.795524381064467
Mg 8.375965993733486 9.889995206111443 7.905564856464649
Mg 8.647137373651388 2.4761127293460437 4.969713442320399
Mg 5.485837338392331 2.812814768651236 5.647910163146754
Mg 10.61760664434095 10.947020963469043 9.673716843645513
Mg 5.3327625996894685 9.834929455636562 8.04280445837116
Mg 7.689195728472122 4.045877241963849 7.504863014958697
Mg 4.2832813577974695 7.386820151601416 4.823539653964955
Mg 6.982287393226901 2.9628705439558756 10.460689993575237
Mg 3.891917884484027 8.240273290894653 10.167338603139097
Mg 10.037646187527494 8.040757777143304 10.031466447528596
Mg 6.944700329899523 8.275737730886895 10.101808553193315
Mg 6.850082827329073 5.583337142676824 4.94191404873263
Mg 3.336657321897013 4.962359689856119 6.259721749579171
Mg 5.680508052445024 6.589013938918108 7.671553801550793
Mg 2.789914725615986 8.162294334163915 7.365841203572563
Mg 7.458148322140907 7.792185372953063 2.6157787327016915
Mg 5.323324168067352 9.901784289041622 3.1876330941702835
Mg 6.57603045247751 5.210430767550184 1.4603387076158623
Mg 4.518400681331048 7.281452155330299 1.845345258624358
Mg 8.383843494894228 5.554262140493391 10.175222806438189
Mg 4.755647216195704 3.581781988497666 8.477028422789921
Mg 6.951773788571709 8.680090450571058 5.565930417756537
Mg 10.268241115388655 4.786547543480827 5.790740319772237
Mg 3.684130986327622 10.63119828381307 5.559376713198207
Mg 6.702973966829866 2.6801909748344106 2.866032407547807
Mg 9.684741652382275 7.481276478608013 4.609557977305986
