35
Energy = -31.85818642 eV
Mg 3.584711446765216 4.848747093083289 8.542345785462775
Mg 10.250779661662273 12.523272360570507 13.60456937544683
Mg 3.6655361011366105 9.587600372615169 9.958660992702255
Mg 9.822020993461384 8.160694023248206 6.922813765151736
Mg 13.32529875795524 8.425160160442328 12.731758263735545
Mg 10.556610827563334 9.436054311035761 13.478562016202789
Mg 8.457691726383537 5.468882752377362 7.295727282291007
Mg 6.434651314854805 4.462961628871285 9.404270931693501
Mg 13.32761319442809 9.680752054134556 10.054103898308853
Mg 5.595481861796404 11.874330807449613 10.748847281234418
Mg 7.010350064591298 13.172233915356495 8.427797939527675
Mg 11.363702627391563 5.438382773837379 8.006063808182722
Mg 12.979076290326896 6.473877739708903 10.336695822429366
Mg 4.250784429871292 7.718803517245071 7.68888056604687
Mg 9.329608206836184 5.3387405214340635 10.30897045234561
Mg 8.481629213322842 11.005303004526732 6.745381068313153
Mg 8.00823831370919 10.266616149280667 9.711777817751408
Mg 5.716650617265028 9.096622419671013 11.93278618072235
Mg 5.593786073038822 10.523654001003443 7.8516591470839145
Mg 11.336404246264893 14.140844565686619 11.399295785830617
Mg 6.911023138319008 8.180418279211585 6.232071394951711
Mg 9.957188414489599 13.214130826866798 8.60278551233069
Mg 5.6028500557631435 5.34375977580812 6.464978334563131
Mg 8.275068021433537 13.434401955805088 11.210299062286802
Mg 11.069336797781512 6.516883847784234 12.622847038188022
Mg 7.135404103376746 7.490081232497093 9.30514459285559
Mg 12.925848706453335 12.645320587500999 9.479373488840368
Mg 12.814713916615203 7.976972750079888 7.662153316168689
Mg 11.274116202316623 10.591225054926365 7.82451286644027
Mg 8.299940256567885 7.732945392574155 12.214735499945638
Mg 10.37259934106261 8.23519344515203 9.964306518359137
Mg 10.534353663608446 11.118522923062327 10.866197877633338
Mg 7.927030732718985 10.795419366099603 12.80838185447172
Mg 12.997036984461245 11.540872980255573 12.516691487367694
Mg 4.5356660224821885 6.6233090547918145 10.724055607030433
