39
Energy = -37.11149014 eV
Mg 5.103536489917416 2.968264908678796 2.4075340701772783
Mg 7.997622052496905 3.491903161890292 2.0134423608565357
Mg 5.930759491572303 5.796164409314336 2.077157506857291
Mg 3.5232050683614884 5.305514826444424 3.93002227170023
Mg 7.2640670595265 2.04708924102174 4.578576012395681
Mg 6.552487518129166 10.107761999700493 4.73085827317085
Mg 7.899208172507383 7.465362584175524 3.7558147429696014
Mg 6.488950990793072 4.929816603937672 5.130485201914165
Mg 4.151093129642995 2.3321299557372415 5.032257011383114
Mg 9.527847889512465 4.620372972362068 4.2220922786923705
Mg 4.6568904452715 8.110615846439 3.396272661892173
Mg 8.250140614782174 12.076990127850536 6.356460367658061
Mg 9.50910918515126 9.429392677876285 5.601651108941912
Mg 2.5719802523865343 7.363985374845899 6.1089664758389635
Mg 5.333620082872943 11.865395964088245 7.129463472357666
Mg 6.062846042036333 2.6188878290097715 7.358604236218523
Mg 3.594631681086987 10.1679139770824 5.321836259683799
Mg 5.564815512580213 7.518152337856731 6.252689133339079
Mg 11.087302332834367 7.148434365116788 4.529406668843592
Mg 3.831801944092805 4.772761440737229 6.857163523487199
Mg 8.66446183311412 6.666691551184502 6.565422434453649
Mg 11.570870917378071 5.018361366591358 6.523153528247843
Mg 7.139153841192709 9.467702486529634 7.785844736800537
Mg 4.2294473138067 3.5360325507651997 9.626896996342694
Mg 8.800431982014196 3.6055789733813857 7.043185171838773
Mg 3.8709838806912926 9.295932170847848 8.219077873386603
Mg 11.538881389545145 7.881145814711554 7.456553729040948
Mg 7.719661926155187 12.635816467398952 9.176468060782987
Mg 10.051131068684581 10.677192936159424 8.41722774503642
Mg 3.483409490902624 6.514942544126687 9.295912210037724
Mg 6.5882326335835595 5.643821027408961 8.373694027518297
Mg 5.348526090941047 11.11752550346029 10.13120532724608
Mg 9.09735101668844 7.869508443846186 9.329584030369114
Mg 7.453326147636015 3.337457493761115 10.096087769697112
Mg 10.144840516901995 5.101940043755005 9.209428733618457
Mg 6.001911695989675 8.00056198274119 10.228466880832192
Mg 5.272018046614204 5.24824419275405 11.608732465303934
Mg 8.134919315717186 10.249042295249827 10.911656042194188
Mg 8.147243737284589 5.948857999256771 11.353404475249947
