30
Energy = -25.6052738 eV
Mg 14.637753970035588 4.832794628597702 5.776359422749523
Mg 8.71482812896235 9.421491903704442 5.211349794343247
Mg 11.316886928932451 8.130415698118743 4.322509878821131
Mg 6.3686804541524955 7.468223568313708 5.609511603324105
Mg 9.091574512538253 11.438052805908239 7.605317057981444
Mg 10.166339888652058 10.361591512502434 12.608075216291379
Mg 4.956668057200763 7.758519259326703 11.462228550999917
Mg 6.606476541648032 12.751550177193659 8.499453295612808
Mg 10.87799416345566 10.275265341441628 9.706441638417786
Mg 7.42284937506661 6.392245224155655 10.598478800689817
Mg 8.977947000983184 12.57386482534041 10.562137639319738
Mg 9.970307541218732 5.27691990848315 9.461422976952553
Mg 7.731648095018179 11.616139756926438 13.362748357413043
Mg 12.178821244175724 7.609080657913573 9.089178886306478
Mg 7.635717947696136 9.789765933263995 10.231584850195892
Mg 7.3708520458550915 5.361787043162902 7.619252991808277
Mg 10.032597131254644 7.715320347340611 11.225651687749046
Mg 11.457648324143255 9.771190441036937 6.7957175499928795
Mg 7.606026358256789 8.425298904762403 13.024949460181519
Mg 5.137845667916449 10.33583512859371 12.769582824953135
Mg 9.927997406769283 3.93620227991305 6.810676475649688
Mg 4.728965419539957 10.378253860347096 9.601724787002727
Mg 5.594416693773635 7.664341350954878 8.549214683042338
Mg 8.962575220398588 6.314245078524082 5.113268164346529
Mg 5.947815661760953 12.781132283409661 11.318823775869703
Mg 6.411816768601823 10.131757419922153 7.085388288416646
Mg 12.543460011315323 4.841620314292402 7.932197627017828
Mg 8.904292513825995 8.129316727878802 8.139828037231416
Mg 13.432590275011735 7.52631138912858 6.341345004757695
Mg 11.846342213696195 5.167539692780494 4.790413990367279
