30
Energy = -25.96167397 eV
Mg 6.727728696961441 5.395623118283022 1.4785554134023977
Mg 9.381651870467216 4.852928382673045 2.7754083129455016
Mg 7.50967574589338 6.951969344008472 4.020515684514068
Mg 4.657972147819768 6.942136847884214 2.998438598915733
Mg 4.224989526046711 3.9214761283470065 2.391324115389105
Mg 6.895135244500769 3.107105653469534 3.445573419024828
Mg 6.020716179406006 9.540893116185458 4.583096158211952
Mg 8.699996469431314 4.159427327286383 5.640601751381108
Mg 2.549262295519651 5.182701518241695 4.410302606257638
Mg 3.7764669244077056 7.6654763536602095 5.759980687001193
Mg 10.249758939894397 6.888155378937798 5.178168868652875
Mg 5.735711579523375 5.060150457760605 5.541228766730376
Mg 3.9578399942447375 2.576220758785677 5.140160403012199
Mg 9.039067437511177 9.716850308209224 4.763887277947897
Mg 6.759731406422508 1.7368498304433888 6.059015500506879
Mg 6.812923539566775 7.75176090546451 6.924252358295678
Mg 3.204466898888647 4.945438073035027 7.272389583861836
Mg 10.143025604973785 8.968295311658327 7.348745066236892
Mg 7.5967099605742545 10.707178508529362 7.236505512495682
Mg 4.779200996415804 2.4731932237603265 8.045378878986277
Mg 4.5894552952761885 10.342655369612013 7.038791604818089
Mg 9.19391224423997 6.044584153742776 7.970459961642509
Mg 7.79751660985839 3.258830664031517 8.474501211516351
Mg 5.860372161094835 5.471788362596094 8.628770436958327
Mg 3.98422189565311 7.864703745630693 8.73275238459179
Mg 8.238982225338622 8.44667239159124 9.570634085088171
Mg 5.762484225451932 10.19630149814335 9.689701692493466
Mg 8.118298177641751 5.552371217605895 10.749516944447985
Mg 5.814923187955301 7.432950756171607 11.053852259652652
Mg 6.915618538279591 11.843127313510658 12.075306474278339
