30
Energy = -26.04268242 eV
Mg 5.508075242892153 6.228327528980571 3.3527006225674323
Mg 7.203035939641202 8.833427455470156 3.1043876194427664
Mg 2.602319510635627 6.804757053375702 3.6482201333756334
Mg 8.615526883283863 6.199760856967612 3.641541114807223
Mg 3.58601523650395 3.8432540467120067 4.234450937887827
Mg 9.541576317769417 3.969837916054013 5.38605969749707
Mg 6.862295228183482 7.189008386588784 5.995468193772671
Mg 6.649308738236543 3.8722258607508664 4.704683848921345
Mg 11.521864843146812 6.220060038590534 4.934006375110394
Mg 9.4847325967848 8.899922109768376 5.1476346352519045
Mg 12.662887918120019 8.872192132213288 5.513685344322474
Mg 0.9723509079607306 5.089132493410661 5.34099954251073
Mg 6.8210607694650385 10.511950410067842 5.579923587726775
Mg 4.449198843595013 8.835230734189812 4.749235314327748
Mg 2.3428757097577964 7.7084443850119815 6.648266735041851
Mg 2.178417068082584 2.742788905492941 6.713723900135489
Mg 4.470569144020272 5.51095416612755 6.628416459817577
Mg 5.087831408600539 2.551102304709879 7.256918615632917
Mg 7.469879609133829 4.430634012207188 7.527947861874568
Mg 5.060753217690684 9.017460180859436 7.767121326178243
Mg 11.075420810437754 9.862628378172454 7.84447505495487
Mg 9.507565542762666 6.605211212315702 7.197969499057802
Mg 12.42868935279144 7.139254125609741 7.898595009543955
Mg 1.3732186285702417 5.343767997496363 8.256443331151857
Mg 6.900770214235671 7.008633737522073 9.175646211652248
Mg 8.098659841599842 9.549552885294577 8.036447844404805
Mg 3.0579229409371464 3.249116085804065 9.535204967953028
Mg 5.726031084182899 4.360254236763009 9.92737230044343
Mg 9.954252594362258 7.885823883304018 9.904293405979965
Mg 3.833611438286969 6.712004061840733 9.394878090326824
