32
Energy = -29.60657802 eV
Mg 8.56375818613975 7.564487136334751 2.4429290213714947
Mg 5.350353398738435 5.84636826486903 5.23315447702968
Mg 7.247218563707372 10.065065050716528 3.500511767785133
Mg 4.837598860864259 2.956908451356373 3.8052779969820185
Mg 6.210179879337878 7.809381985006001 7.77724137169316
Mg 9.103605077972437 6.462232510822525 9.364311911815793
Mg 9.591067709841397 9.866773254581956 5.41248396724238
Mg 7.634030041668212 3.116846844304422 5.029059105480747
Mg 4.282402276000848 7.990649020373457 9.932905107482705
Mg 2.7304753929490797 7.349630035826421 3.9152364859775663
Mg 6.9504131668757765 4.96644132813928 2.651636789504062
Mg 7.91487930781264 1.8082501759552199 7.734386201477054
Mg 4.889558503013289 9.075540984057628 5.06867048226866
Mg 3.7593353492422175 5.19046468681368 2.306999419794284
Mg 2.7636062059792637 4.545643329857025 5.472704731020668
Mg 4.01896156085407 10.26754258519765 7.6669432735174965
Mg 9.517982231208526 5.3436155547718736 4.408594013262771
Mg 8.670775083903067 3.538221582023633 9.9933745877328
Mg 3.0508549282296054 7.440660321290445 6.958988482679884
Mg 8.899683984521777 9.38107638852111 8.362279988763678
Mg 5.781158104940832 2.802637636147863 9.60916150090955
Mg 5.072266997661533 2.724207584749635 6.711839792093264
Mg 6.2119764457755595 10.736229481015382 9.47397569236283
Mg 9.972925024702477 4.051944342746301 7.242062210805701
Mg 6.893116413503352 10.843999546018697 6.523321567945324
Mg 7.149341823007626 5.00379209404701 7.449289573777665
Mg 6.335383065048077 5.607389026065683 10.459858875481144
Mg 10.324276582371374 7.141869179715227 6.726328044965722
Mg 7.230249606582218 8.375011536281662 10.818221884797314
Mg 7.688808031388423 7.555005133897971 5.311843178583147
Mg 5.48515720069131 7.678895708793014 2.4407862204386954
Mg 4.083268326379356 5.107886570615363 8.410289605870116
