34
Energy = -30.55964194 eV
Mg 4.065423850965828 2.659800117248144 6.806151833871655
Mg 8.076191995246026 7.125418905029148 2.3898943270401216
Mg 7.123548087709049 4.223887855109591 10.428497040325778
Mg 7.71177995272911 2.471391789587233 3.0638613281926594
Mg 6.419743378552055 1.779616774420028 8.773249721673476
Mg 7.255761148113601 10.68985632926071 8.9972029785116
Mg 4.88099307852676 6.838358649651721 2.9299610621933754
Mg 5.7070768621023085 5.101196796024205 7.774913469916706
Mg 9.672229046705434 9.497346476767223 3.6389893465457437
Mg 6.870008023293544 5.781778949952207 4.995659371292458
Mg 8.547396014760468 10.51602388576522 6.269905688956907
Mg 4.714486557232725 9.1289368496212 9.893794161824731
Mg 6.685299862625519 9.098690655380532 4.2357070590597585
Mg 4.6179409130585025 12.048431721762354 9.352911218707225
Mg 9.224378058817242 7.5717098819615805 5.773541534944147
Mg 3.2721836195095237 7.450840245860282 7.8748902342626215
Mg 4.465411353782161 6.110791337044964 10.411250285017136
Mg 6.526802387915663 4.706133584341087 1.481474857631935
Mg 8.701950856239298 5.811781500765544 8.10156703907665
Mg 2.832356206103123 10.390839927141178 7.648753513275094
Mg 3.608957956062844 5.6794363156077585 5.49232726364433
Mg 9.401003134144993 8.685665832798728 8.583227977559766
Mg 9.559773734119322 4.429285475856585 2.1005421969924454
Mg 4.906757874244601 3.5304984067153504 3.8325051512085393
Mg 4.2550407513025466 3.1689599445348224 9.989972052446843
Mg 6.318808470018771 8.019305483990651 7.197767742657921
Mg 10.89156055566229 6.669549512836153 3.4385600586869023
Mg 9.61493912673317 4.299959902055534 5.2398855372225
Mg 5.5483082685704534 10.971308398684322 6.451867600926568
Mg 9.076905169089809 2.9185474616735796 8.132448601330921
Mg 7.238558363556694 7.3572228250860325 10.261124231161748
Mg 2.4199963400401554 4.691693701190539 8.284015683723526
Mg 3.771956851804087 8.744386493945097 5.129062174480614
Mg 6.955720110579804 2.7705959722465163 5.963765615553921
