38
Energy = -35.64763021 eV
Mg 5.885818174917892 8.680427615334121 10.162844607700109
Mg 8.968672009551486 7.837517780396487 10.766367574450744
Mg 5.496546011744806 10.478401422883406 7.518499917690149
Mg 6.684945007544647 6.276583966124406 12.02265469542403
Mg 8.011905263566351 9.0313409880672 8.20722019606387
Mg 2.7852299232309687 11.374298976251968 6.499983842117142
Mg 5.180692373131514 12.124031675263701 4.89451480883619
Mg 3.107171151603063 9.03397354864746 8.71684615041391
Mg 4.266455517749428 6.231666385544769 10.214650891019247
Mg 10.680171685752683 9.254028666848223 7.034717838612225
Mg 10.225497644559978 6.424595940801379 8.308714816487193
Mg 8.12985477131886 10.48806886528867 5.52909122372015
Mg 9.170426192534249 4.867146794401588 11.074817889543494
Mg 5.302532855160952 7.257110417493749 7.153847279369844
Mg 7.285014837592462 5.974370049026568 8.74260748511798
Mg 6.454388871432941 3.5667758288821942 10.411325839684752
Mg 5.549965155386778 9.010331251014222 4.750152828001655
Mg 3.0284329467595885 10.560443905882085 3.5454104521140555
Mg 8.195491933152175 7.260027987101826 5.843955277451582
Mg 10.582669229763571 9.246304253940771 4.032404647528869
Mg 8.930947598797468 3.29632577690033 8.52604035944747
Mg 2.569399839083852 8.390907195981917 5.722198060210956
Mg 4.569041691378931 4.196347747969828 8.12491387711984
Mg 11.596247968901292 6.906842481267669 5.554818442438507
Mg 2.3910527861063935 6.193886057762303 7.80661987981252
Mg 7.924814971826201 8.82544750010491 2.940917246654472
Mg 3.612823270979783 7.5778531971128595 2.9292574736860146
Mg 9.601669416501268 6.274861076662503 3.298308573810168
Mg 6.7347138578036425 4.451399375158683 6.051954353078259
Mg 9.824013447656313 4.533785275479559 5.863849411029989
Mg 3.777665449488555 5.484288693058643 5.156619914314384
Mg 6.39227120424742 1.7998309072068515 7.688869682553825
Mg 6.437389842370908 6.236428975141769 3.545304350754037
Mg 4.033226002740626 2.47394402883627 5.761566806890744
Mg 8.918305320373905 1.602244805579048 6.006892676895006
Mg 8.179110795769791 3.5101652545730215 3.50460103749899
Mg 5.129975640032887 3.550941078385014 3.2419681459309153
Mg 6.438776146868714 1.1830748232065538 4.588909959743434
