39
Energy = -36.97382214 eV
Mg 7.675943087464649 2.5840641650117244 4.72564639350788
Mg 5.410492179553238 7.578588175862489 2.7706405784988717
Mg 0.40468486706720114 6.583487187382477 4.72115860517588
Mg 7.846529320849244 10.653336787266666 6.149168083612535
Mg 8.528458796552801 5.167010779891396 8.651132242405957
Mg 2.653421939206932 2.804553481372942 4.285504589467813
Mg 10.977231130368546 3.755622492294362 5.687306567543678
Mg 3.148139863692869 10.554147068229073 6.480984498395068
Mg 5.192286781417765 1.9848666330244575 2.76559347048734
Mg 5.382282259878691 10.172331317266043 4.541974939294569
Mg 3.1889849742066203 7.757141992039987 7.902490457664177
Mg 7.734127917720289 3.0213018704067696 1.5794990207659265
Mg 5.5645503513133345 7.395229395076136 5.929083187398227
Mg 2.4493042223096886 2.903092772843172 7.326546392045626
Mg 2.8221395639754134 5.954075694054788 2.653004382015735
Mg 5.883572760406857 6.897743426575814 9.245074789720046
Mg 10.228618170155853 3.742671750806073 6.398080085966703
Mg 8.027033097565008 8.391639281513298 4.191784658063566
Mg 10.977231130368546 6.482072241180044 7.368185915912303
Mg 5.607752568330345 4.580963145501704 7.192786030360774
Mg 3.1169930775773254 5.54218959642097 5.766037361623901
Mg 8.015067218228193 5.608449429370563 5.574364263150485
Mg 5.606063572624477 9.69102496983024 7.948525999120167
Mg 5.031217839595906 1.811746488011524 5.91504232449736
Mg 2.8677905375606354 8.429097025678704 4.4746691238407745
Mg 0.8586166204983415 5.699500803544015 7.7813742105171295
Mg 8.209144681677813 8.016450233929074 7.684833794230269
Mg 5.4633696921474995 4.684058914624961 4.118336104675086
Mg 7.587922237224483 2.3723799359775035 7.804863790144346
Mg 10.51262176512597 9.045735265172231 5.899921946376981
Mg 5.396070616861749 4.824097268517006 1.0612438321211988
Mg 8.010978823192772 5.874582374087857 2.4292898796346156
Mg 3.476913229180903 4.984158916778021 9.38301492099874
Mg 2.856056539554718 3.2727205595762925 1.2764162784645676
Mg 0.32288363162113526 4.216050140014758 2.77149371013536
Mg 10.07572232460998 3.8279890534059837 3.312059432966917
Mg 10.724574402012573 6.480243937772148 4.351791536840824
Mg 6.3182865004998074 4.045630432043959 10.292026879416643
Mg 4.740887521643264 1.9843328585083757 8.994286960321602
