39
Energy = -35.4737319 eV
Mg 10.550879792721842 10.917650069441606 8.593850630666365
Mg 12.637776872256989 8.861749293857587 8.057384861717926
Mg 12.634405112551683 6.910985523613677 5.616730996302972
Mg 12.172444303945548 5.277712894756749 2.942398192054302
Mg 8.79410676784775 11.580742051428063 6.194430383927263
Mg 9.8961576700256 6.937024236998063 4.0916118196468085
Mg 8.025165851041493 9.444576953950868 3.9983145729018146
Mg 8.932007874343737 8.407327080998101 9.32543645262879
Mg 10.945390224445084 6.220110205989871 8.078632354088827
Mg 7.496706785041944 11.314050887990811 8.874643143563324
Mg 10.08446142758361 8.860396304810223 6.34915990074228
Mg 10.795173045460729 4.370587911944293 5.525088858745848
Mg 5.859794658583778 12.01515606447654 6.275243938095657
Mg 9.235594340393925 4.23056104548336 2.764278257155186
Mg 8.618824910851616 5.356812711249459 10.03752403425486
Mg 6.9274107605105355 9.09042753897563 6.725853551810294
Mg 6.988876744908912 6.396674729186286 3.842303974746314
Mg 8.221453966471547 6.328227826181151 6.755461544146766
Mg 9.560106850133192 3.379018990625059 8.035977601942683
Mg 7.707158098323728 7.201815149819797 12.12645197447626
Mg 5.104526569931759 8.774135967195171 3.525411631867262
Mg 6.569529811143185 4.156480149192687 8.15454277801864
Mg 6.277727906217563 9.518309019308226 10.993187375401792
Mg 6.177500626114974 7.13568829870499 9.014438184156647
Mg 4.647453151537185 9.987651497878263 8.503887527322805
Mg 7.884921926927903 3.541671366453453 5.426970830497687
Mg 3.6635758764097655 10.178160174979125 5.691445635649005
Mg 6.226454761691198 3.564403338255243 2.9596202105448213
Mg 5.0449917643358715 6.866778094753741 6.155218725931281
Mg 4.886107212762257 7.622087702996265 13.068364097483279
Mg 5.584410655469526 5.178938598022242 11.290251616715912
Mg 3.5496558236455473 7.6881473652145065 10.438131769850374
Mg 2.2712577193516674 7.929209461927936 4.334107665147674
Mg 4.659421986132063 2.690945321966718 9.98389302929956
Mg 2.531839304599002 7.972057824036677 7.503774311460554
Mg 3.957643557726095 5.591951251700428 3.3950835689648513
Mg 3.6958654751296454 5.232024431867966 8.505002508383098
Mg 4.787958185450655 3.776278989695051 5.717309722933231
Mg 2.188060400465329 5.408589723667238 5.79576773589269
