34
Energy = -31.78178827 eV
Mg 9.481862571593899 10.96873741068938 7.506546774244865
Mg 7.462550703929143 9.689797285268101 9.324752962994257
Mg 11.822323965432002 9.041358658885148 7.837200331120273
Mg 8.08165455736615 11.63726763475171 4.765875581382481
Mg 7.376288378429499 8.246829724666355 11.99817408970034
Mg 11.787450825707149 6.065342365673508 8.383425101186722
Mg 4.639047993739956 9.909790383025522 8.041092924799775
Mg 9.611189302838472 7.341563055029567 10.244183027770704
Mg 6.817480651449028 8.780906041694307 6.228644688124779
Mg 10.059854165769224 9.384366925358377 5.0235301369160785
Mg 6.661510990426684 11.926085457647899 7.322978807727809
Mg 7.362575677861934 5.268456284353356 11.172239211880745
Mg 5.193833683772372 6.540781056122403 12.936784032882445
Mg 9.23695617453625 7.5895075856933225 7.348971295186535
Mg 6.377477131750775 6.918375474785974 8.722472679325946
Mg 12.063724653066577 7.031696871741372 5.575196371089634
Mg 4.675544590278795 8.580857892032492 10.761037018390054
Mg 9.16062412590963 4.631216576384473 8.786777083146468
Mg 8.327293468977631 2.459469277468004 6.688794544003039
Mg 5.150464221147059 10.96777528047876 4.729018135020247
Mg 10.54273020841086 4.413777934043985 6.022120629953392
Mg 6.311045155312481 3.6936204206061714 8.666911211773037
Mg 3.202835955817083 7.3337572127948585 8.37499103375983
Mg 7.492773769298515 5.531869277211134 6.342699742665393
Mg 4.32074493488121 5.280392828987982 10.393085133954342
Mg 3.005608478837503 9.097868379762206 5.718896470816179
Mg 7.466196761937053 8.975830847258619 3.325073948023354
Mg 5.588333286082683 3.4354390115504683 5.533412691962514
Mg 4.522123351204626 8.36721332705722 3.30049191672988
Mg 9.346604990033715 6.58726947875103 4.17080936030691
Mg 3.5572973034002757 4.327703796004672 7.6100855657534465
Mg 6.459230158340355 6.015374103454422 3.439819799014545
Mg 4.688448101594082 6.56021738672034 5.8755649253241815
Mg 8.353133753592672 3.5995813879857113 3.989915753765169
