30
Energy = -26.27594817 eV
Mg 5.287308348405213 5.024161048213202 2.865070106067963
Mg 6.9965581659365075 7.550378317256313 3.4003516148247175
Mg 7.809078443910848 5.259861753712486 5.866085518259543
Mg 6.704605644184089 2.5934536831171746 4.454793053066114
Mg 3.7990618325748016 2.4337201407823588 3.9049087225498784
Mg 2.2984416383687285 5.078364023439732 3.923347098143214
Mg 4.1081246435395276 7.700787249862701 3.9609169772298256
Mg 8.690315150878712 9.792775601897853 4.774128897441939
Mg 9.879839698833734 7.086921594061721 4.033561729557453
Mg 8.298672037653088 4.735678714964526 2.971640256882477
Mg 9.65632491201873 2.7504686364755284 5.181720065781753
Mg 7.670782354845655 1.525426222357785 7.171273689044591
Mg 4.7372647205993825 1.9302856953120024 6.84159939213393
Mg 3.322986737411263 4.445948160930298 8.440139212826477
Mg 1.9664749527061096 2.7808837039445296 6.163588197192892
Mg 0.8776452689651137 5.441154807937008 6.728889596374157
Mg 1.213595239723166 7.755110145227606 4.863958101504798
Mg 2.9780783750574535 10.070075421850394 5.606069785079127
Mg 5.8501504322192295 10.425648111701566 5.00184935879824
Mg 6.159551804977619 7.636923273744455 6.414536870002879
Mg 4.749513929607284 4.985766864237046 5.851102229058275
Mg 8.09925440261682 6.609827699706957 8.667139762282071
Mg 4.846693143409223 9.940522913946948 7.953723293980464
Mg 7.814974327441397 9.911161477585546 7.730509142373458
Mg 10.036960013382457 8.015493439013996 6.867130141209339
Mg 11.040813866149396 5.263881693469185 6.116210760478371
Mg 9.39781559817144 3.7876799520911835 8.155227670063304
Mg 6.3556778294707295 4.085498345185396 8.425372815184414
Mg 5.218253461668588 6.815650552645273 9.25060068014916
Mg 3.0549340675090986 7.486241797564976 7.334306304695205
