40
Energy = -37.87199167 eV
Mg 2.3996102434416526 4.920443796575929 7.636348551492534
Mg 4.517138135817291 3.5259389238242473 9.430084599299333
Mg 3.223294970089705 2.7164938206290845 5.839609364820987
Mg 3.6324007335077755 5.477497699825986 4.506381709717327
Mg 3.75115606177133 6.455625148958835 10.000255844444794
Mg 4.716064935939958 9.297759787676366 9.023287103417585
Mg 3.8505830636880223 7.420790761519373 6.857009204758845
Mg 4.6298079817185815 8.410033418413974 3.912286442600395
Mg 7.567053165963132 3.722708239147509 8.852315086810037
Mg 3.6457112364978213 10.314686993594734 6.146830298286873
Mg 5.843413279525923 1.9209947310029671 6.954090198565892
Mg 5.477869447699266 4.850152186392796 6.900929834703343
Mg 5.6566561648250655 3.220120382979444 4.017618099750226
Mg 5.991420266336811 5.817213938137411 2.0489084446521453
Mg 6.814435755195975 8.24479610712052 11.414749458858639
Mg 5.705920411928009 11.254552996250943 4.263008534778356
Mg 6.315397488481741 11.336751736065395 10.575269612384528
Mg 6.417387567942608 6.831284499385018 8.779180270946242
Mg 6.226695173761541 5.121186705854825 11.363911733700771
Mg 6.758443541865959 6.357161575366726 4.779290687165971
Mg 7.605767208702433 9.003261475967514 3.4309370024879318
Mg 8.306333011989649 3.955481429293076 2.738864873159541
Mg 8.698065676783092 6.4020431962782665 7.018810783788701
Mg 6.582380388630854 8.803696678567752 6.421073211354127
Mg 8.153662507150122 3.638863490113193 5.836831877545916
Mg 9.043147504971834 5.8610208224822165 10.195616513312688
Mg 5.981969714036864 11.640623891110437 7.528245572153931
Mg 10.010365363913975 8.218182697881836 11.642354506336458
Mg 8.754861721322277 10.846023240878004 11.96272691831932
Mg 8.337612042694468 9.240196091543345 8.778027207095276
Mg 9.568866508225293 6.59078675909145 3.594753388255824
Mg 9.797004689837786 8.7542553961446 5.622755941188617
Mg 10.835118618957218 4.064722389295321 4.648747753015285
Mg 8.885422032897047 12.303048143479334 9.155809960684904
Mg 8.362155605184062 11.277455306055122 5.763299070379364
Mg 10.571897320230295 4.298903933833666 7.801784752710969
Mg 11.212302596644232 10.542008541917077 10.305634814697834
Mg 11.087349299853226 7.757167717451736 8.666525088322297
Mg 10.929608526994771 10.839284434166064 7.449934563673417
Mg 11.758884652532025 6.4899746743495 5.9566862767698465
