47
Energy = -46.65223017 eV
Mg 4.928754184595003 4.8283108655254585 1.9010626346648238
Mg 8.006587935885369 9.175310965989233 1.688944180096468
Mg 5.247513785975928 7.83315873675685 1.9967718891392046
Mg 7.715810283176072 6.018343948951447 1.32289647560019
Mg 7.870761401701399 12.036575856000251 3.01871936131835
Mg 5.395865613656392 10.79446747252295 2.275503477410861
Mg 6.808286150146342 3.2268219102837756 3.5400295876358743
Mg 3.4530403650085066 6.1885024118584315 4.201092229061198
Mg 9.656940051038632 7.222648646634773 3.445033632641926
Mg 3.9683293966144495 9.209735774434542 4.492559084427791
Mg 3.762447540571821 2.9775200135476867 4.012542127806793
Mg 10.060913189468476 10.12532817209143 4.128577996928711
Mg 6.668767957794737 6.242072757501099 4.2038422050691375
Mg 7.164325632839315 9.209072638110605 4.564704073747821
Mg 6.088030394463991 1.5052218740884844 5.936500849200924
Mg 9.564323279690125 4.250711901569676 3.0384061348439206
Mg 8.549735319434616 12.065327667791585 5.8774222043897995
Mg 5.592558792465864 11.726696374004481 5.249616421842478
Mg 9.222453413566631 2.139314952636051 5.377324384856751
Mg 11.73635352339546 8.01825127767327 5.527534508104177
Mg 2.3622832031050085 7.610019168010998 6.681460415557749
Mg 10.801973382610871 5.152369235299518 5.633286651759274
Mg 4.9746919231577795 4.559292579000162 6.251980528578817
Mg 7.840725756626277 4.43513206765951 6.266866417526665
Mg 8.576812702480792 7.366031043832648 6.4910566035884205
Mg 3.201549244907356 1.8182289940109133 6.739286253136754
Mg 5.508615693810062 7.530797279151894 6.677464150239964
Mg 10.145006269917715 9.885029285902874 7.27238568720521
Mg 1.9090884350617685 4.585866273483035 6.680438773744154
Mg 3.939773210176797 10.13482335486013 7.449325821017157
Mg 8.102606320681318 1.6490297477968712 8.19403882155668
Mg 3.960736159850218 5.83036819119189 8.775003504895464
Mg 9.900034855922106 4.03289571177271 8.42710829846802
Mg 5.382967513941244 2.8253376205158633 8.740665089443272
Mg 7.009242329848118 5.740357783562905 8.736243646198199
Mg 10.99682762891119 6.8896249492404245 8.316448315414027
Mg 7.025615800769435 10.101983659485544 7.59543026159236
Mg 2.4120507705606142 8.452650986419915 9.56124374329122
Mg 2.3904418891697077 3.1516438139189145 9.30824000659346
Mg 8.54833082071824 8.314057708603478 9.57920221227436
Mg 5.4626378872350045 8.45476008168206 9.707630363772877
Mg 7.713985329738136 3.4342199565736573 10.69054127480655
Mg 1.3407860431126086 5.664153710955221 10.395512701848242
Mg 9.59156071970485 5.783630930955835 10.800296716819343
Mg 3.730564109783378 6.952379333047901 11.834587692237879
Mg 4.639273192762872 4.177493241337926 11.311829071746246
Mg 6.724012534466214 6.328421014273598 11.737335458417261
