40
Energy = -36.83780181 eV
Mg 11.581146433106014 3.651609794780704 5.29062185341553
Mg 10.900508764428714 4.074254321467016 8.22529714724388
Mg 9.438822144056818 4.658351261024268 10.936990414123452
Mg 9.28761056164047 2.2273646355311842 6.357272797312027
Mg 11.721934723539416 6.475911774982239 6.386538771281404
Mg 11.050899564890882 5.7081596836982875 3.317133499781954
Mg 7.822186967420871 3.7131297731213055 8.576282408204733
Mg 10.015283624136234 6.89402709230248 9.00742526647404
Mg 6.376427456941419 4.700089134209597 11.109498557628728
Mg 7.943707566286479 7.263260129597973 11.520727781163885
Mg 8.777438900422622 5.648409813074491 6.225367410400795
Mg 6.375823758380266 3.2842136551448675 5.844553180788415
Mg 8.893450218583267 3.6441712920841627 3.683092026402647
Mg 4.987315788817998 7.0345832402589465 12.374986227693208
Mg 10.619409406229128 9.31999658245388 7.285375148503888
Mg 10.05304907434405 8.26651781751 4.517178616485788
Mg 6.962329208214708 6.721632540712674 8.680590966276641
Mg 4.889090665944733 4.570363621169637 8.32476741253865
Mg 8.383310250113897 9.510053240654551 9.413547000672853
Mg 3.2896608785919077 5.22368956443514 10.785330195200737
Mg 2.785398535262507 8.075688297018942 10.54271745933032
Mg 8.061861617142767 6.563635548083152 3.1341179661634335
Mg 5.786796962039279 6.297071889655346 5.736162979957762
Mg 7.601700089024083 8.713617854320486 6.468411960903945
Mg 9.425030618997166 11.12354124838605 5.116109301098816
Mg 6.018760829362137 4.462992051403879 2.9849343844700695
Mg 2.1228850545118765 6.149144502507409 8.164222665592435
Mg 4.115089702640758 2.2355195238286862 3.853074800370345
Mg 3.2299489542577873 4.235304038322657 5.953773692883508
Mg 8.935287962238288 12.063303492380761 7.866321149393782
Mg 5.8558446092305125 10.872173362871006 8.047312904368557
Mg 5.613412986266604 9.254415031452686 10.570869768045966
Mg 7.302819635557072 9.528607861691924 3.5080127890818136
Mg 4.3963380404965084 8.117614174632537 7.888846231785918
Mg 6.655504467948918 13.9763180034985 7.890084051554912
Mg 2.8221243373914455 7.202906289332692 5.325093868894575
Mg 5.041962238352363 7.446920447008979 2.9999611882265675
Mg 4.814500354627441 9.545192503182887 5.258641357019633
Mg 3.0872887865560763 5.120087164679449 3.1144906369690157
Mg 6.650201964546755 11.971912290502907 5.3934610377788355
