48
Energy = -47.37790762 eV
Mg 10.813995380015546 9.63992384212784 4.386316792225067
Mg 12.219663324827224 7.067159987551246 5.456041628187714
Mg 8.136598632518886 10.041519926321605 3.0341708240617002
Mg 9.779076340322577 7.2186797899571875 3.0194112257892187
Mg 11.170285946245519 9.537446667068222 7.339049922260038
Mg 9.463606674647288 11.553444705934943 8.874960180939024
Mg 12.351907680590825 7.073550421947486 8.634083792041542
Mg 8.646239502178673 11.094333108843848 5.9248534462102445
Mg 10.67025885892205 9.182561952261945 10.36275946544084
Mg 7.027090456709385 7.392312030413553 1.7259801055643802
Mg 11.259309865283205 4.69458176471021 7.1461553885018
Mg 9.377905148391415 7.0320998022341366 6.097463817105648
Mg 10.143450064249068 4.451681669584069 4.36898844126704
Mg 5.669622137193444 11.152210182882959 5.2524455309304985
Mg 5.122577503176215 9.57893604894941 2.6906832576467377
Mg 11.098957411001734 6.1618912426223895 11.434506625621577
Mg 6.790349478855005 8.369344565639812 5.150718022793456
Mg 7.53586068167807 10.296277697431238 10.891171895462755
Mg 8.10030240916609 8.952283462769142 8.099942822858122
Mg 8.723783427372338 4.707511451425415 1.7355133275455017
Mg 6.444263404961699 11.510718380969669 8.20349173728758
Mg 9.838746100822169 3.62786876390355 9.520666487319406
Mg 9.39056627995513 6.572937529591565 9.134148691048575
Mg 8.748105846905572 7.853664793478711 12.255699738043932
Mg 8.095551288375493 4.9935268121522345 11.535882647163811
Mg 5.8605070981181155 4.507444178734917 1.5082110122799046
Mg 8.674028461048934 3.077862237826273 6.71571564006265
Mg 5.1969378286455585 8.557629815625049 7.669915209150615
Mg 4.146132679085361 6.716194868498328 2.8666346463907884
Mg 7.14712059453569 5.55689778850862 4.330120398663689
Mg 6.359500805748844 7.423919095437738 10.451324185070254
Mg 7.386951159517713 2.7075480827874063 3.872754574019231
Mg 4.4557815245797885 10.057593357920473 10.229762714131999
Mg 4.543323105668098 6.160375706815727 5.7433378515922735
Mg 6.840621021258036 3.1826752231445803 9.327487204366866
Mg 7.052640800495712 5.782922785627235 7.514274770524661
Mg 4.322338959363401 3.745464650409224 3.8852909959899913
Mg 3.572759125379217 11.056844315037722 7.4158630013341185
Mg 3.317868588420421 9.030435603212934 5.092870654119583
Mg 4.333814855243048 5.775188898217696 8.622220228197701
Mg 5.654521864634729 2.9908600816877637 6.5211570763790885
Mg 5.028228654980848 4.7659777215721535 11.325941352530233
Mg 3.2509062648774703 7.358237897749443 10.887526670314665
Mg 2.6501619520159645 3.7683256146401973 6.4576422485418705
Mg 1.5768905287923252 6.527066179158021 5.749457442266492
Mg 3.810660569406926 2.9211104537910586 9.085258142129566
Mg 2.2116636355581827 8.383311476506089 8.12142235171048
Mg 1.442445241654014 5.423542577070283 8.650917051531067
