45
Energy = -44.350608 eV
Mg 9.23171687939809 9.676606195501495 10.778309932519262
Mg 10.791661692403267 7.551869375065846 9.202854325970707
Mg 9.538334905437576 6.928005250229715 11.98112484239973
Mg 12.178108955307321 8.243134061688204 6.519446761093511
Mg 7.008657348207196 8.60623599903603 12.747189548564357
Mg 10.04264703018087 4.55078067743115 10.22586667193806
Mg 10.916318881136117 10.616399094780899 7.827783524918386
Mg 8.415994474249992 11.999796725290006 8.909725229828215
Mg 11.512775720203944 5.396283674828461 7.106819944226686
Mg 6.286904552547514 10.267999821853847 10.16917260781884
Mg 8.354797440905353 8.984720947051832 7.883872474827144
Mg 7.113250238776048 7.173992191337712 10.142148491798563
Mg 7.520899579321112 4.606492752841668 11.967169096220118
Mg 9.795658381948636 2.8870803421761844 7.662248308436043
Mg 5.0592193574422675 6.233536628716721 12.44336051282221
Mg 11.797497510296232 6.309593362151494 4.109721521243249
Mg 10.855230491030463 10.31784153229308 4.766089289864936
Mg 7.437173497435834 2.856230540622631 9.4755644133698
Mg 4.1266836649466905 8.943545088018404 11.647921466129713
Mg 8.56931970595817 5.793833646528681 7.851370420768472
Mg 8.565634150556996 11.899947926592194 5.950875516179389
Mg 5.8118726189181 11.324174829265548 7.398037637963562
Mg 10.254457929763399 8.452412307240978 2.4732160010741238
Mg 4.666197947726241 3.747922497166043 10.754578690604822
Mg 3.225482590442484 9.622176677948605 8.781425662982954
Mg 9.38804728994111 7.533778436900912 5.365797110210684
Mg 4.782295349172519 2.2495138553203304 8.070077903647803
Mg 9.444425145189742 4.415649382942466 5.039660158251804
Mg 8.25383942822988 10.691149147791473 3.0180610923525775
Mg 5.5977065398944825 5.221530564678154 8.309113932741713
Mg 7.037901537352181 3.1955131553270855 6.338053172676094
Mg 6.860377676627492 9.260754841453739 5.27000863386005
Mg 5.883465601537919 12.047051564846685 4.470413571946362
Mg 3.3178317289116377 6.687164499463483 9.905371983993119
Mg 9.407595955550823 5.594049980612094 2.328687167455238
Mg 6.644829584406854 6.324771811921968 5.718278583833564
Mg 5.52883871732719 8.18455347279768 7.8032679150350095
Mg 7.2272300582314415 7.59491449466755 2.5990676569810818
Mg 2.6566539170068637 4.285858032401814 8.249135919988534
Mg 6.657077566258188 4.633767026922655 3.3509702926873737
Mg 3.8293558719944643 9.71066739138751 5.583842879714079
Mg 4.255992837009255 4.336420665614159 5.578835713932412
Mg 5.159513652517034 9.759724972057434 2.7486381739375054
Mg 2.97460440211469 6.928678571322506 6.773863710299487
Mg 4.371620261875374 7.065107309346327 3.903762877208705
