40
Energy = -37.00673868 eV
Mg 12.960975747599091 7.8207306291231875 7.443410241225951
Mg 11.189085948467309 10.308731653145335 7.624341988596405
Mg 11.04344816960025 7.942980228247712 5.215590196181502
Mg 10.788598103496012 5.672854497390094 7.6782973874931315
Mg 10.943923034641792 8.178584664351659 9.652463207098718
Mg 10.171621916408151 11.152585510158914 10.474716797030542
Mg 8.278561471201552 8.257915661526818 3.6380156758291218
Mg 9.428301545648168 10.461886141614325 5.284293016229459
Mg 9.040959864808405 5.593453050741436 5.138473797941952
Mg 8.72543938198682 7.953056335788364 7.262879959748459
Mg 7.522352511090567 5.624035026644013 2.3832183030052922
Mg 8.190378152271435 10.94865500460608 8.114554785887185
Mg 10.482247456390835 3.088689315349192 6.014298482241271
Mg 8.79131525856984 3.0763117320402333 3.4986788963416737
Mg 9.056640313891913 5.943685450680063 10.247996212518066
Mg 4.611645689562494 10.58558302648494 3.39054542440393
Mg 8.080183691421718 8.855386479478305 10.532624093122726
Mg 6.498869859744078 9.79147498724192 5.691301404432008
Mg 5.301425401206301 7.805762015586914 2.712418291806843
Mg 7.318907887590887 11.821186267062384 11.07039930773469
Mg 4.6454779258907655 5.059957722570362 1.6321911380917495
Mg 9.093014156464786 3.1981301367912582 8.759926321423409
Mg 5.838026967126929 3.566537162320292 3.927712156758955
Mg 6.212436026288729 6.641713395231269 5.455245938906146
Mg 7.547020048930124 2.5007063484096994 6.198720845726604
Mg 6.988670897258046 5.401102775315177 8.06177391197239
Mg 6.1207109683299326 6.639851434609067 11.045737270085098
Mg 5.278907182324988 11.693957665432348 8.820980086355254
Mg 5.901331472810203 8.347253725890491 8.309288433342983
Mg 3.9002994568236775 11.452349368139801 6.21578891280736
Mg 3.6292928925184653 8.507076947782656 5.406004619796048
Mg 4.6694651550553665 3.7277495796194673 6.7214536880639635
Mg 3.526293401345263 5.561066230295384 4.471660139226628
Mg 7.110524087687863 3.800989149428732 11.074864189731304
Mg 6.15176545328881 2.1431183427398386 8.90397785595021
Mg 5.042482251169833 9.649116173641952 11.020472787350874
Mg 4.38390542824221 4.471085007063884 9.788012004727317
Mg 3.1432545231786353 9.565287329403327 8.45951936353387
Mg 3.6024799251740194 6.396833302203163 7.560015252595317
Mg 3.2576595460225484 7.289297625180087 10.47411473264419
