44
Energy = -40.06834088 eV
Mg 3.886130301734899 5.651828009962479 2.9842160287524506
Mg 1.7540004931902764 6.377711037133034 4.950833332886569
Mg 3.5152353767220252 11.141712284926426 5.924831592531844
Mg 1.3616905728752318 9.05342319384659 6.013035710713522
Mg 6.860285131363994 12.227417906898216 7.103338258579068
Mg 4.284500789026439 7.979478784280565 5.242152432724495
Mg 6.535817414263965 5.585036534384639 4.490801754909524
Mg 6.051349612704324 10.3094360787474 4.563683415273088
Mg 5.929906379304649 7.89789535963928 2.648337915976789
Mg 8.883141582160164 11.278926781117468 5.244861440455202
Mg 9.48249116532816 5.390141637642778 5.396573912835282
Mg 10.547574473765843 7.473475510001084 7.469291399269663
Mg 2.554900616283279 9.706627630981627 8.578812056694852
Mg 4.021153643530646 10.533175672714199 11.010958091841415
Mg 5.01160753889736 3.010980183533784 3.90812228538345
Mg 2.8494307234777296 6.799450605609671 7.812368475787473
Mg 3.9509959533778263 4.63444483499581 6.159835885115471
Mg 4.315388778855378 12.232943145366573 8.593730415793683
Mg 4.643478161407871 7.7463542878329115 9.891952959081218
Mg 5.241084327218052 4.651217988751726 9.26707872983782
Mg 5.625041566104479 9.50593650849286 7.572423488738929
Mg 6.499351950772999 3.2509774930438016 6.693840976971588
Mg 6.150479999627667 6.662584143305958 7.30336949794491
Mg 6.021156485574011 3.2160681132674704 11.819638961353707
Mg 6.902229611587659 10.919939433014997 9.984631671762175
Mg 8.68751590779775 6.673368587274489 2.642758024410614
Mg 8.02632597250307 2.9022701586630903 4.03301786491931
Mg 6.24511478576771 9.015615986808259 12.203953600127043
Mg 8.556967082379435 9.624397237273165 2.8507086718398478
Mg 8.122716795580773 8.167279006576798 5.59211668815019
Mg 6.141384776442077 6.175059073556257 11.942013737800345
Mg 7.590776898284824 2.4929499742056973 9.316835637215345
Mg 11.01438703571994 7.862174901244769 4.368508376562386
Mg 8.619874536136471 4.696355249613589 11.134372948453215
Mg 8.9363255985131 10.005209162409386 8.095091068531069
Mg 8.645573104363367 5.106306576844193 8.167618649297122
Mg 7.958225393591489 7.675634670556198 9.713648130401294
Mg 10.357768564140496 4.227769411942535 2.766176127345767
Mg 11.339874447873505 10.132429242534307 6.352033588073951
Mg 9.467399538542564 2.504521785628424 6.685093710742719
Mg 12.412337110882822 5.21498916380266 4.64336043514397
Mg 10.639857415700499 2.7753451582080606 9.523528054988478
Mg 10.943527754551205 6.031053512603663 9.994433824086013
Mg 11.75810566259379 4.4914097459109135 7.395889489794216
