47
Energy = -46.21307671 eV
Mg 6.8151883063584116 5.686629860639506 1.0574922767836683
Mg 5.101985716641707 8.407204720219571 1.4191464264837177
Mg 7.940573305072425 8.7871898637183 2.3675241546448427
Mg 3.6884742710195297 5.7925843262428645 1.4563564219979612
Mg 4.874960467535779 3.3239561005583362 2.43089419653363
Mg 3.279146882430936 10.765985806732617 2.7118299849444942
Mg 9.358167673933568 6.1153694598453745 3.102953950885924
Mg 6.156952550992668 11.27861692513143 2.125895020976912
Mg 7.69355328886522 3.645350573467886 3.304716748530275
Mg 2.66249393024399 7.869386683984359 3.4046720756395903
Mg 2.9289881060641143 9.965409386523623 5.752925034414918
Mg 2.683863995351493 4.829989839245133 4.142998147423374
Mg 6.300221008994334 6.4979776657456805 3.800800082901663
Mg 5.5088629152098365 9.287873514190661 4.335408398361456
Mg 9.154539257427954 8.529584699449941 5.11897899750747
Mg 5.4519964316413265 3.991739013267436 5.527799694270808
Mg 11.194029233910863 6.353606659983894 5.5275122959278224
Mg 10.16419917658233 3.586894569682205 5.0191401362275165
Mg 4.816239083295932 12.375816987856634 4.635481278747422
Mg 7.725475412561076 11.263332406122716 4.911495959475627
Mg 4.228064183131621 6.907164052060216 5.798965493935995
Mg 7.6454700283536265 1.8540903909515518 5.854749469930308
Mg 8.050345778056144 5.664814093881972 6.070316168942223
Mg 5.574205205600849 11.084392556423662 7.178350432588795
Mg 1.4799215491114495 6.987208401740938 6.4747275945262714
Mg 10.162280995807164 1.9317980181647383 7.502184520879638
Mg 6.667807342486632 8.263819573410345 6.846609966979602
Mg 2.841692465243567 4.1739532671693205 7.1737809513248445
Mg 10.458770474986759 4.865314903490326 8.087398362562032
Mg 5.348555601107539 5.7476820806538935 8.136376961865013
Mg 10.593787145134504 7.904555781267762 8.007234603653002
Mg 8.746087459927331 10.350122346927654 7.733528493347801
Mg 3.9418930055072283 8.650981554513686 8.361182768924165
Mg 7.497388752455291 3.772128778522888 8.274053035224211
Mg 7.950003818623477 6.794774928001529 9.00489961022374
Mg 7.790562246146557 0.5978211029964619 8.688107844018969
Mg 5.076819458635195 2.0292572369139132 7.922519274630674
Mg 6.550799055167142 9.52163432840647 9.814063836324912
Mg 2.388489078733207 6.259305782021408 9.292723513648491
Mg 9.53890868092189 9.250117382798019 10.48873338278143
Mg 4.936519395053499 7.050075529439891 10.882566212742802
Mg 10.036977361329873 6.073060588063408 10.942578689864417
Mg 4.207251668954557 3.9679116342172995 10.286454534195299
Mg 6.37408038658579 1.9609496138905835 10.772572028191439
Mg 7.634366242959307 7.726173248003337 12.11387896963587
Mg 9.338909938657931 2.963084809835822 10.379669962422357
Mg 7.013081452762167 4.866258739199911 11.330701819530551
