45
Energy = -43.06316924 eV
Mg 4.146542949145889 5.96891883480584 12.49482283854984
Mg 3.5457633287038353 9.487539475495618 5.80278096099066
Mg 1.979329988966842 7.664981681755468 11.410333751529862
Mg 7.1444421294973015 3.472321254636098 1.5766656630053548
Mg 4.965648422472722 8.222450070096354 10.546305730263809
Mg 3.4838595701608095 5.894322083541054 9.231016444484638
Mg 1.0106697072355677 4.180663476323801 8.026514654745343
Mg 7.841303958610497 8.246875579578077 9.726317476469273
Mg 7.211911007853265 10.937416219532041 2.4605044983538096
Mg 8.338796276951545 7.0417304731855435 7.0164884347818965
Mg 3.5256513755338648 4.417083550479593 6.376597816703562
Mg 6.729756989589601 8.229745081592185 4.704949590637316
Mg 8.804824827920632 5.983944577238718 1.110403007414924
Mg 6.223367962898072 4.704651252205609 8.656214411952844
Mg 8.643649546738228 3.7354317919222164 6.898537837558684
Mg 8.73392231283018 5.730651510106769 4.251563299645509
Mg 6.026674314082067 6.1040621418 2.553124564107707
Mg 2.5451212276347297 8.907744316829886 8.680536072619292
Mg 5.795971063061004 2.336663901036575 6.532780278555149
Mg 3.6624697169341904 2.7274371413601095 8.855003731434717
Mg 6.282888719502482 5.267727670988924 5.612113207707581
Mg 8.729530496622864 10.588597913766128 5.09423906333077
Mg 4.553797660473748 9.375092441452537 2.8744856065943534
Mg 3.816837382773008 6.750372374020245 4.389890266456544
Mg 9.809386204324221 9.729075615633198 7.799484627694522
Mg 11.374836344049859 5.9607218032117615 3.0363281540365548
Mg 6.878820842376945 5.952156264026877 11.514875426824522
Mg 4.962404860607634 3.431066049218223 3.7045244757098064
Mg 10.90662573845603 3.496284645330186 4.875829763933165
Mg 1.8192365306178497 4.3294522991084 11.00125955117805
Mg 10.632464660276101 8.124283818101183 5.238981260231557
Mg 5.108370289214559 3.478361600959754 11.321196245490373
Mg 9.19593247232478 8.554369930893811 2.7341978900140798
Mg 1.7354469332481077 6.894265281510486 6.657311538349238
Mg 12.599331490551814 8.323249362361771 7.4646431299102485
Mg 11.11040855955183 5.627529112702561 7.023750620039633
Mg 7.963002819820632 2.534904634850397 4.261287064885046
Mg 5.70906986676575 11.371726277504012 4.917692845626304
Mg 6.722388714957575 9.946768823045952 7.388655352387006
Mg 9.11338344076155 5.232585680708619 9.474946795801246
Mg 5.183415773062364 7.413445740625618 7.372716628965137
Mg 6.783893834272049 8.475702213506816 0.9545183162869713
Mg 10.873427662504024 7.5492761463122875 9.647805356136567
Mg 0.28880086762192536 6.743273274000553 9.262185726760032
Mg 10.070722875511954 3.43917832970812 2.049721738917892
