40
Energy = -37.61172688 eV
Mg 8.170797237674108 3.4558907209545606 2.5405797048378913
Mg 8.906323399445377 7.604576206679302 3.1938624797476938
Mg 6.719033148117677 6.148144525942878 1.6642437929041123
Mg 10.472713837659992 5.214150171976333 3.911755098999325
Mg 6.0346054928073585 8.80885330555743 3.1860022997406916
Mg 10.354472957715872 11.143051157780427 5.40190352124218
Mg 10.715933736127432 7.783736838309809 5.755947190953892
Mg 9.528514477975834 2.7282500123583446 5.0756251162835255
Mg 5.226094021024291 3.8506782339504286 2.6539786570512653
Mg 7.323036118035415 5.457595089727614 4.910266242785269
Mg 3.937514953181914 6.692587401939508 3.044009232970094
Mg 5.547120913675253 10.964157564707751 5.52737847127383
Mg 10.861072561054545 4.93891426235329 6.9074802979482905
Mg 3.240873260168748 9.426599772033544 4.276844624664884
Mg 7.975036125359307 9.122392943554683 5.518470323315085
Mg 9.780624013604267 9.846767181353929 8.077892355309428
Mg 7.998393040398133 12.17391426196214 7.11867818553717
Mg 5.310902173022628 7.469745256161271 5.909410720793045
Mg 6.473574568445508 2.4763616094921974 5.091180686101766
Mg 3.978412734380093 4.68656582269864 5.166823014059412
Mg 6.303754416453778 1.4080089878464705 7.9950334386108795
Mg 11.270802367978671 7.310400452394736 8.743890870833704
Mg 8.346710617878943 3.5700817662714694 7.614276072086209
Mg 6.539109360954549 9.11876808469216 8.113187826347561
Mg 3.810083639068267 2.0649191217992002 6.59891138853698
Mg 5.6466026825325315 4.859992159004209 7.62499002698593
Mg 2.2902778369591403 7.123969150692102 5.986005856608638
Mg 3.3991312796938833 9.901886119624267 7.2884752290170125
Mg 5.302046589297177 12.044232809375409 8.421980725975514
Mg 9.339868917441352 5.285121211127272 9.929110522789498
Mg 7.657181220322532 11.152740854728199 10.085936478428021
Mg 8.952487087919424 8.360416831653067 10.421836163125436
Mg 8.282993696867733 6.7284351008842185 7.455066735211789
Mg 6.730670607546839 3.5099563834887575 10.247461106824263
Mg 3.8816972557654803 2.236117796159272 9.544648692567662
Mg 4.707881366072563 9.801890058032845 10.353437096261944
Mg 3.798586887103951 7.286184058811978 8.688689114232131
Mg 2.549005010733986 4.590334030888977 7.880586518615459
Mg 6.486374089801981 6.656569970273617 10.061237488620634
Mg 4.01953546371765 4.956576302275386 10.585119845073832
