40
Energy = -36.41952729 eV
Mg 13.252628451205938 7.575645386088484 6.278730517152724
Mg 11.485970430188004 7.162786272210208 8.57979614050593
Mg 11.563557323261511 5.005909296775778 6.455904587552122
Mg 11.241598282001593 9.769412533783536 6.286676219008824
Mg 10.56200963226398 10.043475009633141 9.131125883035415
Mg 10.872219461689877 7.320509592267496 4.449973587187115
Mg 9.316516593687675 4.913789655199558 8.503620045668965
Mg 9.636228830975307 2.3849274821321176 6.701655930506676
Mg 8.923440760417774 7.583110323405596 6.808612945314675
Mg 8.84470362982018 7.710043157354404 9.99900561134672
Mg 8.903521657309254 4.9316026433950375 4.995671587275155
Mg 7.025852235186916 2.8260853258786627 8.746866177565867
Mg 8.704046534883412 9.702297089920105 4.504316312341196
Mg 7.704872985583355 10.584986370172723 10.203806202652142
Mg 8.279773460930919 7.146628449905031 2.9143466878864004
Mg 8.566205083231678 11.115650585325291 7.254482365624046
Mg 7.510699652561233 0.26896557405061333 7.039557596110802
Mg 6.779566047638061 5.573217009453901 10.106340775466526
Mg 6.5420957176884915 5.359477177920051 7.035320532417417
Mg 6.810913121386166 2.58540493878492 5.414922906626481
Mg 4.290180374615476 5.355569462139717 11.767641785502377
Mg 4.686777244309728 1.530736865711325 7.465713289670285
Mg 6.195378195574142 7.636267518035553 5.121709483656062
Mg 6.3268899295715615 8.421829522084598 8.203534953776566
Mg 6.153728020335283 8.125154355508162 11.485361399320569
Mg 6.147094756417003 9.62121418987544 2.810970925064085
Mg 6.201925091542513 4.827285392099712 3.557797193896059
Mg 6.0148857935701985 10.695258036990198 5.730387009804909
Mg 5.576917985601876 6.94578357748677 1.6002636532765058
Mg 5.836656570898559 12.127909316332346 8.384433351046104
Mg 1.8557411153200045 2.8570851697780424 7.837443460222083
Mg 4.154865782865937 4.428603857455905 8.888468008376089
Mg 3.6169578690209327 6.789914491291711 6.8849554080467525
Mg 4.666821125179823 10.457302569567169 10.501035690394955
Mg 4.0356348320580295 3.927617583228246 5.717894602372276
Mg 3.7037972719177317 7.560696874416941 9.75180043002669
Mg 3.48715678240967 9.228446304799943 4.826982978485956
Mg 3.5248168208860027 6.32378022678573 3.8147763819166496
Mg 3.7098089287001894 9.916721156982659 7.708931998249619
Mg 3.288952708435619 8.774358554506296 1.939314298616804
