42
Energy = -40.04745278 eV
Mg 5.56807076779308 12.267836151593634 6.025566965828711
Mg 3.673493759703296 10.695559368056212 4.093994485424588
Mg 7.037115964137455 6.386844972962025 10.274286948516773
Mg 9.273073371287625 4.311265165351585 10.541001262477701
Mg 6.167993353261783 6.985609996128592 1.7353979068754033
Mg 3.7488394962344374 2.748403032683814 7.723621244940558
Mg 5.11064670765471 5.6301251466855 7.534924266766327
Mg 7.908638865521604 2.689288805856538 4.142868718473501
Mg 6.155374584324591 3.5456076033329857 9.83708041370957
Mg 7.942992263582827 9.675688807112007 2.1916130787507275
Mg 5.11412837199266 8.595690176829782 9.698916526109397
Mg 6.692709921412405 2.452924815412311 6.944756308035454
Mg 9.922619296824708 7.174395970248725 9.563190522781865
Mg 9.970109519311286 4.860446808908851 4.974765944896896
Mg 5.20104702191919 9.980110047573763 1.336890854264963
Mg 9.753960565347993 2.4145505125435034 6.663095202902287
Mg 1.6082077589031114 4.644549705655269 8.969105963866038
Mg 8.567816923072781 4.98041522361399 2.2715222985144483
Mg 8.734425475243446 7.491094125389096 4.00977285417901
Mg 4.341231843474553 9.703013646417299 7.042919110348398
Mg 7.943399644446705 9.246140905289343 10.576978454803005
Mg 3.994660963134292 5.763242605885016 3.637777505326626
Mg 4.03261169147828 5.803050863428969 10.47162221250623
Mg 11.206101948546 4.934197256704473 7.924084526374064
Mg 6.738303647623506 10.96825724512313 8.446539994041656
Mg 8.376237115793483 1.6482073286637369 9.296714094300881
Mg 5.767174761912325 8.457971649876187 4.472349095512228
Mg 6.432776590443095 11.900033746937261 3.2758320771537957
Mg 5.880000729314181 3.967879917205984 2.129564477834045
Mg 9.57408543925917 9.963421513131859 8.253951167507074
Mg 10.156348694390427 7.531334509642765 6.571229213424471
Mg 6.777571079492745 5.487181106543241 5.053853997494887
Mg 2.6432131830149563 7.430058797078042 8.298876957668053
Mg 8.102761285904565 10.297276430595643 5.516293906950967
Mg 2.4082907632386332 4.936602446371891 6.064775287393972
Mg 11.241235544426463 2.3633293051691537 9.333036632439946
Mg 3.1388100883289494 8.250642513076361 2.2473976600107455
Mg 7.137629405057396 7.902187567626894 7.323664272271324
Mg 2.726997311922455 7.930043814641506 5.275880811267177
Mg 3.2883669375484312 2.827604825380243 10.678299145502455
Mg 8.209047913036217 5.003627300885862 7.71458044721071
Mg 4.733839165488092 3.1562480031925606 4.8633669201475005
