47
Energy = -45.42112622 eV
Mg 5.169598658469551 3.293324821123993 9.852689816298899
Mg 6.470879030058318 2.716285266146672 7.1868039225752955
Mg 3.4392420874998866 2.7860519464269826 7.390575964901271
Mg 9.359094980878618 3.387097741578473 7.112598363937534
Mg 11.072361463707765 2.6609271374686427 9.426387802177743
Mg 9.726624219109514 4.011978634806528 11.608290283151067
Mg 6.877616017865267 4.768550188740327 12.104448713981276
Mg 8.071264096695275 2.181804095879557 9.824959209588233
Mg 2.5321128432789086 4.854224408831096 9.186397756270368
Mg 4.769799341853244 3.92664104369695 4.918405011617028
Mg 4.808084869776678 6.268529687030952 10.457676906111459
Mg 7.802457532959954 4.058747692798638 4.583593723437306
Mg 5.484943981179856 5.890591803205947 7.272262381937442
Mg 10.721045686097732 5.2375305460604045 4.470461825229752
Mg 2.4273495615128633 5.481689077690912 6.2643852119161325
Mg 12.175792670945604 4.4072781844019975 6.968812670992606
Mg 6.435079474346468 7.843389085398523 12.383366672172148
Mg 10.91790229053183 5.700196256539516 9.310325015354938
Mg 8.643355892983037 6.4197408414764 6.580126422178414
Mg 9.124025948283236 7.004304158667107 11.415311913092538
Mg 7.74315492556824 5.208517452495214 9.221625375832131
Mg 3.0991623865044007 7.7071775986883395 8.358902520172832
Mg 5.920176575511753 4.7121643834739455 2.121581927302322
Mg 9.941200669247086 8.437047337216747 8.677997630927061
Mg 6.77541144743911 8.19182742728113 9.027663237681017
Mg 3.2194419147247855 6.051455993168793 3.4042721689367856
Mg 4.336417420312782 9.351480980206214 10.545570123038177
Mg 8.76065907836587 6.081861185896503 2.390079622436553
Mg 6.011004105866126 10.826890227152518 12.516418453479524
Mg 6.269040873107854 6.763448532355989 4.275387272416788
Mg 11.774057506232586 7.370517764024736 6.464733837450862
Mg 3.8521288983721584 8.28252772008095 5.444463274757601
Mg 3.7814354715925402 6.3755398389896865 0.5501165600078007
Mg 8.420274323696647 9.91853201155455 11.027856785757423
Mg 7.214981835522052 9.027343805607895 6.093857725548601
Mg 4.61368553823839 10.355009014918119 7.53873747812341
Mg 9.909711717870042 8.297313302418486 4.222934623036629
Mg 6.597704058232881 7.225466545550358 0.6579400218847501
Mg 6.181131334448415 11.778531307435035 9.662903912109542
Mg 8.56973591065837 10.964496900761949 8.091009414644779
Mg 4.459783671516894 8.706073051155593 2.448209444352867
Mg 7.431266353130946 9.149250357178362 2.7589863958283267
Mg 5.327202888840349 10.86323403594274 4.409104531960707
Mg 10.955476631272996 10.3170641618566 6.207255619787098
Mg 6.549161422946176 12.591890108237102 6.602902061403342
Mg 8.55266119706047 11.236134302854445 4.498182974350686
Mg 9.592955099184422 13.20259381935574 6.353117196284754
