45
Energy = -43.15739581 eV
Mg 5.917126618813156 12.116295087495649 4.471021291914964
Mg 8.576031276921332 11.813037254886565 5.994159744981543
Mg 7.890847689816781 9.925235394778957 3.5691349624231563
Mg 5.490296875847873 12.497918509317854 7.432235362323338
Mg 10.791175664897859 11.395903323312428 7.891359901811841
Mg 7.72630640034986 11.486561051825051 9.012434822858062
Mg 4.771048528632383 9.68294815503554 3.133966224507695
Mg 3.4817388515616225 10.670839115481883 5.946899982895324
Mg 10.274741708246088 9.22684168998022 5.372902173888982
Mg 6.319573003093093 9.701424218749 6.337484890281448
Mg 8.694547231485728 8.81347900738304 7.853175306983404
Mg 10.09651664950206 10.06012941600042 10.368460362565314
Mg 6.6990899453635455 7.9091200318072055 1.7037110616795204
Mg 4.589176550706854 9.860515321275521 8.84066260577911
Mg 9.456366879794981 6.995060646986488 3.006011949064429
Mg 11.655273231270687 8.32680368978189 8.120811958477432
Mg 1.9140059215880971 8.989076799570702 4.007286538434472
Mg 7.051268373728329 8.7832310891105 10.38782719453268
Mg 10.961491387700177 6.276784128891398 5.802664173819306
Mg 3.7637666519003248 6.837631865873526 2.4790627311876534
Mg 7.752822974396553 7.293073712772651 5.316227934508467
Mg 4.6412816051339565 7.398118724144939 5.270100130127331
Mg 6.521232058162722 5.329442198503236 3.031826453184624
Mg 11.764547462599372 5.419587937675951 8.755552347077343
Mg 8.784128006647764 5.860214414962346 7.793686543385427
Mg 6.134266134566024 4.876819440198593 6.002579034390561
Mg 1.6878727067688506 6.2115094794003705 4.793072369466995
Mg 6.020451406316205 7.087163877467309 8.01728170145477
Mg 2.4351493680438843 8.127504658723453 7.312579979229158
Mg 9.631474358591165 7.095067233961665 10.492249976063592
Mg 3.7381140283142376 6.903938651375278 9.924558060919042
Mg 8.839188417565639 4.183823777628712 4.829269408861522
Mg 6.752563207267474 5.739388890462662 10.703962339716924
Mg 6.2667051319184885 2.4881769993257197 4.110441896380834
Mg 9.488236675242566 4.0632289713644045 10.407025097756614
Mg 3.2919614373236517 5.218898755462773 7.30198852353408
Mg 3.7557395911023206 4.21653801373814 4.169392455336531
Mg 10.199039296205724 3.198286909531673 7.36668998689381
Mg 6.968663759728172 3.728114898021424 8.46739411454583
Mg 4.528799679371456 2.379703739680657 6.741365725189773
Mg 4.309064116967547 3.8461021879070603 9.816367490378692
Mg 7.693585496280964 1.5560515860032837 6.506601522219243
Mg 6.841189554106626 2.7117495982141953 11.300406043693718
Mg 8.767851953228092 1.3334525722527164 9.376688652669484
Mg 5.701907288373167 0.956085806594581 9.056397918590541
