42
Energy = -40.00401962 eV
Mg 10.917867063219626 3.494347793625963 1.9286908059646688
Mg 8.022324715172795 4.197991966870089 2.312114134970971
Mg 5.146452996367781 4.7810194480248445 2.5288275095389876
Mg 2.1016367848197435 5.262960733362774 2.541884219106534
Mg 7.153990179613583 7.082290010639852 2.7867447914770924
Mg 10.188257602731388 6.432080570119311 2.421592758598048
Mg 4.0448622256452555 7.444057365361463 3.413937230027207
Mg 12.046788865441277 4.530027386831246 4.450331015583232
Mg 9.478874168556148 2.409535915593983 4.3761470413493955
Mg 1.0610556200453967 7.688828015973766 4.083647954046744
Mg 6.450877838061717 3.141810299752024 4.749206847434842
Mg 3.515264524867842 4.315825035615695 5.048428524165447
Mg 0.536603994323762 4.801185198205855 5.029112114213738
Mg 9.143558039878675 5.334979320400492 5.102466380235537
Mg 5.914308236305264 9.199612464383714 5.011305938433919
Mg 8.796286964694952 8.399173434768809 4.99107573015104
Mg 6.235465352358977 6.132772356644959 5.551077120909409
Mg 3.392238769736578 7.12373137721874 6.530716687287737
Mg 2.946923970061989 9.866625855044106 4.939976809653364
Mg 11.668486209396953 7.537557489642666 4.805191934319111
Mg 10.955530505958292 3.083612576664229 6.89409703695112
Mg 7.989893733683942 3.4508113652609733 7.361355538096611
Mg 0.07780381220842335 7.084815236565816 6.850155058751384
Mg 7.726571203404778 10.091381280565589 7.306350726646408
Mg 10.688369926882034 8.908399677651277 7.386259012112277
Mg 5.061382436037724 4.127239741076687 7.630243449643791
Mg 4.547829453993566 10.514702912882134 7.409256065674196
Mg 1.6753303973032974 9.554152973318192 7.6626861030334
Mg 11.768360909126631 5.9044200332918715 7.261658006070495
Mg 1.9365271369723862 4.683377830501043 7.764020140038334
Mg 8.66454915582175 6.640459379043014 7.7684892039102635
Mg 5.877318932183694 7.734084885176297 8.134099865977007
Mg 1.3715682678264873 7.18542876708414 9.485686554045767
Mg 10.06761379280954 4.408100562753376 9.46965032960993
Mg 6.928134405423275 4.918392920954602 9.839779046992161
Mg 3.981805965606189 5.860301983972306 9.859126573369183
Mg 3.662275731857366 9.003601411251784 9.990754709350934
Mg 6.19635565318006 10.514275890896126 9.958198376541535
Mg 8.812821978894899 9.011063612895422 9.929038423466304
Mg 11.215666222640458 7.237326102456042 9.889907418253902
Mg 6.2266869261739926 7.709730669279189 11.186300888034756
Mg 8.954139803472614 6.346568621139227 11.509072398722553
