49
Energy = -48.65586705 eV
Mg 8.914638458050693 6.322828126004671 3.1991633506642665
Mg 6.493703991250261 4.526447260846153 3.068592854899616
Mg 8.599010410642366 9.392926588135156 3.425382227678316
Mg 6.135447963332621 7.662837749124432 2.2910525922746556
Mg 6.803391089677927 1.5704996459769125 4.517707334314464
Mg 4.192463619656598 2.8264680448795514 4.417152100862549
Mg 3.5973727964320674 8.655502107213291 3.920730955471152
Mg 4.020051835556117 5.772978230928182 4.3855186114641
Mg 10.731974297868545 11.0309374211832 4.888497785336078
Mg 11.48301142289237 5.1351456277837775 4.547349863367334
Mg 8.992783685938358 3.5684365251760934 4.656040001678111
Mg 10.982030350890309 8.09056601972425 4.810177358144581
Mg 5.930469109781299 10.496154411447671 3.9847685735258005
Mg 6.52506126117188 7.41188296062953 5.137969433614388
Mg 8.130336382628526 12.368421997425008 5.274935446630449
Mg 6.427461866001131 4.496518725306922 6.150831140860985
Mg 5.077075135725339 1.66455749074617 7.003408494398355
Mg 7.8843350187570325 9.61963562384097 6.522461460242055
Mg 12.439259460032085 9.638378714823082 7.005533327653383
Mg 12.273339788198907 6.455435556864586 7.058490750157739
Mg 2.4724422082538795 7.25387642818212 6.529829264681906
Mg 4.472207806107072 9.67361054945048 6.5938041345495995
Mg 5.305778216207682 12.518655245939177 6.185945029479301
Mg 10.693760922344653 3.7655705320047144 7.297005798765635
Mg 3.435685896724387 4.318063678729915 7.110214786665819
Mg 8.057385860294582 2.196182340387013 7.302552293580179
Mg 9.006772459342017 6.229787320463627 6.476547494618246
Mg 5.231148979982104 6.784893106307565 7.7679723177411555
Mg 12.974069348259707 7.901254920415477 9.58037210806702
Mg 3.072318340128082 8.747252168008263 9.129150560273306
Mg 9.933321994107033 8.445090329835102 8.411882663416195
Mg 6.376547941317994 9.209616546460207 9.14514421137788
Mg 11.892981276043551 10.559144133460999 9.904241672292718
Mg 10.054273872770063 11.650393473307558 7.726648444465883
Mg 4.176892367939865 11.695790720795452 8.880195049975855
Mg 7.1585365604660325 12.19828690136146 8.520031578504586
Mg 7.80000617954994 6.462570573091106 9.279644519989736
Mg 5.762173939513141 3.7311549709239227 9.131087396021776
Mg 3.5165010565202333 5.71147542037201 9.958046532422523
Mg 8.732629641351787 3.5968546795067113 9.901065787054078
Mg 3.189831427146335 10.686724611493817 11.47848294185279
Mg 10.991783585637506 5.633948116553263 9.699386695383902
Mg 10.657204396691949 8.239933980544638 11.53768333675137
Mg 4.677456088827861 8.037324035478479 11.573915693354861
Mg 6.147069902039272 5.425392359395359 11.628908839370949
Mg 7.6187250640437405 8.307590584787425 11.999726955440421
Mg 6.096592605355438 11.107161049542794 11.483810216727763
Mg 8.934467664967384 10.677077874869179 10.491514135490357
Mg 9.140726276388142 5.6732123764077 12.085826649493287
