46
Energy = -44.58902162 eV
Mg 10.940100494984874 9.382193387753508 8.29461106233696
Mg 11.87067008291452 6.409611991562057 8.753907874515738
Mg 8.352340103714782 10.020143059896828 9.996201432582795
Mg 10.335041914503911 7.704537357275127 10.857323734104076
Mg 11.432319544927989 7.46955217636358 5.827660788897592
Mg 10.625015232984945 10.298308144390154 5.451535637380599
Mg 10.210259660210578 8.821878825763662 2.886647482228882
Mg 8.31009234122018 8.766703969547384 12.869335400011519
Mg 8.001148070118626 10.846884127360248 3.9912805144566468
Mg 8.756003104533285 5.7277747504709255 12.605976943105711
Mg 5.611422478159297 11.079546626885307 8.835600083420134
Mg 8.056098138327114 10.325521601948681 7.013617268429471
Mg 9.377230225809607 4.603838935916779 9.780877477638068
Mg 8.905580704080998 7.128510720819513 7.765042846281373
Mg 10.462140327449337 5.5625213838283 3.713758704495141
Mg 6.936961470154389 8.990269317792734 1.9613699506674453
Mg 5.563889163919607 11.670906342201059 5.783703307080055
Mg 10.699079295634844 4.629918345337693 6.7310335602472
Mg 5.646894130700665 9.487125615190763 11.490536573926784
Mg 8.273799268850786 7.722733648412028 4.912136890175852
Mg 7.300003284767218 7.14525537348451 10.356045280262146
Mg 8.844865724769168 6.621103430031698 1.492117564906916
Mg 6.007771197243567 6.981359492815496 13.22177596657377
Mg 6.576942349448565 5.206301740795045 8.231375143631608
Mg 5.922812633354516 8.176448536677801 7.8019668019424735
Mg 7.926020767063825 4.81370582869513 5.471999744836276
Mg 8.182487745252967 3.8234848486153434 2.432322255918086
Mg 6.158320584957105 4.486131993564572 11.52321351543296
Mg 3.2896337590552114 9.246480084524753 9.701486990164817
Mg 3.7942943306714074 8.113259171619127 2.236050268281843
Mg 4.166207814772645 6.637072607627901 10.744603924514037
Mg 8.742560837308245 2.5600870630601325 7.533759184317472
Mg 5.582917929633321 8.901585869769157 4.721759322952317
Mg 3.329250162798924 9.796741513248683 6.8067428227940106
Mg 5.225951958852838 6.085347431321666 5.624076011220581
Mg 6.100946203431546 6.123120136269434 2.6469758186616494
Mg 6.682701347381249 2.4385720073849195 9.575614399271227
Mg 7.868357116909505 1.936430473385621 4.702528693538432
Mg 3.3286206519387838 10.543426906520015 3.848268428235423
Mg 3.04990626990731 6.746685313511838 7.906250558236523
Mg 3.9431247273810897 3.974902671433304 9.113732807726302
Mg 3.1219466450443525 5.299996559508587 3.1174548455233926
Mg 5.636428923749318 2.762791526266821 6.72137969576506
Mg 2.442802750992569 7.56242775783511 4.929011546248533
Mg 5.327089933066248 3.405061289347308 3.8040551735195467
Mg 2.9682762691898454 4.236899973376989 6.04645720800873
