42
Energy = -39.86451831 eV
Mg 5.7939009778867 5.7230270982845175 1.503262308015693
Mg 5.16354168190167 8.614436210673952 2.1436810156748125
Mg 7.81459229952101 7.322089029846693 2.9146499088132045
Mg 4.412475362569452 3.520452016513523 2.6931208580521027
Mg 7.9938657305902945 4.226337894602569 3.6253168934486273
Mg 3.0980792455737367 6.363226420988393 3.0037680258875934
Mg 7.6603539155291624 10.385421370394907 3.4192749346997795
Mg 10.492491578197649 6.387362285936547 4.174205473179126
Mg 2.752672563459612 4.053393810478523 5.147887866625177
Mg 10.682554171844334 3.751072237850647 5.37683439196955
Mg 10.341043568881531 9.030573514939592 2.827206014239609
Mg 6.037866644773207 11.565440349027012 5.740280044101806
Mg 8.402629557344818 2.020589118296773 6.371812747121792
Mg 2.969941748897219 9.189056722802004 4.199857404897678
Mg 5.639147681167271 2.586764768494192 5.225946749314253
Mg 5.614603035717434 5.762490933193575 4.746706533299294
Mg 10.387249148930934 11.60347473361617 4.077994049620706
Mg 5.709968750696478 8.690137831851551 5.108713715872588
Mg 8.46875745264264 8.089988878028517 5.8266944187749665
Mg 11.278439157991375 9.117948252809263 5.807286293549257
Mg 3.1104054914019477 6.853378938619282 6.164287218113077
Mg 8.959356592288845 11.124204126876252 6.556568919653206
Mg 3.9182327211894328 9.665590923366171 7.337505558688198
Mg 7.973930355513086 5.140421320066822 6.566034148275533
Mg 2.05257016315264 4.3607940661465365 8.194601878947434
Mg 5.0057724832658375 4.567908799529891 7.495208478894834
Mg 10.902236450845168 6.387618863935674 7.22955730634003
Mg 3.17178747030085 1.7920120461430586 6.961254958117189
Mg 5.888459146051045 0.8615694597213924 7.698366125830014
Mg 6.1654346150521 7.3629303508195205 7.857289930113066
Mg 9.439791133212243 8.794146746018445 8.589658919401435
Mg 6.780936584152319 10.40921506748309 8.44160491228377
Mg 10.259761427471458 3.600926033389293 8.286146560921745
Mg 3.2109956989213218 7.149987225274269 9.137802107092295
Mg 7.430415926551017 3.0512039619075106 9.114568096132537
Mg 4.522414158733998 9.757713495644849 10.27374989914182
Mg 8.734566073272857 5.962612692731746 9.419069095792265
Mg 2.954175241333356 4.8237936198089395 11.054648163463312
Mg 4.392029145314607 2.5402508302156717 9.744160484738488
Mg 5.896304195042714 5.285926386538096 10.404764814783812
Mg 7.136420299104498 8.285246032491273 10.702805072795508
Mg 4.500385326059515 7.339820506990368 11.956402675669867
