46
Energy = -43.991225 eV
Mg 8.146471666608573 1.1429399844767978 5.311569324008949
Mg 9.861374834197106 2.206554633601856 7.998694433237718
Mg 6.671394881778311 1.6887600258598685 7.885460422554811
Mg 7.745582896397649 3.471147806482159 10.193274124098453
Mg 5.0704360316333705 2.1295972666288874 10.339806357780603
Mg 10.581337321272454 2.670690328380773 4.863183546367365
Mg 10.116718763940607 5.001804891466823 9.56338939963271
Mg 5.522707614573278 2.828420342567004 5.287429652428073
Mg 8.174532456706437 4.048332835766364 6.529521691417819
Mg 7.8581457169314515 3.527336092034199 3.4131683262361965
Mg 11.396971241356102 4.746481725908323 6.8257822354035484
Mg 5.859801549109678 4.848810904055843 8.191817636291729
Mg 5.078258325558382 4.988637716789286 11.264626545190467
Mg 7.503326498597774 6.600230097970308 10.482820688520974
Mg 2.509830301098161 3.572667960404918 10.446063071871926
Mg 3.608707240943109 2.7685982608496085 7.716999835920485
Mg 12.084637417588766 7.111296269329038 8.58250847406146
Mg 5.108099554042358 4.843958635069635 3.0279592716464907
Mg 9.666775602124495 5.707495742630675 4.463656647291727
Mg 8.69977022354094 6.813091583301747 7.462458877740233
Mg 3.550545454119159 5.155706198923008 5.806400583195122
Mg 11.116069036646365 7.982900917714544 5.852362683738757
Mg 7.596521245464994 6.624505060342805 2.5183981745467805
Mg 6.404946604752904 6.333041040718639 5.410331527926066
Mg 5.047041490566824 7.254372371671967 1.2101332331009083
Mg 3.149604288868286 6.0900212223074 9.000228282795051
Mg 4.028652996417045 7.6669693451992496 3.9506867441316205
Mg 8.321920844823726 8.593797645429653 4.760801958890709
Mg 10.515660714586186 10.914399724745376 5.211416552302528
Mg 11.460223257643495 10.091862141491248 8.007912638170382
Mg 4.6590318394346575 8.07736037893341 10.903305285555511
Mg 5.80129951894396 7.867793565260443 8.081749248104247
Mg 7.202085693135355 9.815602379285046 10.342156351229622
Mg 2.8888526008090225 7.974473023019825 6.660976651523714
Mg 9.830530304680112 8.453948403939513 9.949125045008072
Mg 6.136375602613171 9.615601902724416 2.8507054866921417
Mg 8.282712916141547 9.829323672659228 7.505476510561859
Mg 8.870272136525506 10.810147845286657 2.652824741580687
Mg 5.414489482378295 9.752603861138747 5.778157376968674
Mg 9.828860627217278 12.59775446899522 7.644902424946382
Mg 2.2468302773691646 9.14660204808931 9.399077475689756
Mg 7.617759430041906 11.893028165407232 5.258682624789678
Mg 4.7284728727302054 10.72933089069269 8.985490618071056
Mg 7.06045837292971 12.47126896301403 8.539133809843866
Mg 2.5559489131691344 10.913875700269903 6.826029882385633
Mg 4.884235028512486 12.660952512935488 6.344102280002647
