48
Energy = -47.2355953 eV
Mg 2.753366544736168 8.863074087423708 3.435109121392808
Mg 5.767443283374565 8.91506495219462 3.181106819264703
Mg 1.8365745075752269 6.088212127439532 2.286271537522423
Mg 4.806302798722853 6.243618507946745 1.7962239435122649
Mg 8.734194035068507 9.102163892057485 2.8063614906963754
Mg 7.375225725659085 6.362813321451192 3.467480034717243
Mg 10.642008329454733 6.859819453704265 3.516677806165681
Mg 9.425439597705232 4.558207458230096 2.057900250530355
Mg 6.452391701784753 3.6586368500372095 2.3524451695982527
Mg 3.5954836759355264 3.61094703386042 3.130128868783923
Mg 0.5369168673147747 7.222497320086937 4.719297290612537
Mg 8.43385048643397 2.8877381191520497 4.412938585859273
Mg 4.618938044420193 9.997249712439862 5.687719353438059
Mg 7.520915398001033 10.88546813096069 4.957699936246769
Mg 7.138839356779018 8.022430652023964 5.969948935941183
Mg 10.056665610088086 9.038842664590598 5.511040659733177
Mg 5.464555304392728 1.7021565033683244 4.632749744763416
Mg 4.112663989218171 6.4620011722307105 4.740989436544912
Mg 1.0875702665682574 4.3517553226983 4.5978589308201725
Mg 11.877144075228284 6.629309307615667 6.4904770688308515
Mg 9.122994214121608 5.571644448365192 5.9355086555894685
Mg 6.176288328664638 4.560304127000841 5.809737646101058
Mg 11.427751743835666 4.019865444603351 4.2985498443844365
Mg 10.623958924387848 1.380773451732475 5.770404134329332
Mg 8.704992890939474 10.789405530522982 7.786392927068462
Mg 4.640288758959652 7.301382161387446 7.4980548097152315
Mg 11.68995552340407 3.690190377321941 7.253182552906306
Mg 7.688318131175597 0.49847391735160584 6.186756383504176
Mg 3.3612458800558747 3.2890901347734967 6.260458620284695
Mg 1.874311008136126 5.788304489092431 7.175985839305518
Mg 9.618938430504816 7.896570764400996 8.290184748555397
Mg 7.2237602255844156 5.939102491822954 8.261935732526021
Mg 1.9926848461468405 8.850968478892487 6.714864366789828
Mg 5.763472547566071 2.2105442981375183 7.866028621227571
Mg 6.082185530371184 12.049666742009123 7.414483188006533
Mg 8.623008701429496 3.046189634712728 7.6648993299010755
Mg 10.089466774692514 5.061057184297184 9.304918144765278
Mg 4.2529629067689845 4.620192522897196 8.874204957808336
Mg 6.645813904219821 8.841489971629587 8.985451488317468
Mg 3.8694847648480932 10.359400991155821 8.585301655002299
Mg 9.22416506780961 9.891839766832408 10.633721060163591
Mg 2.6395761654983962 7.577313043907614 9.651787986766331
Mg 7.036826106478912 3.876297215229022 10.312657774024
Mg 8.431842494294289 6.808370252307734 11.059854666892148
Mg 6.527378878127919 11.500360124070225 10.363128784429895
Mg 5.418474146553703 6.673427371089658 10.82879852619093
Mg 4.2434843293360505 9.531755792515401 11.351151638872947
Mg 6.933985507825158 9.078119012628804 12.275277261795614
