47
Energy = -45.04758031 eV
Mg 2.3262586466316653 9.033501452913866 6.486888371057612
Mg 7.038818073544431 12.41498550268802 8.086340205563303
Mg 3.244678757996043 9.380858920261543 9.514252123750325
Mg 8.275210472835814 9.729206470124689 11.310941416477506
Mg 3.9228201438402426 10.368166877315618 4.112238722614422
Mg 4.6407334266307005 10.789416044526615 7.2497910487819865
Mg 5.6882210572875405 10.90794103681545 10.28589057178671
Mg 6.116475307042891 12.435345629396151 5.153148686883303
Mg 5.050582275133481 12.487010606269322 2.38600253248908
Mg 9.61463663147667 11.390790012816142 9.114764083847282
Mg 2.2909878487731845 6.084883594337364 6.404675983826622
Mg 8.5752967327561 7.00342693169662 12.388869904750676
Mg 8.79833743436597 11.24286396029382 5.963604102290081
Mg 2.613904533338608 6.457203103360611 9.311449541582919
Mg 6.253142009891988 5.185197175721813 11.995475057266848
Mg 7.509850674488346 9.307364788877384 8.108173878358876
Mg 3.9650313889556914 7.364562396972841 4.249990905376369
Mg 10.955711060376203 8.75557120316854 10.263367336715847
Mg 5.812224733037186 7.865013826834551 10.591627712392231
Mg 3.7852247671596064 4.136473617078499 10.780605908935776
Mg 4.864350184671286 7.692246607481463 7.44373428051672
Mg 6.495747092938888 9.061018199684892 5.262882379555657
Mg 7.389742255983005 10.701885731805364 2.9202123847113466
Mg 3.812596948906803 4.185154244189087 4.761861405191575
Mg 5.928797927158458 5.301431557641176 8.771065862674362
Mg 8.579913065659959 6.905209904969774 9.377765030002205
Mg 5.720808100578868 5.568485181074857 2.624999207179757
Mg 3.3591184627012787 3.5795961153099065 7.840703175286717
Mg 7.812421682069177 7.707573097489998 2.835419343903497
Mg 11.09326242348194 9.648412647602738 7.233129539091395
Mg 10.091284727633237 9.495111348268537 3.952983830046709
Mg 9.06258271722374 7.362560833203207 6.030090139302475
Mg 6.335609862803294 5.788406266069596 5.630734653213148
Mg 8.509802937507176 4.702945888276367 7.349487479087955
Mg 5.926392598633701 2.4096457423078785 9.71003983447153
Mg 11.538633428179631 6.634804244919899 8.153961006906602
Mg 10.889060911287173 5.715345398596398 10.968328319550835
Mg 8.46849080005448 3.969718843586339 10.484139266481844
Mg 5.921296751589485 2.57819695312932 6.66456475024106
Mg 6.39783784788873 2.960548095538881 3.8003645066123704
Mg 11.03286586586696 3.623236081935156 8.694780020341504
Mg 8.629816637618331 4.841923277984943 3.580445793204229
Mg 10.712908681634687 6.716710155976777 3.0749497844675058
Mg 12.187378913102327 7.622236865218903 5.457999653156768
Mg 11.12313070424421 4.724670230270805 5.674691210672853
Mg 8.998078336024069 2.425104140916061 5.378069848323248
Mg 8.553171484194133 1.803310245335495 8.270709738291501
