40
Energy = -38.2071732 eV
Mg 6.1482664674596235 7.635952152072855 1.5845499494914865
Mg 8.425495049272788 5.61874240246185 2.4834319890350733
Mg 5.4603382183224705 10.229920051380946 3.012909512852321
Mg 8.786833073836867 8.94264680894661 1.803450441403553
Mg 5.312572700290884 5.151483302014047 2.969822407239382
Mg 3.921364682311344 7.689278978618458 3.7519945183700187
Mg 9.731685418239335 3.4469173662450525 4.322058420313024
Mg 8.2314529150143 11.252810611920221 3.6588233088742057
Mg 3.0199220134316622 10.196287784549382 5.244193796328247
Mg 7.177171101644439 2.7801540457723655 2.9831931656251185
Mg 5.867792460729862 11.758559593855937 5.4879405182573775
Mg 10.033484198724416 6.325967902414679 5.226255255631584
Mg 7.347993434524146 7.841904686060455 4.416348624467445
Mg 2.5220280124168513 5.008385915094827 4.338345631132404
Mg 5.482941815057619 8.87082301475036 6.372846152210242
Mg 10.383737520073222 9.231301721300419 4.348198166805705
Mg 7.527599444699072 2.013918399749166 6.042499587721331
Mg 7.259262239412803 4.97463098261429 5.3340548387871864
Mg 4.837305718795703 3.0906356656022194 5.1310493252330955
Mg 1.8969953617104578 7.405257139261914 6.211880106895236
Mg 4.999953352890172 1.7161024746603541 8.02357141720934
Mg 10.78360407925081 8.459107570348484 7.267840325295269
Mg 3.087855031110049 6.304624130999928 8.974468208804932
Mg 6.148105001411008 4.5931835345500485 8.257239375823419
Mg 3.1676094703982027 9.226068638377825 8.226343259284228
Mg 8.340560780463223 10.150028237258319 6.523766320777964
Mg 3.3727575055777375 3.4077702933819674 10.045495943915695
Mg 7.859640526804698 7.094768158572658 7.42178101085302
Mg 9.305948556152488 4.273405565103422 7.471615493233322
Mg 7.9230550837363785 1.6774294055384884 8.980463171403123
Mg 6.098854824439157 10.74270403894712 8.54736491362184
Mg 2.7883020209630707 3.9287851521039254 7.16262890828915
Mg 4.709540652239019 6.121766924832833 6.214397698158192
Mg 10.17909784285914 6.503802721309201 9.46379167686046
Mg 5.959364020330934 2.4122418670061583 10.990194842429974
Mg 5.666325451401199 7.802819394311014 9.32925834750271
Mg 8.685068831883594 9.319895246007118 9.423075040187669
Mg 5.360904807455101 5.378316468823402 11.197376473883804
Mg 8.332698831677037 4.288408682233145 10.507518303478879
Mg 7.871561254244326 7.14824274220473 11.263013323568188
