49
Energy = -47.22716065 eV
Mg 3.964229822730964 11.47166703874551 5.549850052011588
Mg 3.124166959012182 8.781883321309852 6.70488537203475
Mg 4.566435192644059 11.191470021057583 8.431562610460247
Mg 3.4540950748951333 8.520690688849413 9.597460133869784
Mg 2.288989242116063 6.025871171793104 7.745183305652202
Mg 3.3578298014160683 6.314180330930796 4.917949326884555
Mg 6.53840405569708 6.510818833372776 5.177446726825687
Mg 6.156599743709176 11.456723883837457 3.511575582981714
Mg 4.79345441159964 8.835021062315246 4.128388365169509
Mg 6.986358434311516 12.007195325164187 6.513422192874147
Mg 3.357561577847901 8.747366833579957 12.522481556820534
Mg 6.205450656583029 9.132153521967496 6.886299003380982
Mg 5.285732673305606 10.750624370229014 11.284922831962309
Mg 3.603480274993606 4.0323740697730965 9.603425279055823
Mg 8.496664370544762 11.127070715953547 1.6338725209833866
Mg 5.283402257823185 6.392548187489779 8.15504147439851
Mg 5.659304019783577 4.102163274516506 3.5636060889860715
Mg 4.831710984317984 6.330651677881191 11.268698097606459
Mg 6.7132700677520685 8.389898525793448 9.849528813883412
Mg 6.275608242965037 8.436263952606794 13.133238440894319
Mg 6.575808749502988 8.809151653127357 1.597894018194932
Mg 4.752291584408857 6.538156031020698 2.2180081600544517
Mg 4.409749767933836 4.032591954788069 6.501870026788657
Mg 9.242042090774309 11.864943247679044 4.518174642585102
Mg 7.854648961925388 6.020070880468577 2.2941520418797516
Mg 7.520988454752824 11.453142678425943 9.38544532592003
Mg 5.574438246876144 2.0231301806434288 8.471135935162497
Mg 6.4646599393075475 1.9930456108290084 5.446109244261282
Mg 8.45294523025192 9.939978069707742 11.804363239435945
Mg 8.044607144951362 6.47962734282076 11.904080410286333
Mg 6.6499742020697745 4.127528500198634 10.44795837240786
Mg 7.4501865358609685 4.2554793012054315 7.280615312946136
Mg 9.74118826090615 8.414699151241834 2.029295578846138
Mg 7.93283971169039 9.129656954662261 4.417849177883652
Mg 8.398074000133827 7.099462065743862 7.550037559347611
Mg 8.705217830324923 3.862030554360824 4.231600496475609
Mg 11.090620072955396 9.488379076750292 4.588654586936305
Mg 9.354545242075178 10.03886113152575 7.301865524679964
Mg 7.541039181381183 12.00719532516419 7.316542206538908
Mg 10.517563788132852 11.049782390332156 9.924461464745562
Mg 10.08289565880415 8.039783602650141 9.947579159227264
Mg 9.354832729099025 5.067650895561768 9.64202658071168
Mg 8.545366332675325 2.0675541429195454 9.300950746528281
Mg 9.718026861229937 6.724977421210851 4.5649428030214905
Mg 10.424099212686478 4.824879698813825 6.648139895271397
Mg 9.603819872436633 1.9038002996416552 6.28215806541054
Mg 11.420127476617417 7.778882989082471 6.937433160225194
Mg 12.141526351246227 5.82196349461232 8.991653651782295
Mg 11.411577909738698 2.907528332919639 8.667477102866112
