46
Energy = -44.53843162 eV
Mg 1.1285614024242105 7.518259304267723 9.821808039748957
Mg 10.706236473685436 6.106153713528016 4.095758871869973
Mg 4.921984938690045 3.020976311782757 4.550085798504174
Mg 1.5533305140175728 4.5655604170776565 8.466106401955868
Mg 5.352785130944558 9.101755366393995 3.2808813548517066
Mg 3.824962013438334 6.7980987086501585 8.440610862195456
Mg 7.419466002804344 10.6633311301212 4.851143468637026
Mg 7.5481515982882526 4.21310278040293 9.16748587854829
Mg 7.667903329942241 1.576440011667367 4.480468449125831
Mg 4.5221296446976 3.835713637306285 9.134748906713222
Mg 4.387423041208508 11.014859025584329 5.585262049669663
Mg 0.8557141539325478 7.0292775697411845 6.877331945780817
Mg 10.505229763631634 7.768909611668661 9.250357934785038
Mg 5.565586046845326 8.3879385926133 6.445326566341657
Mg 9.040815156998885 1.6794812199208615 1.8542835058924227
Mg 9.064969024391479 6.032279115030463 6.95093356410799
Mg 3.912187791395178 11.89134443590717 8.532002221701042
Mg 7.954298828833892 4.611034332191896 4.465443104561599
Mg 9.08560540791712 9.283403859168592 6.977471407986374
Mg 7.249885065808028 6.5996798097678635 1.7935824143356736
Mg 8.832058631027838 6.1349231985533486 11.086093576260645
Mg 4.9542755088242165 9.323182559637756 9.732773022423737
Mg 7.290451503043353 7.561337864790655 8.793197796475573
Mg 10.072657115345805 7.59484322161958 1.5667097480546734
Mg 6.621821234600597 3.4972520346387608 2.0523480267639505
Mg 5.981030782838657 5.345741508637862 6.712301204760687
Mg 2.9118745928185725 8.11657754406132 4.8669674733440305
Mg 9.655204368664366 4.584148914563773 1.6367205141339227
Mg 3.204298817535609 2.3560186004186137 6.925482601212084
Mg 2.1205365507895255 10.409932615415006 10.504287514548558
Mg 10.62361197203176 4.633720682622933 9.243787431579344
Mg 5.634739671155508 6.205111631003333 10.955779983560504
Mg 6.261319684335491 2.196555437945206 7.159980468317851
Mg 10.309545676199326 9.271990598128083 4.128002861704272
Mg 7.80423407676144 7.565904746685301 4.652010218629124
Mg 2.7453950629330426 5.230666548149094 11.126831659592634
Mg 5.044635678830891 6.068652509576196 3.7618132312899424
Mg 8.025705130776124 9.630967915323746 2.0706058955263913
Mg 9.23686328407521 2.8803388294289847 6.945238170269745
Mg 11.727212131953458 7.657963840768304 6.467824507103036
Mg 2.9494962487761947 5.12310823811511 5.772230634373408
Mg 2.43238683151778 9.51963820410319 7.5568682883058464
Mg 6.672384241059015 10.938087022969706 7.8042172504121075
Mg 10.516913395525187 2.9420933180516666 4.1441737428145675
Mg 3.282677118754503 8.009649792578559 11.872240539859702
Mg 11.856494946617019 4.539043256107867 6.475470478055551
