42
Energy = -40.73347271 eV
Mg 7.655248377435385 5.902566786197972 1.4403517593975428
Mg 10.000833375511258 7.4343731845016965 2.564238559117108
Mg 10.063174998049304 4.486971075125923 2.974691228573726
Mg 7.639631850379136 9.310641586195702 2.6448743572687397
Mg 5.1215474275858535 7.8003255816546355 1.8777124347040273
Mg 4.953714081412264 10.146393102239584 3.8968745911146607
Mg 4.6304400404511545 4.973145115349234 2.933953673243431
Mg 7.1977544198287795 3.6328447089700555 3.590423706445116
Mg 7.0310597246264726 6.7507374185975895 4.158816025583108
Mg 11.844218608733446 3.464678432673421 5.33156177839852
Mg 2.968414333784428 9.649170987994916 6.477811724826409
Mg 9.478384103842398 1.9829549382304938 4.716392875629153
Mg 4.508674206646795 2.375676346507031 4.561267714951323
Mg 9.17049238429617 8.48559798565944 5.318362975073353
Mg 7.639832031086095 11.15528238399407 5.092185723584659
Mg 3.85806337242341 7.291082385458055 4.6416778407906225
Mg 2.6181046593185555 4.530459931217778 5.319846382546928
Mg 6.054131063442766 8.64297503857506 6.22571472684324
Mg 5.426727998780416 11.329149756724247 7.299298260698465
Mg 8.908728814195682 5.1173482319491574 5.894937792389562
Mg 5.68495904707254 5.080597422056586 6.049616751902352
Mg 6.926361830743587 2.2306672913379155 6.366035277539391
Mg 4.0805281655365215 3.0029194793866543 7.597476982022527
Mg 11.866170966678457 5.074065391954459 7.743212962482047
Mg 4.297182484484135 6.910091943145594 7.989389256545094
Mg 11.577071801236173 6.486480011272043 5.0450309837745815
Mg 1.7134135839407443 4.923725969538232 8.250173715792851
Mg 3.413252543539373 10.376635329228575 9.345563262485156
Mg 7.556325240706341 6.880992239146765 7.842586422400264
Mg 1.2668568504405122 7.092852885081587 6.230162548317955
Mg 9.715441513190713 2.905181017362005 7.71584008433374
Mg 6.850008550047441 4.035214912474641 8.780406849575217
Mg 6.135551977624701 9.16683584792023 9.503832785953144
Mg 1.4887175076284833 8.100467709277384 8.981263664530818
Mg 8.467281600036673 10.039819546749705 7.821759342073928
Mg 4.155397978475388 4.709803568381535 10.17180546766608
Mg 10.591156203236062 7.748597324785971 7.865693472787196
Mg 1.500493247649435 5.940016591745788 11.040545697903903
Mg 3.8532142835373913 7.792771339443371 10.986376314310016
Mg 6.66215398127228 6.391471247373881 10.766977596465047
Mg 9.491524629020509 5.359895515450097 9.63106380980617
Mg 8.980729892147652 8.331492189146815 10.357162370227867
