49
Energy = -49.035684 eV
Mg 8.865858523197048 4.220932566116036 10.799430585138806
Mg 4.541709398012084 8.873212301240104 5.942955399079364
Mg 8.132078060827807 4.648049395558162 1.032613409979644
Mg 2.7039889417125327 4.21248938242319 8.081499735575834
Mg 7.193028235825249 7.491459983824994 5.401728358364009
Mg 3.113248477165984 10.60381827189639 4.04336958448126
Mg 5.954473436531488 11.697540216094941 4.078100581733678
Mg 9.990353361925678 3.183410579909784 8.227417572335343
Mg 1.7099728093445394 5.472283932295895 5.308069732697114
Mg 5.475635136026261 6.227767524777817 1.3066678996260788
Mg 3.879323076848829 6.151007636542762 10.107697370106141
Mg 9.688027060946634 5.030941879691987 3.648621037080329
Mg 8.927060563045908 7.0495446024243815 7.819628069749492
Mg 9.890518971350415 9.973624688908956 6.9554560439295
Mg 5.927904958584729 7.921404554519352 8.326849551029154
Mg 5.20257825764291 2.624863085664499 7.19663026553632
Mg 10.335052620944461 7.736938995060514 4.850330848660409
Mg 2.228757744851339 10.368432558518673 7.423553183769407
Mg 8.563421555137115 7.25096173865938 10.94952534095576
Mg 8.3410026331067 7.436717214673827 2.391502892173065
Mg 4.255951101442569 12.280843752117 6.388033674790939
Mg 2.3435202030881945 7.236166478043477 7.76039221004502
Mg 4.9812915257326145 10.839631332891125 8.99347650448951
Mg 5.748900651448475 8.54897446329637 11.272147850088944
Mg 5.394333176129989 1.9545131147108714 4.210749218958337
Mg 5.810825398862637 8.986491297941058 2.860590362735447
Mg 6.432532460812665 4.974312433620725 3.7991246499323736
Mg 2.751579153161279 2.6894887282012823 5.471552132739197
Mg 8.512154404564173 10.018028020548238 4.098884020340017
Mg 11.161238776499923 5.824945587330014 9.549524369434979
Mg 3.5819275353820297 7.187140247796053 3.563292033733142
Mg 8.036313815336701 4.4839773858272975 6.215311351350714
Mg 11.212056176622353 5.23501569015889 6.364515683914067
Mg 7.981423238272567 9.904958806743902 9.536604779122328
Mg 10.378956296341396 2.5423656144347238 5.253760229457891
Mg 3.5309427887778124 4.24914683246941 2.9960718095563372
Mg 4.810250242089412 5.707605784909143 6.314805249827354
Mg 10.802798562138335 8.955437493024844 9.831913842151172
Mg 7.406421074536006 2.0040178934714215 9.190138406162816
Mg 6.693903099683511 5.113226524615555 8.81369324548448
Mg 7.773061559790796 1.3916155460224149 6.158178199475008
Mg 5.740933904349792 3.0286801918693667 1.3114535476452645
Mg 2.9181651358296197 9.00857242620844 10.12250836923172
Mg 8.182411656727538 2.37245647012584 3.168381031985389
Mg 12.071869228793584 7.869306405518304 7.421055130450953
Mg 4.770972398841558 3.279152998639575 10.190606333181616
Mg 1.3278716018457954 8.504108763927457 5.1796266255672725
Mg 6.245182595258331 5.570340940883113 11.862386318370291
Mg 6.978218414618309 10.564077665857623 6.709575357781548
