48
Energy = -46.11219568 eV
Mg 6.169032510808785 6.2317085021762635 1.919654815200661
Mg 4.321250113198677 2.1080053659613265 7.12015668487175
Mg 3.6834483463972343 7.396904238554129 3.135696459385442
Mg 4.551104248909742 4.536023134014244 4.0346212962169705
Mg 2.73337351553936 4.659139014121018 6.414415374060236
Mg 1.8012554867589055 7.448814840623692 5.564124941417156
Mg 8.504510741245822 4.988578050079858 0.473045999271829
Mg 6.9369866551209745 3.308026945952416 2.4582918405696446
Mg 6.452518163156593 2.1634427244607015 5.128612018835732
Mg 3.9818167830872904 3.9974660828646638 9.363499499076758
Mg 6.5622977393173025 8.5236520229247 3.729830975090517
Mg 2.948155685313364 9.318765922463161 7.583789806301249
Mg 4.100140689880898 9.892926802197447 4.726418795832924
Mg 4.868641382046424 7.155805963230309 5.940660290267218
Mg 5.824117357836724 4.700317718149286 7.088436764168367
Mg 7.279701030670661 2.2640445934667843 8.155386000986216
Mg 4.088083665784123 11.517065734243998 9.428242661835533
Mg 7.491400122073397 5.339457097066707 4.670609016450762
Mg 9.09885257918409 7.0974603209501055 2.7561351828036247
Mg 2.4426233534803283 6.586163030264108 8.77535321135526
Mg 9.365405721825374 2.892521837028603 5.57427496844431
Mg 9.93252793304255 4.093268549854842 2.932729546430302
Mg 6.929047350313808 11.48110368945446 4.9469166704911345
Mg 3.4372592974633243 8.809721435168074 10.627147343622482
Mg 4.40696942307564 12.249495551753956 6.437325938746664
Mg 6.1434415801559945 9.56703186928827 7.2922986465212585
Mg 8.450158477804369 7.805388072838474 6.030936467100782
Mg 4.112293040529573 6.025975724885724 11.505463111003513
Mg 8.62488061969647 5.346019049916394 7.783647894472152
Mg 9.302499790707188 9.889244917320319 3.949675764859355
Mg 6.8073266045083916 4.664360147850847 10.199169409583828
Mg 5.5198406195616965 7.1593441551127075 8.94879029531584
Mg 9.497703811503568 3.1022107415744897 9.990718866767201
Mg 6.773876437831187 12.414282968538776 8.397853351630708
Mg 11.256232733283433 3.800636909167822 7.651156865783224
Mg 10.757163673088991 5.773605976515743 5.254442557775052
Mg 8.535000044893591 8.246454216767612 8.984709178492281
Mg 9.116159310904763 10.652423644348493 6.912532433111677
Mg 6.394405876999212 9.94569141760448 10.535714137333224
Mg 6.765894883970584 7.261987958665739 11.844380010523176
Mg 11.37587197793898 8.779082205801409 5.715756565501422
Mg 11.38986169492979 6.748329054003769 8.098396258240433
Mg 9.443414773553584 5.958463740787198 10.872127281525785
Mg 9.118274186351513 11.319502649623976 9.871162282638682
Mg 9.048108144376949 9.10710198118463 11.912105191434833
Mg 11.467797088292714 9.824515531662733 8.531494757638889
Mg 11.642691700701045 7.903786564179109 10.84956112355605
Mg 11.657209056426716 10.813194960351396 11.443444267512543
