49
Energy = -47.77431895 eV
Mg 9.072883667465067 11.741033830111666 10.69646135144626
Mg 11.406742812760623 11.001073815668704 9.125928814178751
Mg 6.41017915894671 11.768657373295996 9.475272463542339
Mg 7.136252146869998 9.701632543924944 11.855154814047989
Mg 9.96996048624286 8.767814544271875 11.054539117221937
Mg 9.33856057373527 12.158494681160073 7.222691684588092
Mg 11.017424628186268 5.86919275726683 11.010220811681949
Mg 6.5733392843848275 11.32709639296387 6.337255199346091
Mg 8.34684533673927 9.676799388117518 8.435703890893006
Mg 3.894891048616755 11.479417386322979 7.9818472624845045
Mg 12.510508031824731 8.281539674386371 9.287971965070922
Mg 8.202367225470633 6.436430190827521 12.224068713449727
Mg 4.429908206711587 9.534893456450153 10.319505972320991
Mg 5.2241692344640835 7.318433009418039 12.234605962981844
Mg 9.759993123092546 6.989134893759009 8.325299674089116
Mg 8.54220160575639 4.4261014460625665 9.772057765435159
Mg 11.010507929800236 9.424707677883628 6.583339079694456
Mg 3.976946327776825 11.668826383255858 4.942005860689886
Mg 7.986796305767745 8.033964759655499 5.967945936953481
Mg 6.925702891108531 7.462312783814167 9.705342587719914
Mg 5.237159394718907 8.556376631426975 7.237460897717881
Mg 1.366529188833395 11.298833150546315 6.517372722649477
Mg 13.524480683564796 5.555556052376694 9.406614952538906
Mg 2.186405829468993 8.91003841444303 8.31166191035377
Mg 8.90685232810055 10.58836127185822 4.564159211236694
Mg 11.140914018547507 4.148964606269241 8.131050373313425
Mg 12.44538400235543 6.623450713684064 6.663072809693046
Mg 5.705919448486963 4.6959773067903265 10.894455451737548
Mg 3.7494749232840943 6.5781295679186025 9.590946124558904
Mg 2.7724378271433388 8.977051901327545 5.27644044389654
Mg 6.134472546743999 5.447487058277893 7.831166840039358
Mg 10.632297415656893 7.408582257565812 4.391286546196795
Mg 8.646417406665309 5.04738251817138 6.279263685975077
Mg 5.724804504331015 9.21920457517342 3.9699910965077683
Mg 3.0786764180439814 6.27814951821191 6.629454926265176
Mg 8.324653616535299 8.2988433677575 2.7027813322361443
Mg 5.958894342766598 6.129071418039173 4.946664994068138
Mg 8.959100205219395 2.186824245760999 7.5618038303864985
Mg 6.389870692083468 2.432061708553956 9.091556965396608
Mg 3.8044940348329934 3.686945043335871 8.103579981687945
Mg 6.2415823825335215 2.646203947272709 6.119989260297868
Mg 11.271925775564341 4.381668818379454 4.988681311157448
Mg 3.4102626463911605 6.717725877975893 3.5003389294183314
Mg 8.824820884757175 5.357744768127837 3.137265343066821
Mg 3.714250760948193 3.879513840283485 4.883322637151272
Mg 6.097245049627237 6.478674600380891 1.95292792098558
Mg 8.918106747448551 2.4994705188542854 4.533895355355863
Mg 6.373125622104651 3.5398095133597693 3.181320133958919
Mg 3.900407088504652 4.370143451029815 1.7813865557332575
