44
Energy = -43.47363397 eV
Mg 7.866803215524899 6.2240525022202196 1.3325162836030864
Mg 5.522424688483212 8.047536315731131 1.773859560741387
Mg 5.147615476280338 4.966489650608196 1.986282211323746
Mg 7.861925227868173 9.675429489141683 2.7960949850910155
Mg 10.21502560654854 7.883193908886282 2.5391306154744386
Mg 2.8429810827783224 6.9015330507925485 2.3775110426812502
Mg 2.887656984848761 4.233856607226839 4.015981579613129
Mg 5.076875217682804 10.461196816699378 3.5454444640846403
Mg 10.081018168313099 4.9230230263524355 2.8557901888555506
Mg 7.611986915454529 3.3820664271323984 2.8853654941608453
Mg 9.935372967516793 9.373689305789298 5.189492161109307
Mg 4.977323770853567 2.187704706935926 3.513780083592915
Mg 8.962613136018671 4.274533975606484 5.696729205092645
Mg 7.782451714070521 6.965054037817155 4.393875801268828
Mg 1.3567152550335924 6.610775278991138 4.8915344455581415
Mg 7.030154537738375 9.751957761932509 5.922136323416999
Mg 10.988785060278605 6.5153987287368045 5.205262505572415
Mg 2.3502743883345514 9.394583257440988 4.1949787627575095
Mg 7.047603599961707 1.931634819079902 5.744759536605026
Mg 3.3188019295148212 5.407624734294602 6.977908826712448
Mg 5.830934974590263 4.7515988655015455 5.119589035787548
Mg 8.468728760534443 7.1490743142885185 7.400673912645494
Mg 7.590959614400448 6.391862200575007 11.356243265154983
Mg 5.248538612529093 8.378942464602263 11.177898285702824
Mg 4.7946189925645015 5.422233508228617 11.733702410557255
Mg 8.051169144738994 9.296649852048455 10.759960226541661
Mg 10.255812272899504 7.395853400932138 10.114044910666
Mg 3.429405723002052 9.830529741799214 9.355544549144799
Mg 2.981222062743601 6.751405331674564 9.772167676206703
Mg 6.268711371473603 10.645455767423355 8.831529505133478
Mg 9.718844633957735 4.439970216223623 10.61988263241641
Mg 6.871624659500513 3.417539528721358 10.828985309319473
Mg 11.505637968491605 8.210000123212295 7.556028623841261
Mg 3.948478965642593 3.6953073967852546 9.439504340172588
Mg 6.5201192875980345 4.822952311497872 8.069945812735504
Mg 5.454435756917806 7.7460465473765865 7.9733118312792355
Mg 2.257752089555624 8.29718999907144 7.136498268997304
Mg 9.23148032485279 10.075982047111614 8.167878568450366
Mg 10.926517420411008 5.145002212874906 7.9873344826183645
Mg 4.149415634251069 10.546908838286436 6.477996377298294
Mg 8.831138434682222 2.7311057316869403 8.32663600084892
Mg 4.07117692223037 2.5104657844460263 6.431450453796184
Mg 6.0112313780704705 1.654476483296626 8.555148133055917
Mg 4.717636051251137 7.582112930913131 4.969611310308148
