45
Energy = -43.13525856 eV
Mg 10.244512457116999 11.832664115143796 9.26833697554748
Mg 12.189397128169524 9.837785393139422 8.451073147406674
Mg 8.24041601649564 11.34518407276527 11.331062760203242
Mg 11.850336449525596 7.985843065963584 6.077764496711101
Mg 10.629335251228724 9.379593642261291 11.080769481836857
Mg 9.764521564867291 10.321354525198279 6.421582690117077
Mg 7.373541011791617 12.015075294181129 8.511520508565697
Mg 10.853167345949613 7.195696182110563 8.868504521632852
Mg 6.690300377354392 10.039940515714534 6.1680227373695224
Mg 8.337675120080574 9.061569385638908 8.862519791305454
Mg 8.112136320117825 10.915072897722174 3.7122335666425235
Mg 10.023092207125629 8.62024563474687 3.67518393349049
Mg 11.290308576702035 5.905107108533987 4.052344552910792
Mg 9.967357121594008 6.3328891395192075 11.744699292140572
Mg 8.729737108698652 7.147137343476613 6.2462813976367295
Mg 5.685644117120346 9.98398493359713 10.266973434342713
Mg 7.771047048000419 8.449423974911548 11.991049743001891
Mg 11.22670354636932 4.988938846557809 6.86487368033498
Mg 4.478485466855424 11.386152795329403 8.035765306098911
Mg 11.239773208144658 4.321429062914677 9.822269676887982
Mg 8.73736353714833 3.394314772372326 11.116120877194838
Mg 5.909516001890773 7.2757980869838415 4.568824414295002
Mg 5.169355716010076 10.195296614148086 3.3760232469898432
Mg 7.04962978672711 5.547088884052749 12.49240740715261
Mg 7.368229771484964 8.530423187768367 1.9633460046250761
Mg 7.9969255674093285 6.047858757092895 9.310755832465734
Mg 3.6447667463777425 9.522430097851595 5.968679624304659
Mg 5.828253716149052 7.594955643399977 7.61092831620207
Mg 3.2210421399946934 8.556223560953889 8.78074189824665
Mg 8.480163745818379 5.995898623885062 3.1469891336026974
Mg 5.312529791591693 7.076312675795347 10.579131656138715
Mg 8.965292807288392 3.3063002652774403 8.091698400208537
Mg 3.6534058230288546 5.51505024186381 3.2071640194375544
Mg 6.659599703354305 4.842410259026311 6.666455755067541
Mg 6.091828270701795 3.701509581262825 9.508925953489008
Mg 6.148570173751801 2.7004302229799264 12.460338261950344
Mg 4.462868084694518 7.97900733985033 1.3714518142045646
Mg 9.099272608227029 3.8665131114820768 5.065231306745986
Mg 4.055659409560488 4.6185929978078235 11.730649785344351
Mg 2.5964800105692807 8.324557450437583 3.524816803750039
Mg 6.16559199036047 5.646945313333775 1.3600203367104706
Mg 2.7378593177844097 6.71829843403034 6.110044953688426
Mg 3.67795089994848 5.3634123716043325 8.634292486764409
Mg 6.245178538819896 3.873216381663777 3.8061194186348284
Mg 3.924828461213505 4.0153783495160695 5.819549887719916
