44
Energy = -41.87167159 eV
Mg 6.749451192528725 7.038266134185892 11.827274866430697
Mg 8.875937150762004 7.262956261068516 9.710978269869301
Mg 10.822267565631963 7.218387019388449 7.303674857556975
Mg 8.129464018952559 10.029681188278547 10.903338896414871
Mg 7.9115380848732935 4.36195511547681 10.444693412869507
Mg 10.793514841797393 4.754611406521965 9.228856674859307
Mg 10.10442065909695 9.939277316672044 8.528915105873791
Mg 11.133218264284208 4.550734700502517 6.014164816542434
Mg 11.211155520752415 9.598937612723423 5.660900917192326
Mg 8.315555190422332 12.297263479589619 8.897547721159464
Mg 12.123139290283524 2.373042739255896 7.891498807655302
Mg 9.119890372949765 2.235497519441813 8.282501372680105
Mg 8.79201708846215 11.26846350659386 5.989324158353751
Mg 3.716026318588555 7.446727628636882 11.948453542179404
Mg 5.915762539955766 8.738977512354223 9.369668703595005
Mg 8.365591791626297 5.165507534398481 7.48762732238127
Mg 5.391034081120798 9.821348339770433 12.292579515697309
Mg 11.397292781244245 6.902658108193383 3.9780871964047315
Mg 7.8180663405068715 8.44128133971698 6.96883141581931
Mg 4.903996496924124 4.8199680770334465 10.721658321651693
Mg 5.635621416459693 11.912563127502938 10.287949551102168
Mg 10.585374501401423 1.6522184789596452 5.445940324014658
Mg 3.2110679238125583 9.937473495565118 9.85319529656806
Mg 5.985557447018202 11.220351126569144 7.41747249044867
Mg 2.9160817269986126 6.827288500326715 9.221836480303834
Mg 6.208470494291157 2.998830047866612 8.308486968803345
Mg 8.655349103101422 6.316065134413296 4.846731679415667
Mg 7.944150824874336 3.0352609893004314 5.402486266163919
Mg 5.677816347270215 6.144983822808765 8.002896262168848
Mg 9.99233133045683 4.005456388574888 3.29718088083265
Mg 5.799533797311065 6.985741540136014 5.141798820244532
Mg 9.10024088442794 9.079363896899615 3.576728457969081
Mg 1.2884521968995146 8.794680130805682 7.633164358743265
Mg 4.189146369282648 8.941911134383533 6.703365383514265
Mg 6.402185964731446 9.961211185787578 4.622953502428922
Mg 3.415499863301635 3.977136802566422 8.169392401829311
Mg 5.121780734205626 4.0776973826104514 5.577365648350095
Mg 6.849641307170752 4.682277283358351 2.955248264350043
Mg 9.242785513396468 6.49578818638139 1.7916620915441723
Mg 2.8923589430544765 6.1573425220707625 6.217302023166592
Mg 6.581067981513289 7.698556892249986 2.240796372722159
Mg 3.7680847576990946 5.90976914275318 3.247870922371257
Mg 3.9713429393213064 8.97421504989597 3.153162971993856
Mg 1.6370747720894174 8.40360174497403 4.64318713423885
