46
Energy = -45.01212541 eV
Mg 1.9046369102713694 6.965328944515875 5.261169902381194
Mg 6.263505107409493 5.624388008870679 1.5541853347915915
Mg 5.500281151323396 3.6585170533641853 3.739170866134003
Mg 3.76351863520975 6.242295415132479 3.030939482611858
Mg 1.506622269831091 5.485548142860667 7.929900997665168
Mg 2.9330008002998404 4.125353423752084 5.395030817349582
Mg 3.0680738713430844 8.4445517171984 7.549596707968602
Mg 6.254487231843269 8.28455373749729 2.9262532142700173
Mg 4.117577463834463 9.33215249209402 4.786333422196808
Mg 5.330352434234235 2.424568256606599 6.528474888974317
Mg 8.353687596400333 3.7986196897234166 2.458283247385112
Mg 9.12098754789635 6.960469920146543 2.321888346569753
Mg 5.021745133207802 6.6023627614286955 5.71422519621031
Mg 8.157719696304792 2.8438821650052404 5.302021882496666
Mg 6.801900707047234 11.355373793640752 4.605083708048255
Mg 7.586995957374208 5.87912487970477 4.645915237588832
Mg 3.020603216822836 4.069312106787651 10.5466132680086
Mg 3.2564794400346395 7.044883643830373 10.237183373531806
Mg 2.669933965751896 2.560369678818192 8.066749568703496
Mg 5.3470417419497 10.722116387940842 7.242236546015502
Mg 7.319125220633726 8.70011830020555 5.718264461962677
Mg 8.944256593796398 9.806318421176908 3.0739899824333423
Mg 7.97047673680034 12.498773003201368 7.296868763908515
Mg 7.99883054486566 1.9063802704214232 8.12293419610852
Mg 4.388466116962811 5.125188024571332 8.106454590595169
Mg 6.410243577974776 11.891693558285134 9.825290271358094
Mg 9.87302342185125 10.770716427716955 5.743830270534265
Mg 10.431802751192391 5.0439823254399405 4.533137281650368
Mg 6.076290628265578 7.705845320315741 8.466689145159615
Mg 7.236438088450962 4.913883880758387 7.617330087775215
Mg 8.379244440883328 9.649662098509813 8.41659414821196
Mg 5.53546853757288 2.637248162089143 9.621701103190723
Mg 4.266389145117344 9.848107086589696 10.010777128480594
Mg 10.973483809083083 8.110595621345892 4.5543134049871306
Mg 9.298330136434569 6.987788352476025 7.097202074503114
Mg 9.09840188844427 11.678182314561386 10.960245088753672
Mg 5.933426302597953 5.492224968890038 10.739278889054015
Mg 10.725055472547758 11.684970785992043 8.54101073555638
Mg 8.700174472334565 3.9491810670631127 10.2077399674118
Mg 8.533645324961446 6.91685397845475 10.253165999050108
Mg 10.218607195904534 4.000280213189008 7.491117240559491
Mg 7.07751410001115 9.286215383496799 11.2471853786459
Mg 11.703480379643239 8.968375793565084 7.571240139214156
Mg 12.25232790082443 6.165212701346134 6.578562755859484
Mg 10.613614957700888 9.136740062278228 10.476342745129415
Mg 11.258544688524164 6.234793268849462 9.416297445781137
