43
Energy = -41.36237368 eV
Mg 3.263084492842416 7.885676609696678 5.476860481860453
Mg 3.5993293923996643 10.613934949479331 7.078951477033548
Mg 3.7352061163423387 10.513823953559875 4.034018466737832
Mg 3.6685421871953268 7.496753845437423 8.571273619169611
Mg 6.472384732417512 11.876659841828099 8.253018628384108
Mg 4.153485889667725 7.840533296317849 2.420086754889136
Mg 5.658272920656164 6.149388602705569 6.185839411615836
Mg 5.158134163454881 9.75509042513299 10.052703579999191
Mg 2.623668159753989 5.083133618629996 6.970783781312095
Mg 3.678173681934617 5.01993312017321 4.108628092375453
Mg 2.312918438147899 5.142653834264959 10.097667842885402
Mg 5.955086827017501 9.073434532858576 7.177500575924936
Mg 4.605212636499906 6.43646371491832 11.410828499597837
Mg 6.361441819673832 11.533094665442153 5.188922522043468
Mg 6.254546723100521 8.47272220642237 4.416792147284696
Mg 8.25110104344924 9.851445911560319 9.687801613773141
Mg 2.6578349402672106 2.5797971030441715 8.744855242989807
Mg 6.000626704446409 10.549933671651193 2.169925914199426
Mg 6.65487337423396 7.199875428556685 9.371662163438446
Mg 6.196023708506319 5.722473084958106 2.7652933874117616
Mg 9.035884829280334 11.048559388582502 6.672350616478739
Mg 4.525878283597339 2.7517132208304984 6.220997988409714
Mg 8.079416669039968 5.234860360608077 7.557693287513159
Mg 8.58513741577453 8.149562591250122 7.165407712864849
Mg 5.360109757240421 4.459831979641783 8.678567362084479
Mg 8.76068492369169 10.088141753894906 3.7536220069122797
Mg 7.667333868189736 8.041349214975522 1.6975346984568769
Mg 11.03351481387557 9.203023278994657 8.473465954019987
Mg 5.152151643160502 1.1418005365773276 8.83621798283904
Mg 8.537343877541904 6.652450619985806 4.768075280823723
Mg 7.012160466034751 3.730143410312764 4.734299733999325
Mg 9.601149822251584 6.9229531967064935 9.973026839734883
Mg 7.59060471863531 2.213758860080515 7.3718231734980675
Mg 4.545807381775476 3.2068446187126023 11.248235790996082
Mg 9.685218374618698 3.792452963992622 9.590051517585781
Mg 7.335878283886412 4.936028513098639 11.241375755264523
Mg 11.033477607429855 8.85308930012587 5.388876978789441
Mg 10.548412006467764 7.934777455289388 2.4851440168925154
Mg 7.407901740130266 2.0800960916668814 10.422531245986486
Mg 10.963691795583715 6.233301445127543 7.260164616020002
Mg 9.905609003014456 3.82909937811437 5.588058426010482
Mg 9.154594758340467 5.032217338530162 2.5079860760675383
Mg 11.653537819448633 5.967056951596939 4.339766580214291
