41
Energy = -37.35065825 eV
Mg 12.607973036230456 6.658076178938437 7.28585286228532
Mg 10.49162263032862 3.6439920384455813 10.535621855367927
Mg 10.985669633559791 6.561341860670791 9.823112410385024
Mg 10.642948746914419 4.2529480931032175 7.6898558215543
Mg 11.853756119047032 8.682592254841403 5.166338372285146
Mg 10.254302075403894 8.6056380309732 7.716696384244772
Mg 10.130595478026244 6.167283137623952 5.50309865775326
Mg 8.073882485331133 2.623580301035904 11.867428615979195
Mg 8.457773491912404 5.695019407505266 11.184608049429043
Mg 8.744093305588752 8.603035311085247 10.289475652969083
Mg 7.666941183297562 3.2913850794359427 8.898061219569351
Mg 11.077740961368082 10.65893470254387 2.982565589193812
Mg 8.178873994193015 6.27885697727186 8.036367815116838
Mg 8.351004932634552 3.6929360585358495 5.891158406184386
Mg 9.706257883044081 8.013382908080402 3.0107183501034154
Mg 9.854719027633625 10.943976240362467 5.755047806769725
Mg 7.902965436824697 10.426205944886162 7.885259544251558
Mg 7.94365329098601 8.225296321396366 5.649950647386571
Mg 8.136124871293772 5.54298411993106 3.2793948595715823
Mg 5.786179555056427 4.379553821955151 11.46450310859983
Mg 6.043909280981125 7.3287632851129345 10.608679157936686
Mg 6.393950169348427 3.047022171504383 3.7104993389238135
Mg 6.033252705365648 5.7386731466131895 5.458539154616134
Mg 5.688026908783118 8.187164210318484 7.672789688135213
Mg 6.1741855392613445 10.312054749562526 10.281551450251094
Mg 7.942607070182834 10.649895004995992 3.3656857787129972
Mg 5.42279391419786 2.921930725702967 6.574779128364522
Mg 7.224849021256731 12.55454261253402 5.6065610082317905
Mg 5.331704166518796 5.209771450787886 8.548722373878942
Mg 3.4505605328416924 6.086725508347782 11.740946552152405
Mg 5.23185612393514 5.480321135469024 2.195817435485373
Mg 3.5129951143759346 3.815160439429833 4.102133300720709
Mg 6.539457196917944 8.14037547420107 2.8420005418629963
Mg 5.505734749359585 9.926775386353667 5.142951741992451
Mg 3.1800181254754256 5.627031304555778 6.478180752995775
Mg 3.0301517330993772 7.151231116046041 9.04400384203621
Mg 5.2324376337009175 11.710494089354418 7.640321803801519
Mg 3.7903009104833654 9.013950481455849 11.70898878906547
Mg 3.8708228877568374 7.362468246059061 4.124587573479407
Mg 2.9694891235428815 8.816620768129122 6.5069873139804
Mg 3.222687195830703 10.219941629493324 9.104709437383601
