42
Energy = -39.28758476 eV
Mg 7.661952622741718 1.9538085544090438 8.95400337138636
Mg 10.423950975314089 3.199695888155452 8.691006716882386
Mg 13.08361213319155 4.5705612613387645 8.472027900017217
Mg 5.097061226666554 3.7885952162875194 9.75086337624958
Mg 2.7030106494876507 3.284499613214047 7.938853067872009
Mg 8.397799039901141 3.7231581456515013 6.438376612601324
Mg 8.02214730777632 4.884841475437209 9.889353484079983
Mg 11.355353346608037 4.593543983091234 6.044943907683246
Mg 10.928536275835624 5.823320109314706 10.18234790646451
Mg 5.588232590422011 6.696826938645507 10.766722912948595
Mg 5.502124862374058 2.8516960416112553 6.91474264523196
Mg 9.437564088567468 4.724120099496229 3.6494107079132014
Mg 6.401480679053315 3.9795104799454233 4.208899085947356
Mg 3.1688780737714386 6.095623331535219 8.868607416466778
Mg 7.192236347237927 5.5062729524442515 1.6556364757930613
Mg 6.0946374826784435 6.060665092941131 7.543607837961357
Mg 12.186997617761515 7.381869817696043 7.754948044951243
Mg 8.785157076331844 6.992102990653998 12.049701719519774
Mg 0.8229952540438202 5.4726844884225665 6.893561153647637
Mg 9.257320539498366 6.391697683654055 7.496522467378629
Mg 7.721094176547958 8.121379329767988 9.344553345788887
Mg 3.7708834839761014 5.103338908693659 5.716063713459791
Mg 10.581802394388365 8.812054792833075 10.029781445090052
Mg 8.5928684953747 9.869669155124424 12.223124361292845
Mg 4.6395109436103965 6.102524152459858 2.943057894208437
Mg 7.432556739736132 6.779240230078025 4.89235745556239
Mg 10.610098519452356 7.346407556311654 4.940166409848983
Mg 4.4452444501818595 8.754470883377367 8.564791156274463
Mg 1.733273367745214 8.262307827581536 6.979576464368596
Mg 5.9417584616741985 10.061637171492835 10.917234497922085
Mg 6.810874229101143 9.123606808140348 6.747775123670809
Mg 9.314511924550436 7.457693226571856 2.2086999598397576
Mg 4.450904160123229 8.048650232073605 5.264901851322768
Mg 9.859710710522087 9.508648324677843 7.08934796395067
Mg 8.348784301584287 11.09885053681078 9.271733779693006
Mg 6.405434728853976 8.439705889754629 2.3605206438479045
Mg 8.576564313272128 9.65748656694529 4.22260694830383
Mg 5.469043473653614 11.651486534696389 8.385032430595793
Mg 3.2700094264352657 10.767284488108114 6.308676820217975
Mg 5.639032735163462 10.73169469096974 4.180307735867395
Mg 7.826301563610528 11.89970830465187 6.315691685455583
Mg 4.949828903808777 13.113507340110374 5.778009662291315
