45
Energy = -43.2484279 eV
Mg 4.360098136140291 2.265915627550427 7.0775512598714245
Mg 5.86076224477101 2.5772791579501706 4.552998413219879
Mg 5.913988801763831 2.909503486815311 9.577784066407292
Mg 7.278104941897496 1.6325492422909622 7.115800982022439
Mg 3.6828095165380197 4.682384069475676 5.210486610251134
Mg 5.090651217767836 4.633108993162633 2.5573755301626733
Mg 7.985631174602118 4.662611528877819 4.079325109780344
Mg 6.179826598532036 7.043165798337309 1.3907803122654854
Mg 3.832261053733987 5.002753382785768 8.25550842732418
Mg 3.650628844406523 7.383698245885651 3.121679193518558
Mg 5.996139131965003 6.838965319359874 4.895512444107618
Mg 3.3930341405820017 7.524057251974348 6.370807990889972
Mg 7.814540716414662 3.813592135471787 11.828892971292216
Mg 8.411607609678486 7.717669109072901 3.3110904959525285
Mg 6.801523733075575 9.525282123336675 5.766177759759275
Mg 9.506894471021985 3.920688414747149 6.890800138110085
Mg 8.190556513383045 5.547024074208348 9.297274423690732
Mg 3.227626940089429 7.687177518965248 9.470623925843224
Mg 6.554924024079384 4.710227248792476 6.911454043803293
Mg 3.839094995294158 10.058197624197582 4.623525261420948
Mg 6.021641963334539 9.663081144968112 2.7103534771727253
Mg 4.395390117374574 12.787253759972788 5.8817115959076585
Mg 8.917926974401585 2.3131191725765814 9.439626645956874
Mg 10.928307212713445 8.996386454948915 4.250610284666953
Mg 8.781406861309828 7.129797471404564 6.571660575387499
Mg 6.121210804150442 7.662991367217579 8.20265919539473
Mg 10.738167451090053 5.821076009018164 4.552010714118307
Mg 6.819978657566011 12.284779955774145 4.307137932193222
Mg 4.955555730311145 8.410115797596415 11.930543303639528
Mg 9.42265463618442 11.164957667474514 5.785655845678134
Mg 3.1112730441170977 10.38948468274501 10.493658245870822
Mg 5.434026935073135 5.648176587013406 10.749897789063063
Mg 10.923351875728645 4.390002581882633 10.08541789883477
Mg 13.17717786066471 7.336232318638844 5.320061827312426
Mg 4.182232462448406 10.215740203768224 7.6061090144104435
Mg 8.841717927504497 10.71767216494197 2.8258175941581825
Mg 6.9385882058226445 6.352333385683776 13.292576158126282
Mg 6.137330304241223 10.439488238604309 9.913078751887225
Mg 6.893252276037109 12.08393104098059 7.416215572879903
Mg 11.370475644409646 9.013196240788524 7.200471618513215
Mg 8.671054828342884 9.710322024265949 8.46111023937087
Mg 11.70494673330955 5.943138589864925 7.531675316612594
Mg 10.580235003426242 7.557601752741805 9.751217114512578
Mg 9.719169519391762 6.055728149123094 12.274724372345625
Mg 7.831568418030417 8.129845099485445 10.99320848195596
