41
Energy = -38.83387653 eV
Mg 11.189884445077253 4.5173969290246045 8.714941409349194
Mg 8.707933652424957 4.223801759976959 10.42761678791664
Mg 9.398847647770705 6.939890936222759 9.30219505888177
Mg 9.649004050212671 2.07556953810274 8.459315119039257
Mg 7.181207349837959 6.925930912839373 11.369776313490592
Mg 10.909494320928458 6.647578932163715 6.679879792527228
Mg 10.452984304512716 3.5889478618201127 5.744586145935172
Mg 9.53543420092691 10.76848678362386 7.59124235792557
Mg 5.881195666028131 4.180983467314554 11.387534555537608
Mg 7.607721073932947 9.43104566136965 9.620582714474986
Mg 6.615046946916239 2.525164777355746 8.91779563573403
Mg 8.249149272451819 4.785765781527885 7.057365465934415
Mg 6.2395650547878745 5.973155391656428 8.563023634850243
Mg 7.744605819869101 1.598589132378765 6.265415738552086
Mg 9.164588452408193 6.383375983226097 4.297751476847412
Mg 10.241089670864568 9.271470875010206 5.056828178806485
Mg 4.18326202491077 6.545024568276838 10.508284717974933
Mg 6.647023374511876 11.618204189455959 7.721652344340231
Mg 8.03084285315385 8.044555102141754 6.823505140182954
Mg 8.420211220741324 11.67689497964773 4.847143769645819
Mg 3.895610264608387 3.66659233163865 9.20288501565395
Mg 4.241470899742327 1.2392146914889455 7.007547401171395
Mg 5.642619062673843 12.882789264773782 5.079795256419308
Mg 5.269833564069722 3.947220001327674 6.2840123668591
Mg 3.7588070144091423 11.273032416856836 6.797583601844919
Mg 5.622702941723148 1.4293078231331808 4.257365696951278
Mg 6.020571253432836 9.729793485473147 5.336741717006051
Mg 7.945760659663583 8.914783966470136 3.1536812113361155
Mg 4.99277079272881 8.770297116645263 8.092834565893902
Mg 7.621830820407313 3.802814812929753 4.115153750628196
Mg 2.0543569183746655 3.523094635002422 6.89577319639328
Mg 3.3091877713166786 6.251116388271923 7.554203852159859
Mg 6.232920148642581 11.333645013089923 2.6096140757093114
Mg 5.908547464814632 6.634934284648276 5.224682748369071
Mg 2.901192608092353 2.408189698769126 4.3739987053098925
Mg 6.910001490923957 6.232272233266952 2.2518764716450503
Mg 3.5248566898285865 10.990199481941032 3.7586282787767336
Mg 2.874052368090015 5.571403819365077 4.662728533512554
Mg 4.859653372910028 4.2232821125452285 2.9690501050929603
Mg 3.129514058384316 8.532816920136675 5.543855434640221
Mg 4.7641564496309385 8.319996652842674 2.792306780966868
