45
Energy = -43.56725618 eV
Mg 6.682366729992265 5.285678621409941 1.3297067069790602
Mg 6.02455221433223 8.050951738693715 2.2491357754487997
Mg 4.08444229602932 3.8251858769965543 1.8735770102579166
Mg 3.208847605351312 6.700761493381081 2.343414528326882
Mg 5.67188295749998 10.976769959874318 2.359351293358752
Mg 6.79577562179266 2.765351089619505 2.9241733399520955
Mg 8.189010651599629 9.868834832661108 3.6037571362755876
Mg 9.376819275645024 4.127644870014678 2.3436285946027704
Mg 8.18177619057101 6.554765086944282 3.727061972763948
Mg 3.819792853299635 9.14675590810992 4.02073789244341
Mg 5.181316600999651 5.62180890765898 4.403044739138723
Mg 4.28566658120085 2.138508135485824 4.481336011911877
Mg 2.1689992440252563 4.350885415120463 4.0342939843143375
Mg 7.1643044944484755 3.9541016368636734 5.859074485904752
Mg 10.023380190700916 8.275998604194886 5.4368026628797645
Mg 2.6353278672181566 6.858768838278049 5.9032649805552575
Mg 6.45896659052608 8.269133865310907 5.54859745320265
Mg 5.725565657510204 11.364824894714323 5.239783074464863
Mg 10.469043978845653 5.162791955211518 5.048361482882369
Mg 6.8230117835266055 0.6077066180317212 5.04868622829914
Mg 9.49301364762358 2.1737058997895824 4.6612083715733865
Mg 8.424255144435454 10.628962305204519 6.565382706055049
Mg 8.525469312653144 0.9667833707732906 7.346417607920289
Mg 3.986087396054999 9.555036718060562 7.008563302395803
Mg 10.251148262540859 3.4576450590784304 7.4409899549088365
Mg 3.489544629753603 3.868687258419847 6.7013806227282835
Mg 11.344206532819898 6.44155856114166 7.707692096967174
Mg 5.190883729734285 6.2844460189184295 7.60404266258767
Mg 10.627039852239635 9.303620917349383 8.146072825746222
Mg 5.953808213052933 11.659181171498679 8.232857709091688
Mg 2.0710925506943885 8.110531521534876 8.704527187239442
Mg 5.436672850668387 1.684462487246636 7.469954254938948
Mg 6.693352006849692 8.684851206942568 8.5889951181674
Mg 8.294323752626616 6.410953978768352 7.351024047528796
Mg 2.0184343982913933 5.228592424367671 8.85700866728373
Mg 4.133823722851629 9.857486890864138 10.055010064006174
Mg 8.579239567817757 10.83086710364127 9.727202865524355
Mg 7.520353794871936 3.399673957924904 8.893203791939632
Mg 4.632598715981843 3.9226340496995906 9.543452971841187
Mg 9.840069090208797 5.078335962756532 9.928667563663847
Mg 9.302594416333744 7.921011569933188 10.416784173900032
Mg 6.183991437837621 11.664081771162548 11.27171896391214
Mg 4.102547273402095 6.855586849991463 10.591736433470016
Mg 6.939882477701083 5.9605134586162345 10.33757993652042
Mg 6.537577789657236 8.686421089555845 11.613596697941666
