44
Energy = -42.16438507 eV
Mg 10.317081552430205 7.734865307349728 2.3467156627720467
Mg 12.08462470296345 6.065922964714175 5.4745954460310395
Mg 11.79510594310136 8.955992111391872 4.87135685993077
Mg 10.490638158959117 4.910402483351036 3.2598636158735292
Mg 7.158093388889065 8.831856983093017 2.7486235317511944
Mg 7.6541243296299495 5.850464173695283 2.7048683564845484
Mg 9.683621929331142 10.480227066716582 3.4052031358377026
Mg 8.260467590799134 3.1615916660543317 3.9785122341122174
Mg 4.691113680768113 6.853085466576565 3.4414737794042987
Mg 8.915925755840435 7.656074999728137 5.033837625639686
Mg 5.165624297432727 3.7796830894549864 3.744271549198569
Mg 10.950420489368645 7.8717579085903004 7.708767276353598
Mg 10.841584374264826 3.053941486120321 5.848983151340862
Mg 11.903469300235466 5.036180239946713 8.30612911355603
Mg 9.331942619272256 5.3522641547520635 6.842564416381593
Mg 9.570595357197016 10.337173407351452 6.629119160506437
Mg 5.971872700395028 8.456959960237207 5.725765390789458
Mg 4.394141066162798 9.951993427898906 3.711407775902177
Mg 7.859749504752117 2.453077335190627 6.785125776090083
Mg 7.115047855087237 11.14908797540774 4.892876575060205
Mg 9.713177857037309 3.1439710867977344 9.079058718482207
Mg 6.693100060978207 5.481062341370269 5.6048480698932
Mg 4.849685082110051 3.2083380717906813 6.983134911305279
Mg 7.732854124906886 7.721047209472337 7.876827745292643
Mg 2.846754853459229 8.293276119998374 5.990544643898338
Mg 2.9699931178528787 5.13021832305862 5.343694588867019
Mg 7.052280021337889 1.9462084372723167 9.719418263494807
Mg 4.258896976560695 11.208161244325114 6.4293270504680455
Mg 6.901600950672016 4.857236408870119 8.614607641512261
Mg 7.047012445645312 11.152653714370661 8.018884044002224
Mg 4.584760297470536 6.290851516007852 7.553047323629421
Mg 5.014137281759515 8.961533449944557 8.54529972503838
Mg 9.4556794433602 6.15032429626905 9.914065736099879
Mg 9.101487662732199 9.523179169017679 9.781312562037964
Mg 2.3765713940956856 4.484974172892629 8.431170094129431
Mg 2.046056685284766 10.286807190334724 8.306718608194343
Mg 4.414905631382114 3.119295280353367 10.129381635579323
Mg 1.97529484341584 7.438777687091538 8.929352032663235
Mg 6.835755888957061 4.543352445809197 11.534409982167665
Mg 4.296042965490527 11.828905814236917 9.449202593942852
Mg 6.739995346678229 7.506244802791494 10.831051674702698
Mg 4.084259537727286 6.09683567143747 10.736909587456259
Mg 6.445272757842421 10.452370986466942 10.954113111953108
Mg 3.568990491375573 9.1484420012515 11.091873419133943
