40
Energy = -37.5397417 eV
Mg 6.082968647731457 12.660043801965315 10.522002518010463
Mg 4.54671894874074 12.359157110719488 8.064556817196046
Mg 7.500597284077309 12.540725431066397 7.704661792697904
Mg 3.993605782364902 10.212959392363 10.346537004047278
Mg 8.856035556870296 11.436450867422328 10.176037146424427
Mg 6.708895497150832 10.156624634625288 11.887707420786978
Mg 6.494304089560417 9.834879658250975 8.700331450303235
Mg 6.61759081569494 9.819212488923837 5.742010533531547
Mg 4.2840043304860576 8.439570202736254 4.331974655456018
Mg 3.5485492337801317 9.691261708493432 7.222648397983966
Mg 9.464678276968964 10.147653883815426 7.363663656360143
Mg 6.801453930653531 9.078869498792905 2.7512483486592614
Mg 5.791704046548655 7.4505902183250905 10.39493429013435
Mg 8.845270948659005 8.401639816717408 10.320662358940556
Mg 3.0067912058546007 7.245679866652301 9.272167585562274
Mg 2.301264314992051 7.108492664442554 6.198205482113967
Mg 9.044497730346611 8.30103497577364 4.574829329190323
Mg 5.03063769410011 7.0218470833484625 1.6684840446663112
Mg 8.05225339358878 7.502957072151139 7.543552941219615
Mg 6.587746210672328 6.28739570607256 4.696443332869906
Mg 5.181470845692655 7.203314934986179 7.190799045671618
Mg 4.858586610640718 4.6130125599365215 9.697901553115852
Mg 7.964241637244467 5.370305299670062 9.891852839445729
Mg 3.4740827620139596 4.487378783445883 6.91258127998584
Mg 10.657590441740716 6.348029638396607 8.984378407387595
Mg 3.6753430844801716 5.453095994427276 4.005274306615592
Mg 11.252860219149301 7.752943512523195 6.4195834125116
Mg 8.112426945540102 6.36294920552556 2.078535980377473
Mg 5.816120736410952 4.254412700873042 2.1080097071308628
Mg 9.135738654621 5.271285444774491 6.206699197416276
Mg 6.592014774339571 4.553369920921559 7.2469307720507175
Mg 7.209597159931781 2.3867506689743947 9.519929107109382
Mg 4.966061556556178 1.9628793852058937 7.721900526059141
Mg 5.407700408879706 3.0184320533699682 4.840323935985159
Mg 10.673899723741895 5.727027152073317 3.844120828476102
Mg 12.077931483406909 4.8859752601987445 6.784567690371068
Mg 8.234938509759706 3.6465877077454083 3.755953005529423
Mg 9.854594253517407 3.32525330914501 8.39705370320095
Mg 10.589947443123078 2.6824757016525975 5.3639048885741065
Mg 7.8465411191055265 1.8553622275024877 6.434976833705814
