41
Energy = -38.53083133 eV
Mg 1.9697350256559434 5.613732100047151 9.130536375942723
Mg 2.567490243161418 8.59418291989972 9.720093907714922
Mg 2.284588608140961 10.459109743308044 7.321006109892165
Mg 1.8701933734892942 7.560990632995932 6.630940909062944
Mg 4.679886935465926 5.263304307540671 10.389906511339818
Mg 5.386657850800693 8.319331723374653 10.962969016929643
Mg 1.4891746781357094 4.579624465710933 6.216378391296336
Mg 7.257592132330183 4.860549654179223 11.725124675474994
Mg 4.499371694670634 12.051917834919015 6.0676210484705075
Mg 5.024299831017934 10.241847931256304 8.628768947636425
Mg 4.205349561893464 4.121637630357375 7.572749758106213
Mg 4.610141475722234 7.186278999399404 7.966220371064324
Mg 8.236656352414478 7.902043854535423 11.930705705029522
Mg 4.291777454900401 9.063844561015769 5.474678502589966
Mg 7.275604579447283 11.778814333238188 7.358657654344988
Mg 3.961871442464577 6.112807162307105 5.0004866329785935
Mg 6.7831049175477025 3.440129763461234 8.949673674818355
Mg 7.3199575065630595 6.714078508384783 9.20582546897232
Mg 7.796988522935209 9.995519771583755 9.808078663899918
Mg 3.6769434767061044 3.107895517065466 4.6567428927429795
Mg 6.993318033984289 8.752680211382199 6.816589126916043
Mg 10.248926157277474 7.771372970295346 9.69258555485963
Mg 6.526110173574297 10.687850420257016 4.257015054759865
Mg 6.628451543350863 5.602986900189198 6.340445279403404
Mg 9.754099833119055 9.913106775449151 7.502069042820652
Mg 9.455010913244328 4.620458813089247 9.815240399101295
Mg 6.347012993302137 2.5564303905558554 6.007888206980584
Mg 6.311463220938931 7.6283681753214 3.715896084539053
Mg 9.21791914447091 11.82009769054405 5.048741696298442
Mg 8.965615465992588 3.7590372589446894 6.893279476351512
Mg 6.063797079381795 4.561864801251244 3.3938100568482397
Mg 9.364211898052028 6.84538929486366 6.917365016516656
Mg 12.27792099650822 8.125624737639725 7.430521176675101
Mg 8.9764550090568 8.85028591336832 4.506075541570444
Mg 11.62863568527402 5.10514517990095 7.974840555022076
Mg 8.74059292273465 5.843742162835735 4.084967756917288
Mg 8.551955867656037 2.7858727662236147 3.8904923459369916
Mg 11.74372389124394 10.137525095320473 5.099251495761239
Mg 11.18810379228658 4.139474158994019 4.8241755960405355
Mg 11.459662811014741 7.200319358571949 4.5028912177044305
Mg 13.652653261919259 5.697586304230177 5.9295558925210115
