47
Energy = -46.27002906 eV
Mg 10.588679917023807 7.877748968612277 7.245479748689279
Mg 9.899029070174814 9.72983126396099 4.935218595364825
Mg 8.904850141148549 10.578525681697542 7.767426968015313
Mg 11.298834721041596 6.968338092450522 4.447554700731873
Mg 11.808523422877476 6.095281599000436 9.305377717086046
Mg 9.528833678035673 8.197357331920845 10.027656786789906
Mg 11.362941362872217 4.855321296031439 6.628105941015065
Mg 7.8179618784934855 12.015958426382408 5.292332683256447
Mg 8.45551179929091 6.310764957333742 5.530717535207878
Mg 7.029741497400519 10.739600551066196 2.6319270243103365
Mg 8.968075700551362 7.882847225165099 2.804552269449561
Mg 10.11471529754897 5.7318111167768135 11.65007900546213
Mg 9.988126883307737 4.153585091483717 3.9096988350217887
Mg 7.4591458757917595 7.946022527531125 7.781329977455913
Mg 8.648173324509447 5.274248486864195 8.453776473808908
Mg 10.63488092548567 3.318959561785881 9.55113962944163
Mg 4.829153061091683 11.389855329828453 4.856026691324961
Mg 7.230561321745137 5.344283122073032 2.8556642530282343
Mg 7.100488866853261 6.605999629160535 10.869077970439324
Mg 6.476387353136826 8.061032105099184 1.3555282865660305
Mg 6.93080566465646 8.992039955390522 5.014692355958904
Mg 9.501431800096055 2.564839796133642 6.548323376362421
Mg 6.095020520953878 11.746319235924215 7.763954138399455
Mg 2.9875227930872654 11.882045394335439 7.17608146252494
Mg 4.255780762462894 6.197533242220466 1.711830147584185
Mg 7.6085269434595375 2.2351546415405985 3.848105168124605
Mg 6.698656520807718 9.636233690868849 10.066882067325682
Mg 4.259338934069261 8.922693230888633 3.168670284764028
Mg 4.773464595334964 9.035492354554417 7.152734078348352
Mg 5.318720101265024 6.53082037263889 5.086791002059414
Mg 8.270725041844786 3.575526875928878 11.618344976126277
Mg 4.027365123215166 10.870825359610215 9.798671628939866
Mg 2.2685162603134974 9.475401010895654 5.350933350660504
Mg 7.1399008039784055 0.6771125584798309 6.554645646312036
Mg 5.532234595941342 5.813431435802632 8.031526696996997
Mg 7.724436216869945 2.3162566108743037 9.003469791994501
Mg 6.7069783306675745 3.9206277416372433 6.1354095889493525
Mg 4.670242312520401 3.857623429438401 3.4319171491383873
Mg 2.396003000983997 6.537708467649403 4.061047354637608
Mg 2.5738696394380836 6.883426740150549 7.08666816703477
Mg 1.879908510734189 9.437006350681502 8.438066691402572
Mg 4.1363334368053915 7.690656663078529 9.944357407175255
Mg 4.753018497938604 1.4962795641950413 5.194878559920124
Mg 5.5312213595582005 4.033366360971838 10.56828498108094
Mg 3.451240942615082 4.191026866513767 6.149631131253472
Mg 2.919535520745685 4.758718558539269 9.20763251193703
Mg 4.8199529264148575 2.347758278505229 8.148839369957349
