46
Energy = -44.32294639 eV
Mg 10.813189451446036 6.6724335065934675 3.323996578371406
Mg 10.237291579066754 9.636315329514645 3.08032146852694
Mg 8.301635213307405 7.892422591307606 1.633396304312032
Mg 9.177915251086707 4.785679494541618 1.7995606731601228
Mg 11.309064927085664 8.509988246440523 5.76177921117777
Mg 9.295283030538124 10.810921972966785 5.697077423537085
Mg 7.30406525472377 10.457286030444909 3.264220373083433
Mg 11.643226488246517 5.423226393705345 6.069882197556159
Mg 8.308704153174979 7.761452131082935 4.7768444385742805
Mg 5.265015162398536 8.390184243562421 2.2169711225169855
Mg 10.845014883802133 4.594884862670254 9.102901320377791
Mg 6.612528731318622 5.806334821815896 2.875141541762173
Mg 4.2939460531498925 10.800134928978078 3.853735712539939
Mg 6.379819022504807 11.719614485681872 6.00201230597089
Mg 10.382280765576372 9.716996581638245 8.44135467354661
Mg 8.37996848223309 11.937842823827317 8.350998973599847
Mg 8.750110893318196 4.6418556023784285 4.934311223787498
Mg 9.057524773060996 6.590600827774608 7.499433959079823
Mg 7.319632998779277 9.009408949029263 7.567564067225964
Mg 10.548338050298891 2.7389079579698903 6.7400798265047355
Mg 12.130229002234195 7.309825175221966 8.405167079107635
Mg 5.448779061540989 8.503787483424926 5.286612678647278
Mg 8.065787280521448 9.71896099624301 10.489959669620337
Mg 5.577718097772066 11.268969267617692 9.01022489733901
Mg 4.244217815612477 8.608580189476461 8.291525105047876
Mg 5.910609977938103 5.792755570013344 6.60194011094594
Mg 9.87010640974887 7.25031845264182 10.465750650646438
Mg 3.9481197826089045 6.049976702344521 3.99189374410156
Mg 7.936892004447569 1.7307073517397074 5.728705143755961
Mg 2.437775645501927 8.598717116844036 5.5018752520972445
Mg 3.526808360961127 11.154670212431867 6.764929509807426
Mg 6.5974488177958746 6.632048961272284 9.539752746073798
Mg 7.9333496248430935 3.802687285852966 8.078225044946796
Mg 5.742686150783204 3.3812585520125453 4.469579344504779
Mg 5.217343813210389 9.094655604062694 11.172842392223025
Mg 8.553731214229643 4.554686996709476 11.097408276587098
Mg 4.261251251317683 4.165000130623136 9.108822791225755
Mg 2.49840796784501 6.261119661343155 7.771853049544247
Mg 7.498500467036596 7.264170748956028 12.359307259133198
Mg 3.2511763508950318 3.8186782456686563 6.116539631379013
Mg 3.5228395045016456 6.644408979913838 10.659507011698103
Mg 1.2746015957335888 5.891190358918523 5.111035995925357
Mg 5.430840525082821 2.1292138021926843 7.265875905124374
Mg 6.442665747422192 2.425941565480395 10.244442070458028
Mg 5.606358008780214 4.764153326494734 11.90830473788648
Mg 4.685475728425397 7.172420341255344 13.416573519328603
