47
Energy = -45.8010862 eV
Mg 4.538403607889799 11.394711250008472 4.90089158163868
Mg 4.417921875652574 7.480403279680084 10.804575355596372
Mg 9.57870618130212 2.9856302572039373 6.693549411616586
Mg 8.471326631011658 6.662107642093766 6.362651997395577
Mg 9.394765451391631 7.271834509945658 9.410883649644475
Mg 7.4738635212143025 12.09550516168263 4.725833624401822
Mg 5.960799500104257 12.004429795363107 7.396767683904881
Mg 5.891752919136588 10.80095199836749 2.320135317041485
Mg 9.899206589680235 10.531147199648888 5.1257091350115225
Mg 6.779244973074884 4.294086211768413 7.8297489250059105
Mg 10.657150338434633 7.788545344526403 4.372273995660101
Mg 9.968729942212683 10.335845402036968 9.770589849388626
Mg 10.858337819887952 8.681518605644174 7.268404163049597
Mg 5.1658104726666245 1.7815244664869778 8.874611799463356
Mg 2.4152428062275058 0.7246329526277769 3.7358746288421583
Mg 9.380681112787412 4.222957323519914 9.522278202491961
Mg 4.4342559160322494 9.064915525024865 6.854351763195963
Mg 7.028444915263309 2.937843588586296 10.986492782639559
Mg 3.5385593473870687 6.103611758113831 7.8518471547646165
Mg 5.966162131275814 7.852019949898349 1.9516708101257898
Mg 5.21549341320992 1.7888914947997723 3.578920631322571
Mg 8.26192215140643 1.3737908109443033 8.855674688002226
Mg 6.762979719797047 1.374994968504154 6.296166462877984
Mg 7.523486842650688 11.918230647633177 10.003893414043443
Mg 10.509158870972799 4.774980307477084 4.458650713737279
Mg 6.907013118009617 9.000543403504762 4.916377930468965
Mg 3.7931715265085675 8.707588401966895 3.866702163588761
Mg 1.4631641241474456 2.9589029436266934 5.488008661109399
Mg 11.16177190333531 5.585506663200152 7.300119582243617
Mg 7.3965516045480015 8.976036033915012 10.938437877917949
Mg 5.574882714494345 4.740716430349772 2.6317102305269304
Mg 7.821178654352178 9.556806177801352 7.6821610148409984
Mg 8.225380830481946 6.4455045753797435 3.251567424843753
Mg 5.582030206092702 6.418767833813613 5.326291306004163
Mg 5.039088209993696 10.171776171658877 9.584205272458249
Mg 9.113143512725792 12.35812827570346 7.49108769442528
Mg 4.5382945679605555 4.513351450948744 10.232887028153199
Mg 2.5868530498572806 3.181518213812853 8.24460926381106
Mg 2.550590173631293 5.859687802857508 4.891960432046213
Mg 2.797566301468944 3.5347822029849647 2.7530642386347317
Mg 6.2633575015158875 7.2010341051159035 8.419983665978991
Mg 4.502633521712904 3.672829785587495 5.849856626256124
Mg 8.65782402766913 9.475170906080983 2.5472743272584575
Mg 7.165002622647213 5.9141197727935495 11.086690450146154
Mg 7.555074522435593 3.8677794620440906 4.69308086861501
Mg 3.6100138537749284 0.782489432658626 6.427808605025955
Mg 3.2160737234842203 6.444916824127438 2.0367349163014214
