44
Energy = -42.71483775 eV
Mg 5.344606652979958 6.712770686353039 0.7780158257397274
Mg 7.594614020934416 4.8484142687488 1.6044824618459237
Mg 4.615029435158503 4.070053971713142 2.044684155066476
Mg 7.50274347412815 7.806449938488663 2.490069805272746
Mg 2.8175533207087864 6.735449298981072 2.372686534735256
Mg 4.608681348238326 9.25791431507845 2.139862673018635
Mg 6.882450066572381 1.9347092224525937 2.5163136378069813
Mg 9.703973908940288 6.040526360118588 3.374985674176295
Mg 6.807631539842689 4.689167741353474 4.612996338871498
Mg 9.374106345531834 3.069603361575672 3.4475227998473597
Mg 6.687604908674836 10.10817418857287 4.129250270961191
Mg 1.770539687432876 7.109400569936802 5.123412212835034
Mg 4.568254215238698 1.917197800327977 4.28252839707556
Mg 9.698518834767638 9.093364479513532 4.341754826170787
Mg 2.867565285350847 4.427966634202508 4.521828081711405
Mg 4.940578979345257 7.093927611843976 4.636200242659283
Mg 3.316144331242955 9.744410805212768 4.817352708757983
Mg 7.9769222487327625 7.193011334347034 5.870472676740309
Mg 7.4397661476740655 1.8405162086351017 5.669670933274337
Mg 9.598891375532252 4.159964797133026 6.2071969111867356
Mg 11.282324965827195 6.698743838555306 5.7102967730310485
Mg 8.289094847141252 10.627645512160436 6.67855649801445
Mg 3.6366375493221423 11.18661033808933 7.971109589789258
Mg 5.62831413277172 9.261335152720065 6.8208527584435545
Mg 6.588827422507821 1.8794139607640374 8.619935741033657
Mg 10.516673166115039 8.870583183057974 7.498259017172621
Mg 2.551491535476585 8.383315279239357 7.64654982868963
Mg 7.2674034710861495 4.89305446782583 8.087861470884597
Mg 2.22036839797399 5.171172673336462 7.454769683132795
Mg 4.791006101145739 3.5493595834161047 6.708884525572747
Mg 4.945902331367202 6.5107398964234005 7.681915600302288
Mg 7.6651651634411895 7.938968198319448 8.701232600739473
Mg 9.280259834783022 10.757508808844385 9.540196970615018
Mg 10.345017307831432 5.964222404946618 8.507732682363994
Mg 6.424038763856631 11.271723974728337 9.188202996870245
Mg 9.346250815649876 3.178600431247186 9.362611327564423
Mg 4.640867080584225 8.921866978165564 9.928643595929202
Mg 10.310919101912118 8.199414400469674 10.561216325659256
Mg 2.8487260537913053 6.496538823040061 10.103408166743336
Mg 6.899172274398275 3.4315566883072117 11.146545773367066
Mg 7.432755923863773 9.035416698185712 11.479419845403223
Mg 4.35295226050152 3.965501386355952 9.642093890301071
Mg 8.811939653101149 5.707737438006042 11.15318672166459
Mg 5.84385722210878 6.28211779279156 10.861371952544392
