44
Energy = -42.55424917 eV
Mg 6.3057467503998765 7.370187150489118 2.6430877445579286
Mg 7.318163013800029 11.354312333003108 6.273344527516557
Mg 2.654178321101209 5.216494891339642 7.016124516946818
Mg 3.553074039512664 6.1835144151730415 9.863552371352444
Mg 7.770805983902003 4.913489630324908 3.5792346347825363
Mg 11.170662076860685 3.7184508612945155 10.142211585075723
Mg 10.857718872653395 5.0496183892526645 4.293557799835723
Mg 3.987702846883067 2.9416894472462216 5.446367201640258
Mg 5.663922588460173 7.710079787259544 11.34996316345328
Mg 3.2133334986305924 7.196314723420461 2.3492350557814667
Mg 8.40267708498359 7.141020469439553 10.159392961923512
Mg 9.440700177017687 8.93671120059876 7.764318087920733
Mg 4.7450927056310555 11.80408945000714 4.502561008622627
Mg 2.088846965055064 10.088445009399802 3.1705277916395582
Mg 6.435825906435204 2.0915726100644196 3.9320512935725063
Mg 7.276712656096565 10.27051864626887 3.3941013825579094
Mg 6.793257067843576 1.9283519444204977 9.860813412128868
Mg 9.295293091358847 1.6144749850362388 8.16519270651658
Mg 6.64742262582315 9.386543150858914 8.862472387226243
Mg 9.817301029360705 10.168792056708613 5.040961446348271
Mg 6.110876107633552 4.729296787335647 10.940050811675752
Mg 4.517850918075573 8.923882952953234 4.655590018165082
Mg 9.25217882738772 7.629395103180839 3.5349724998967402
Mg 8.821240479792 3.4701484681330075 11.754650487897319
Mg 9.179038430838055 2.5778743304071434 5.26253260394203
Mg 6.508740493318346 1.1090347099233575 6.9403853471457655
Mg 4.885359547025566 4.382238841953931 2.6394709681767727
Mg 2.088784866971385 10.4141763817508 6.121981528586623
Mg 10.953473385663798 6.381005855241536 8.596560402167757
Mg 6.153079526748428 6.364768874584307 8.152232282353262
Mg 3.714435217630267 9.4352334475521 9.965284883125813
Mg 4.612594901261876 11.16179171953955 7.48184428748318
Mg 8.865059048777926 6.058563936355215 6.364493043783667
Mg 4.697157925582656 9.951863704017757 1.8522750971203708
Mg 4.635445254407097 3.5403832373133435 8.497498486796069
Mg 3.80880379837947 8.038624787891235 7.382719775674053
Mg 2.222682470681861 4.8555020851999595 3.9632629729597624
Mg 6.7252660303380285 3.9994022162950613 6.383014239188977
Mg 8.438496386123955 4.403238773741294 8.834026626822489
Mg 11.370783808617311 7.704121769735854 5.70623303325301
Mg 5.01323659091439 6.051086154379032 5.216313538838571
Mg 11.19186340814475 3.855068045713277 7.052895149736469
Mg 1.719817429503765 7.603947890073181 5.052802102429029
Mg 7.0887682473933875 8.288149178143096 5.8533091364015295
