48
Energy = -47.43753624 eV
Mg 3.756540302158999 9.804474396330201 2.086884953331809
Mg 5.957725624137905 7.6794820126017775 1.9078567177922559
Mg 8.030531590217704 5.622127736110162 1.2428735913849727
Mg 5.155412472232781 4.746656436470592 2.0156437884911833
Mg 9.009268973896276 8.511266363676732 1.6274041765804503
Mg 2.9232022665675537 6.884214240162517 2.5998611518488235
Mg 6.658307701629586 10.627817283548438 2.4191814424696005
Mg 9.951944098274744 6.129773539017949 3.4829802038814504
Mg 10.97245142534629 8.94088636528377 4.197800416946129
Mg 7.837457042876424 3.1278276332786312 2.9351703957163124
Mg 9.579087982341308 11.18062467450505 2.9136798590084694
Mg 2.4967516815712596 4.066204373554225 3.3720864579887064
Mg 4.860312885948543 7.833327881628118 4.80741653059301
Mg 1.8723543902729847 9.310404780497457 4.221233093960438
Mg 7.592988469211835 11.58822074565847 5.134110478025826
Mg 5.023011711189863 2.2621451701302475 3.6836140529679446
Mg 7.016443463101068 5.648811918283297 4.405270360357976
Mg 2.0746448442002268 6.56699997438495 5.690868209263787
Mg 4.466829633286473 4.701120233950529 5.444411421703105
Mg 9.374784914385277 4.012485459800381 5.590451524146209
Mg 7.841050238519131 8.569002805108145 4.441671780409656
Mg 4.533032115707405 11.035004647043618 4.719859157996135
Mg 7.271822773661729 1.61556641323159 5.550959162346682
Mg 10.877260931160572 6.800707519472493 6.325810354067665
Mg 4.366143452303897 2.0067828207793283 6.83187347335933
Mg 3.0432309231096872 9.384138248511725 6.944628958703228
Mg 6.806994052141258 4.100877040774363 7.369174033297926
Mg 7.88776659674232 6.955246385700207 6.993552818219455
Mg 6.117462839684171 9.649279489625203 7.00050216461982
Mg 4.914520901646466 6.713642039717895 7.643980152849952
Mg 2.7145683150504785 4.439371068728649 7.997712850451807
Mg 9.3953456688196 9.652169511059693 6.909282632418153
Mg 9.282359468135885 1.8785851337543578 7.795392587130066
Mg 9.820145855513278 4.772867118495781 8.49125837311063
Mg 1.8979935777712806 7.273603579510221 8.661079523792663
Mg 6.585258750458908 0.9185357730127657 8.451760600377543
Mg 4.90687994620982 3.2369368187155834 9.689072226600022
Mg 10.112263914848024 7.6706775403273 9.22346289848109
Mg 4.3763896118666725 8.958070979008404 9.66035702076837
Mg 7.078271493117019 6.11102852796114 9.747676043120824
Mg 7.470412889114201 9.228431731455853 9.572951004594838
Mg 7.919519442798333 3.0488250948744713 10.229213795059882
Mg 3.8981517871179414 5.992082340332635 10.55907679472935
Mg 9.459799085856737 5.42524221577918 11.480999807460618
Mg 6.137676106721026 4.646839257888603 12.188729326027929
Mg 5.91751654648633 7.893090962745455 11.993807134886993
Mg 8.988834137470421 8.351092881273841 11.94738375152169
Mg 7.800363495264182 6.4585172263813275 13.831059137282017
