43
Energy = -41.49165916 eV
Mg 10.233625273279948 11.406684803289497 8.897380019513006
Mg 8.868028450006934 10.194902125267443 11.272951916055014
Mg 10.548025758129382 8.44565049463447 9.42493802811723
Mg 11.807933769276747 9.556732670608875 6.839681284185757
Mg 11.410429625411219 6.371826428877627 7.321028325866118
Mg 10.433914341826615 5.495678824617224 10.098815600176891
Mg 7.271440065774395 12.032270327221525 9.349237262805653
Mg 9.383602133003848 11.47067725814253 6.058367551075494
Mg 7.945389480414421 7.1483827224619265 11.149255611233983
Mg 12.049512176578348 7.354021814687954 4.521447004510158
Mg 10.891158100692607 9.930865760231562 3.914510512363807
Mg 7.809153027544315 9.393780070870589 8.300768107471372
Mg 6.047079205147939 9.576675051776705 11.174459625859631
Mg 9.251381961279648 8.206618386062555 5.973365776150792
Mg 9.652330255220068 3.7693447891245353 7.6508812233492405
Mg 8.321084006879287 6.484358173745258 8.14110871545846
Mg 7.878396415202014 3.9846085117157872 10.326888052660175
Mg 10.458436239408032 4.805431516267477 4.8711212140065605
Mg 4.740026964498435 10.299403911211224 8.594587906063557
Mg 6.352183273185285 11.359013199725435 6.226031645582165
Mg 7.872401906879904 9.856100620980282 3.850547064357832
Mg 9.3366910992578 7.210077883509214 3.0633827201493298
Mg 6.003960896977392 8.249079154059142 6.118873372217704
Mg 5.331403659979741 5.289197631319333 11.110813308431904
Mg 7.6119425113044805 5.672220725882471 5.211212177161894
Mg 5.497869594426159 7.340130908434019 8.971038240698642
Mg 8.058970772133012 2.6426561501376 5.32930236330112
Mg 7.386434945032041 1.7502954527656382 8.198492390778464
Mg 4.979087847229566 10.034105888374965 3.596075177445853
Mg 3.3717548909330506 10.479373521233907 6.012579071232117
Mg 6.269042776985085 4.470506031372493 7.7568615511864225
Mg 4.711132510128612 2.5991673020098642 9.512165108253223
Mg 6.013751733396022 7.20538138407075 3.117772143592506
Mg 2.9672641521537266 7.901774816887337 7.420788216083007
Mg 5.173936184977839 1.9803608033192306 6.185399927203842
Mg 4.567621230785083 5.577382171230716 5.745296549938344
Mg 3.189986858782684 5.21124402752882 8.87665878414508
Mg 5.77870318272303 3.567765078586728 3.5756396676281366
Mg 3.0689364168398536 7.913984000284836 4.387683494145261
Mg 2.5399667341204193 2.7816874192464063 7.387085257439509
Mg 3.418382091131761 5.369330881002331 2.839582552241726
Mg 1.6422944653959775 5.366808444827643 5.987638392662904
Mg 2.9017402779160104 3.005582512481366 4.465374602860223
