41
Energy = -39.24221399 eV
Mg 7.0620382834144735 4.202718639979548 1.35295928145177
Mg 4.182814068794303 3.7806360775539365 1.5368127925320283
Mg 5.254626146491502 6.708263947830244 1.0106804365822315
Mg 8.514848618190465 6.653483028608038 2.165641249034165
Mg 2.6369520670810362 6.09181753458119 2.479495365847982
Mg 6.881826109114 8.908056885424191 3.123929526967394
Mg 9.892197621853267 8.640132214093548 3.9612328411411832
Mg 3.856655437298423 8.697015124244858 3.1649145120189663
Mg 11.156605712299077 6.21448680779968 5.422991052309437
Mg 6.001246900265786 2.540110951883827 3.6841902477998993
Mg 8.677950233567264 4.318173458158584 4.017541518226499
Mg 5.728439565526409 5.987343448432096 3.851696339347575
Mg 3.3533809131433014 3.960662712929563 4.5131230843720544
Mg 8.161742300235026 6.822366004130183 5.690064373131632
Mg 5.553673760921117 8.331523765661426 5.7282210770330355
Mg 4.920472498349585 11.017805257756573 4.820782463829443
Mg 2.86942762438166 6.772180378702034 5.5115299667815325
Mg 7.959603194750331 10.321773983932843 5.710895006830307
Mg 7.60019911541065 1.8019644884349864 6.643978946363103
Mg 4.5505943289055475 1.9518993497558697 6.363486929643862
Mg 6.3499906166266715 4.445396058813999 6.192219765467301
Mg 10.2015518317064 8.734982164519197 7.033870837428137
Mg 3.0805013047325707 9.551858712102925 6.951392606225621
Mg 8.674306509672087 2.8501973607624373 9.41745029457769
Mg 4.959119806637771 6.468511987453809 7.744542229011348
Mg 8.824149086321066 10.93290132426594 8.63629740365647
Mg 2.9281493936713465 4.294244831494287 7.620858025813074
Mg 9.715924037176713 4.029139148083915 6.779034752250908
Mg 5.751760346506192 10.953200766452454 7.7746449104046516
Mg 10.750470614978122 6.213966839991972 8.596769691491094
Mg 4.433666020066595 8.742021189496416 9.604512306940702
Mg 7.72467661595639 5.566842043033612 8.637238995579601
Mg 7.28826879210894 8.394975673662296 8.173760137813618
Mg 9.547941859547533 8.446649560878242 10.29055631197509
Mg 5.594782299150059 3.212159902313562 8.858354349279432
Mg 2.0272567684286846 7.179411887975725 8.530063799803155
Mg 6.934645829318639 10.187064704126929 10.72965325074295
Mg 9.40231834494058 5.609849813381142 11.310415836719171
Mg 4.135222995104514 5.504319743923688 10.362861124063057
Mg 6.770349566473311 4.299058198307135 11.388991425848124
Mg 6.676515860096172 7.247697028281188 11.199207932879627
