46
Energy = -43.54529963 eV
Mg 12.240465623788022 5.061581060279437 7.977234031027211
Mg 12.198881147413424 7.389396141788219 6.277377852279086
Mg 10.969120374836011 9.940622077802447 7.468279447668745
Mg 10.780743173075564 12.342836178601361 5.46226805573042
Mg 11.847489630616657 9.651299207894134 4.516238716593902
Mg 10.48626853401282 4.917057029942252 10.371344709730721
Mg 11.133569360699333 7.615194487725234 9.265612228925821
Mg 10.609046805557233 2.7003566234534295 7.4267233996726265
Mg 10.55602051035791 4.896365805539315 5.165297422680358
Mg 10.533224189911444 7.140647949042794 3.0665331016936945
Mg 9.905826298671688 12.620538755098083 8.395486298899892
Mg 9.824797061812118 10.14488294091763 10.30416928542884
Mg 9.261616458606497 7.383374129686642 11.62759647669325
Mg 9.238279512951499 8.0852671386509 5.624748045747485
Mg 6.016936345557401 2.817983527659796 10.966519750665277
Mg 8.128846496742966 11.050792083814674 6.372159977427379
Mg 9.103101738622973 10.65867737162753 3.4778597111724148
Mg 9.113894529946997 5.655181512670967 7.647444520421135
Mg 7.584350109276663 8.077780475540544 2.890210971993629
Mg 8.01119260551923 2.9295667159163385 6.0013516107633595
Mg 8.234875962077965 3.0943126974407784 9.119667636264195
Mg 8.12056157666885 8.512730142231716 8.298507613683345
Mg 8.298440881017292 4.249729159723673 12.203496784673586
Mg 6.107878565552307 10.424217026896269 4.213896925735083
Mg 6.1997977520964165 7.767079161229881 5.865946124132354
Mg 6.7968331318100255 8.857005659350683 10.89842806844465
Mg 7.168554320666345 11.502530384426773 9.223036058142258
Mg 7.728504127713323 5.571438198155197 4.567904220474072
Mg 7.087513066143802 5.870442980248649 10.00973527373681
Mg 5.548290731536972 2.0481058438349735 7.8079277461658085
Mg 6.098284420147776 5.070670901040924 7.2696820321351545
Mg 5.351073414348408 10.215523433251951 7.185026409152668
Mg 4.964735875416207 7.50409593258939 8.734635996067402
Mg 5.005902184479468 6.573175868028473 3.1777905639957793
Mg 5.3755232763428955 3.558951139019736 4.680727331789109
Mg 4.164465262933999 4.522865963698967 9.57651193971866
Mg 4.438673001391671 10.430872970160701 10.023593224222862
Mg 3.5929197801252903 6.268708372563863 5.7977298119241505
Mg 2.8462578983903604 4.330906309514455 3.378919203378968
Mg 2.0605411050533546 6.12270868788698 8.385707140751858
Mg 3.528221091871979 9.10387818826803 4.8516403456610275
Mg 3.1794930370791676 3.52772212526662 6.819901654333513
Mg 2.61523643136353 9.205095981178953 8.074142708757313
Mg 1.7062016572792411 7.069019113280304 3.3008982812095384
Mg 0.8454307550013677 4.9846911863995045 5.561876611045111
Mg 0.8589277587413424 7.88249525246168 6.132642382653463
