40
Energy = -38.17728986 eV
Mg 11.873593509239 5.259714955494575 4.38507509922862
Mg 12.18249599384383 4.027700105020073 7.185096935987039
Mg 9.016943253572576 5.748133919730932 3.1434488194712573
Mg 8.27071487391777 8.615616050971115 2.203100038987316
Mg 10.71043250202604 8.150196225193755 4.0780145528476295
Mg 11.881022382600515 6.945731849428968 6.813737202128296
Mg 9.558399616462008 3.7785467240755803 5.55618019161164
Mg 6.687374517622497 4.57845631502508 4.922840193650862
Mg 11.081239884353472 4.533740443912146 10.019825969875955
Mg 6.112010045964219 7.111778845919687 3.5464728656120474
Mg 8.223782432585699 10.148841220945767 4.739341000000168
Mg 10.01444148214108 2.3208845675122842 8.330109899718233
Mg 8.346020836559102 7.1649301863306425 5.751742161603244
Mg 7.21237041992159 2.7246693587947073 7.2897877631048775
Mg 10.268164470459574 9.393427432544469 6.904225745037539
Mg 4.369249951791966 3.4609779203620836 6.513821659082883
Mg 4.035512284786527 6.370807028452861 5.675159240828535
Mg 5.50944916491494 9.951063336247588 3.2080281505836092
Mg 10.879817209521974 7.785729676787482 9.598409446532001
Mg 9.24208325012073 5.603502424297839 8.003122520291276
Mg 6.282167766368647 5.807884180475148 7.755984365518827
Mg 3.061947285311745 5.218843739505978 8.507470794502769
Mg 5.62531382237567 11.80021309933391 5.524815711081411
Mg 1.6999407120364651 7.604432012860019 7.0746532369786905
Mg 7.851197332492142 8.374805037903045 8.672842076065336
Mg 10.267363077033627 10.733256956869921 9.566572360475362
Mg 5.891103300476998 8.764043474600845 6.380555543812586
Mg 3.151553761232689 9.71940247298207 5.326763204676155
Mg 4.93334062874733 3.0152968642044535 9.375627106892583
Mg 7.9520614709252015 11.281137281609317 7.577173277483967
Mg 7.85769701371877 3.639672224013524 10.079300167206268
Mg 8.497620124313569 6.3998479566405635 10.98141685967653
Mg 3.3052153679080143 12.534741136936287 7.05350781556341
Mg 9.284600052115564 9.145809199618554 11.847606616501064
Mg 4.316510790875566 7.895857979835047 8.922147774168467
Mg 6.246150360709547 8.633420391949377 11.223364301184489
Mg 7.56636282594694 11.284517967431821 10.644998285763853
Mg 2.197810271778367 10.161400437046682 8.3295632078224
Mg 5.201405466791077 10.771754454821545 8.80347351324102
Mg 5.494723489547754 5.681934066151391 10.709795111083643
