42
Energy = -39.95928243 eV
Mg 8.251147828958134 9.766180573872838 2.652424728745676
Mg 11.018134077030888 8.650791396831421 3.6230658464629997
Mg 11.372122482056806 2.648579967748671 4.429299863068459
Mg 13.104603146709788 7.183041967924478 5.342359044121326
Mg 5.726734453939614 8.08949391432618 2.949737668297787
Mg 11.260447598221713 5.5808727406720955 3.605500483545992
Mg 8.45825238117782 6.864049601451647 3.3997207020783886
Mg 6.037853800531496 5.1981151909224605 4.4351824169755
Mg 3.4957061954384474 9.891807081690766 3.756468957898181
Mg 6.256132444068489 10.877907885724143 4.595703933953049
Mg 9.157109451855925 10.231039788685274 5.4689456138032915
Mg 9.790395089394636 2.4240486450197394 7.099639227425095
Mg 12.034340021885981 9.728956715651858 6.261431238991395
Mg 3.714849195984694 7.085230512488432 4.990931204047763
Mg 11.938381912713973 4.713041569939788 6.554327895456188
Mg 8.857536402092435 4.363479179690586 5.019253469517906
Mg 12.143016008710633 7.421258199568063 8.253622031592087
Mg 9.762221674736116 7.18319695506009 6.267386962198659
Mg 6.760326343331901 8.08995770778953 5.876229091228456
Mg 6.638126245376718 2.6641335665030157 6.4024883219538085
Mg 1.440955530392417 9.030463654861348 5.820011166426782
Mg 9.96592487758557 5.135094846513544 8.728023538080349
Mg 4.228092352919263 10.050734170161505 6.709861759919959
Mg 7.0862893665932 10.81041555350624 7.670254647586441
Mg 4.7030185058884335 7.226934943041779 8.014301302733815
Mg 4.0980953279053525 4.4091750602299955 6.66294039519272
Mg 7.175681594494817 5.44049382686205 7.4066039808778745
Mg 10.15280859713481 7.654888108185268 10.582069166366695
Mg 7.777266968700669 2.7956852047172105 9.207892249556595
Mg 1.6914713036142053 6.343830137801181 7.140953208630657
Mg 7.528627574658575 7.925727400386524 8.966356980429788
Mg 9.997621367014133 9.79990210303796 8.423467754341372
Mg 4.948474283847561 9.948736094426042 9.67093820443004
Mg 7.851439459050907 5.366794565490099 10.802073433229264
Mg 2.143287335961696 8.924177301553033 8.75970198713595
Mg 2.6634172449031457 6.027698264916376 10.000132529305345
Mg 5.208036658413822 4.284271105915639 9.530671120896058
Mg 7.925204825464585 10.415622258191963 10.686966663265162
Mg 7.901850817334001 7.945491168370013 12.442030022770687
Mg 2.9383513942344712 8.674184155360049 11.63418455636432
Mg 5.32708403968248 6.94297901717325 11.191650504891012
Mg 5.580565115066221 9.766198160794646 12.626715155278168
