44
Energy = -43.13964218 eV
Mg 9.808095697289867 7.985727914958528 8.976602274118386
Mg 8.122882205393154 3.4075143493098556 8.90080994463883
Mg 7.472813579603448 11.005294837405796 1.9894734666533547
Mg 8.037711133308932 6.191316538005649 7.179368163923907
Mg 3.565731820071273 2.976166203410629 6.051841965621568
Mg 5.792057988831995 8.356918952129726 7.810750314948546
Mg 5.720586260349644 5.09908800569201 1.5648610629367579
Mg 7.2387260517501755 8.827012229032746 10.513043781350452
Mg 9.380382743352254 8.875587958201516 2.8944175893762827
Mg 4.990889975223293 5.89822497105667 6.10231027282798
Mg 4.190458168044624 8.984018268456449 10.619448515781247
Mg 11.567402252658987 6.418820265638171 6.865244433309257
Mg 8.23040065465277 6.001225100625137 10.561916205673068
Mg 3.396639189509627 4.353375491118549 3.4182988392226
Mg 10.295452317841201 3.6945773585515576 3.2035794345578457
Mg 6.586096672417007 3.2215149086526855 6.442342922058229
Mg 5.5677233669017845 2.4125859871920996 3.621950411554295
Mg 9.90985918761559 6.353799440751491 4.433860800360827
Mg 6.591979651830119 3.5348261955725664 11.462468040641275
Mg 3.7016310188334978 3.7382827296970174 11.374761101910806
Mg 5.090362222147551 10.161596374000604 3.444386208458929
Mg 4.9875312235592615 2.4518335499773967 8.95268288149481
Mg 8.17650332994425 11.076106462019546 4.822849902127873
Mg 6.976763367883444 8.147036803966138 4.970545052360369
Mg 4.342737020656007 7.138286015746898 3.3315195920481853
Mg 6.596828271620616 8.077941924940008 1.604933259211094
Mg 8.788002572853134 5.93291078146168 1.5920085021435586
Mg 10.688053819848458 4.921365104018306 9.140161568095527
Mg 5.558556315489769 5.5801192423581565 9.043182358737424
Mg 8.107180800801462 10.355871673813999 7.867946757886079
Mg 5.539655582204791 6.487700910147477 12.000455033472083
Mg 3.1704772545139925 10.518565417206519 8.168872454897041
Mg 8.41961368035821 1.7367422226310218 4.392906869038886
Mg 2.706356902852939 6.411309578019402 10.918585808778202
Mg 3.4818852364188015 8.828893723745137 5.65097740269192
Mg 2.7626289732136065 7.487106231892358 8.184282460156266
Mg 5.711915740083395 11.348368299731781 9.38087404487547
Mg 7.178165820221913 5.099351840516651 4.1948407937051995
Mg 7.860558282485995 2.9455972486379762 1.6721441735962839
Mg 9.878610564388755 8.818089458542419 6.033990085425477
Mg 9.773902108891939 3.8036500291380126 6.2592041527682065
Mg 5.471700642382228 11.203894412247957 6.342680264670856
Mg 2.0873368743639817 5.829602400784843 5.721448647664409
Mg 2.655729691052966 4.480758822713896 8.499748417948704
