45
Energy = -43.29357406 eV
Mg 8.444977074882484 3.1500354933527737 4.277426460360655
Mg 5.728396869221726 7.852693178687878 2.5635271966278905
Mg 0.6088584193135942 6.813541450650366 4.2285794231862
Mg 8.1755161700927 11.216655602850832 5.842131019525334
Mg 8.543220831211348 5.9659676996503945 8.99690551324879
Mg 3.2470392088415703 3.0478497331918586 4.30052830646692
Mg 0.7540329985343417 4.032922126799142 5.848594777638878
Mg 3.2097185626183764 11.124307823162205 5.843686958680498
Mg 5.81573497987436 2.3995607833270456 2.6857311935453505
Mg 5.697089642603129 10.4560907835467 4.218026863684918
Mg 3.181479656855565 8.62091414570825 7.584348220105821
Mg 8.266766199300896 3.3989494950245414 1.237429307602712
Mg 6.04495166018167 5.042174082343521 10.413933559882512
Mg 5.748003746721862 7.746934401989338 5.754007015149601
Mg 3.3815944460008502 3.1072782027934727 7.322846159978587
Mg 3.1390513231533976 6.10074651665219 2.5186618505677134
Mg 0.7281120166046261 9.338214542261344 5.841615621249169
Mg 5.854360698827479 7.751114237210048 8.977979860522852
Mg 11.004150608100458 4.23123303210513 5.728330569639317
Mg 8.309174762110718 8.754246639180097 4.058601585118203
Mg 10.971259863101555 6.933243553805205 7.3195303039112725
Mg 5.858827322774528 5.075335266979854 7.284511874794608
Mg 3.230625751845146 5.941938924146248 5.761811261155307
Mg 8.388810115847855 5.998743537069196 5.763019550195778
Mg 5.722628621907986 10.391043863837387 7.3931891227122435
Mg 5.919248493809042 2.2965664054917116 5.763212347587212
Mg 3.110510009544228 8.697827519785799 4.047980357402031
Mg 0.7221717986953851 6.746015736188391 7.447625111076711
Mg 8.889523394568634 3.2033420221097013 10.51254256955915
Mg 8.377538415756344 8.67839708029375 7.531533251908094
Mg 5.779465602508483 5.115620691530631 4.204978593628541
Mg 8.577152050192746 3.1917461021897355 7.360927550046243
Mg 10.763642658168193 9.514102349719117 5.760236297421902
Mg 5.758201800527223 5.143232528965167 1.090360183139251
Mg 8.340455542540406 6.153773246650683 2.526226827213937
Mg 3.346931231228991 5.950579517649476 9.000608115076387
Mg 3.2983741764880814 3.3565675605375516 1.2684219504147582
Mg 0.7860765460861895 4.180043442032422 2.804201601453998
Mg 10.824395901587922 4.339424701144958 2.7130615538602427
Mg 10.916185515728829 6.987249731443085 4.136616083306751
Mg 6.077940906796014 2.3544175613202007 8.828301249942571
Mg 11.07663916300349 4.264347587005933 8.766612650194249
Mg 0.9756826630117786 4.074644398083237 8.883690333685001
Mg 3.630283531095258 3.2109068721087453 10.396993781473709
Mg 6.5574971208069694 2.2942391636457535 12.003163911031471
