46
Energy = -43.74962241 eV
Mg 11.103353046518123 3.0724568594421116 5.960833210748278
Mg 9.54289892454619 3.0962019188990717 8.738483574914031
Mg 8.905844284881827 3.0888819203681623 3.6899176038168706
Mg 8.176181255665353 1.8680906513897622 6.3528699776362645
Mg 12.708606020946835 5.721993783415447 5.419997873730439
Mg 11.21192209303806 5.394616032349136 7.976869505751974
Mg 7.1196244748476 1.172525912350263 9.176952136523807
Mg 9.81455585180339 5.293025458083871 10.764776540363464
Mg 12.779683170802874 7.957197169762098 7.395096637298125
Mg 8.771510116387082 5.024580199930779 6.044266604481837
Mg 10.415147571985617 5.697695247107587 3.3956348888209607
Mg 7.264157103743168 3.657338833826837 10.966941480053256
Mg 6.030154394835842 3.5148141788673715 4.913241030052322
Mg 5.1043927429567 1.5174104588473347 6.952792081324065
Mg 11.095216207862503 7.774190133485785 9.850576965192335
Mg 7.307740245551356 5.688172568931199 3.28822899535719
Mg 8.511227518898187 6.891913386771979 8.325570240670567
Mg 10.35786117390472 7.693978204617603 5.701580942358066
Mg 4.502213021168188 2.591762296670879 9.797181599054646
Mg 10.218104969129739 9.883762641550273 7.690987640540747
Mg 7.176419913241499 6.734112873078841 11.241005258462847
Mg 6.661835016774737 4.020679631702702 8.000623211865467
Mg 9.044549489132564 8.340242040891706 3.024547468911062
Mg 7.8705402578479395 9.291054874458839 5.722948076769401
Mg 6.2137177928259115 6.656683083889465 6.228853807864945
Mg 8.566075360882534 9.390996037831437 10.347072639064923
Mg 3.806285218548293 4.285510965444846 7.009931627676662
Mg 5.967561214676955 8.384622205461783 8.719894344238435
Mg 4.73071739216617 5.663001633935814 9.642401426237612
Mg 6.993040282477789 9.267725067055444 12.975478516102749
Mg 9.314945513392308 12.072363732526965 5.731182823442156
Mg 6.03120293197158 8.304929913364369 3.496906235452118
Mg 4.198542652398038 5.798306474851577 4.155243239720216
Mg 7.8571551213872075 11.116653738112973 3.1253859978866116
Mg 4.480041292608083 8.045285157893769 11.511332121189591
Mg 7.5066991362695825 11.23684716511307 8.193380197525537
Mg 4.91055071722428 9.56149049790325 6.129611557866863
Mg 3.360536680959763 7.1729076553476965 7.098762459451804
Mg 5.753966734594211 10.760333161613522 10.662030994662686
Mg 3.078475685222736 9.391050220396265 9.334357061680016
Mg 6.350872889377712 12.202332821971526 5.650351228206179
Mg 2.9639563724687985 8.53006911244927 4.043602402753858
Mg 4.786739225564708 10.958760315016557 3.208400966384514
Mg 4.503019951969246 11.842175364591219 8.162763195041792
Mg 1.8703548161173573 9.798887359223974 6.663080485067235
Mg 3.2650657339297804 12.142313515036276 5.450904984224132
