49
Energy = -48.46343196 eV
Mg 11.08828905444563 10.099339773271035 6.025353849039674
Mg 12.008816842082647 7.147241433027523 6.429637012306297
Mg 11.802877319586896 5.4926716037129815 3.8750683227579517
Mg 9.962743772539207 13.027561717641062 5.628361405484866
Mg 11.1236457366069 5.789774483967757 9.0108643038041
Mg 9.938721298041118 7.896098692854911 4.210065889977013
Mg 11.040147608836774 3.9601317824547384 6.337292588513072
Mg 10.575099803582377 8.764567845675792 8.671057018127287
Mg 8.973598039901614 10.759742358926605 3.9733935049190126
Mg 9.315236850404041 11.54752219603582 8.133081965141137
Mg 10.145278515635177 7.722565680186009 11.614473579720668
Mg 9.308899584838379 3.388162242082902 8.761367190797984
Mg 9.880898577694904 6.302805604773744 1.6204527102550617
Mg 8.962726462107206 4.504130850095546 3.8450665779994937
Mg 8.602700072364025 10.135085526195175 10.707229331716599
Mg 9.00345227883085 6.200488623378256 6.709629867786585
Mg 7.957548475339308 8.59578786342856 2.0786415752949217
Mg 6.725092654281871 6.945153106234468 4.7167482297370675
Mg 8.017549360571856 9.139682105683852 6.6126404650349615
Mg 7.0696016821182806 12.134175311063087 6.064975832814768
Mg 9.57611982759042 4.832009050583464 11.36707723144591
Mg 7.9443465724249736 9.058203422417375 13.39362072819783
Mg 8.111183604202816 2.6952982561409087 6.058564285143304
Mg 7.880273357995588 7.305709536415656 9.41100512418495
Mg 6.039054076309611 10.088660447658905 4.046198042587631
Mg 6.871050812005656 5.7383457556999415 1.804498448537687
Mg 5.014006946841826 8.229673196489102 1.8884986446290346
Mg 7.190600087670975 6.41137607056536 12.367597380076592
Mg 6.06805875475313 3.6888535870287624 3.890915474120282
Mg 4.461382851372106 5.343592829740286 6.0351504660921025
Mg 6.639686797381112 4.846682440217361 7.875587319112979
Mg 6.832641082553728 1.6012755572435353 8.599199006440074
Mg 3.9066992048103018 5.745304904749225 2.9540237889373606
Mg 5.674670373159368 8.94602518757082 11.10691227189803
Mg 6.433178856877306 10.786189806621339 8.764751451525388
Mg 5.339326018931782 7.8748456025824325 7.704938307945825
Mg 4.388742350406885 10.64869456752302 6.460456109720249
Mg 3.607752519737397 8.27369569991867 4.666072248441403
Mg 6.881649049894362 3.6763465361234315 10.752740539824753
Mg 5.004696735770297 2.193670772676442 6.306561874391564
Mg 2.9622041215147354 3.218859115375422 4.160699723649091
Mg 4.946756479894107 5.991085984374549 10.356090379928544
Mg 1.6868433068702853 5.969805994894662 5.39170430510991
Mg 2.7609752776281766 8.019293811210062 10.395330500344103
Mg 4.249322351192241 3.2510049315325094 9.100987164928858
Mg 2.2097213165088725 8.525919955343506 7.323366749831375
Mg 3.5497715651871817 10.541098264186818 9.31751720168967
Mg 2.539468840236131 5.739767185898701 8.486618028422587
Mg 2.1264854636369845 3.2522748277686633 6.923906120129349
