46
Energy = -44.48557395 eV
Mg 7.126878387772536 2.057521872118985 7.091727273836266
Mg 4.939519635322121 7.297157356670372 6.8023548178840825
Mg 4.387513873552484 5.334608599684408 10.857607035393146
Mg 9.827566427464905 5.12055027875741 3.7243484284054316
Mg 10.4380873920908 10.016719734392115 6.132492311083575
Mg 4.523312270344265 0.869472583268727 8.079574546331456
Mg 5.235321450512037 10.026658414400927 2.558118178274918
Mg 2.0432269769399887 5.5102799646853375 5.067936761734979
Mg 7.742823575818055 2.7416779486350884 4.276410955862186
Mg 5.438100409234319 10.288298291119563 5.602165206068716
Mg 4.98165531128876 4.4613998726893715 5.3693600996895965
Mg 7.684019528645698 5.585507600309923 5.854410804626161
Mg 9.193279054993873 7.500136940968759 11.312912822057244
Mg 9.691424108913962 8.223395996874846 3.7666380022747976
Mg 10.700703164813639 10.123976619546163 11.486136310632405
Mg 6.437627797061936 7.663069209127962 4.088495340102217
Mg 7.442910747010134 4.895986488900068 11.23755929350361
Mg 7.880223535582368 11.594680587484431 7.214076074466331
Mg 6.380531999934845 7.398542975488274 9.66572911697761
Mg 2.9579980416876572 5.345314857219353 8.049155570267882
Mg 7.022096141433252 5.019851333811852 2.5020398512841444
Mg 8.984757750824846 6.814434027111388 1.2469809249266819
Mg 8.098322507294546 10.03135890835231 9.8812448036587
Mg 10.484999604093776 11.53640578067104 8.828631103955411
Mg 9.745052936974842 3.5821040955237113 6.559335867186437
Mg 7.833324452880396 8.43848635987489 6.942424220892218
Mg 5.948178458618952 7.449403585125992 0.859235272775614
Mg 5.975014897343694 2.364856365970787 10.376741998498709
Mg 10.549499571536408 8.476258331107344 8.72193258720955
Mg 5.417384068586237 10.103483209281986 8.576004245007287
Mg 2.660598627486001 3.0079835765872343 3.638140443832538
Mg 4.0595233809526565 5.77843076381747 2.7340181565894057
Mg 10.621651643288487 6.75526049454382 6.198844514490865
Mg 1.422964624696863 7.703277648706236 6.952062935194874
Mg 3.0535440479368448 2.843459146382933 9.678616502134517
Mg 2.841294111009654 10.175620363347598 7.109896335681705
Mg 9.017171674134758 5.845498208461145 8.683184406263873
Mg 8.01551160204268 10.750854412877553 4.226521635597939
Mg 2.4927290605039 2.741834599127111 6.642618865663228
Mg 6.029966053173195 4.658567790006163 8.24979740411893
Mg 4.9785751672849266 1.3112220910888168 5.050118247290884
Mg 3.3469659483382532 8.010181706165595 9.382948704628463
Mg 8.006433216801417 9.573017467143831 1.4615538274644568
Mg 8.768627873473896 2.940096730998317 9.392185024049223
Mg 3.2825673322434343 8.369177810693326 4.4712915167210685
Mg 5.290521558058824 2.663919000876915 2.396421655407615
