42
Energy = -40.41484653 eV
Mg 5.894810340595702 8.17552289811639 0.9226160687880047
Mg 4.778897556734929 5.5183158682088225 1.259755780563588
Mg 7.8032848872488225 5.860544956757475 1.7098019008992877
Mg 8.249858889559176 8.548559145175032 2.8876956369850455
Mg 9.260002046546562 3.2825731380839067 2.801125302005067
Mg 3.325901257795388 7.699959211162981 2.6881201699298782
Mg 10.225089813369369 6.042071437474062 3.4278589061533
Mg 6.308809485492106 3.722561416916767 3.2648125987585406
Mg 5.485148732616875 10.152312164613706 2.992938806370035
Mg 3.5764397351862716 4.689402548708436 3.8366134008751085
Mg 7.306479588693326 10.00055995686111 5.430429094949575
Mg 5.982078950762397 7.01312197113811 4.412106679935201
Mg 8.032488605372212 4.814347609270735 5.602647156440573
Mg 7.969233272225486 1.7034929659559757 5.094007035274712
Mg 4.995830630715597 2.3754722957816305 5.566313845809434
Mg 9.107475347066167 7.594897095566796 5.821217540727778
Mg 10.711681461827146 2.9106371545956957 5.342924424977525
Mg 5.106138369313925 11.95963173374879 5.477206447400874
Mg 11.52854009359158 5.633714799027161 6.017934941616133
Mg 3.600694403861631 9.318108312569864 5.269877314603059
Mg 2.5539277340587554 6.5889281179806725 5.771560279916648
Mg 2.1548278517848263 3.5397589392396256 6.248669977148839
Mg 5.638339369576031 8.250432613145971 7.3441610927650665
Mg 3.1356726927436984 11.278425425101794 7.60092205209681
Mg 5.176317374934621 5.225849546980884 6.864691760421285
Mg 3.807503511107415 2.4251671152557246 8.345943417957349
Mg 9.986198793490685 4.052680696728437 8.109120354595817
Mg 6.209321069398304 11.278086906246354 8.225794217742349
Mg 7.027878053062111 2.8614010982410925 7.836626379537093
Mg 2.447933507464793 8.357714401176766 8.160746194011722
Mg 8.659922154975298 9.400066855899528 8.224468431256007
Mg 10.771106198253749 7.099260439869314 8.474759104955842
Mg 7.661942123919761 6.213472785317012 8.502113154002254
Mg 2.588006036442864 5.269382322052975 8.675399954240204
Mg 3.9580168996984018 10.072476273759777 10.084386748422212
Mg 5.360760871267057 4.288832136761469 10.05786965950889
Mg 4.663379377579803 7.103493619165823 10.036576314823503
Mg 6.773294281465518 9.19743130496576 10.511035383395683
Mg 8.155351602752685 3.5382180373438037 10.613051230042618
Mg 10.272250361044218 5.4640337447756515 10.960937760020103
Mg 9.519617197120564 8.284522712181873 10.922226796965141
Mg 7.284815141813811 6.24982390060624 11.658202355641654
