47
Energy = -45.1327735 eV
Mg 3.500383877161647 2.941224787886524 9.342686743624748
Mg 5.815210985997472 1.8636831910550338 6.975020621669788
Mg 6.230498255339582 2.0723376768933663 9.988242380511293
Mg 3.568676702671542 3.998407786696715 6.487100685055647
Mg 5.167335577079365 4.862812669633514 11.06153661544934
Mg 1.9349208623784497 6.450524287415695 6.097928512697223
Mg 2.9627712507410577 5.872634818293562 8.981973103779623
Mg 8.670977463851209 2.498332837316967 8.324239644158423
Mg 8.370492459024645 2.2235058973143977 5.389298254466834
Mg 6.223459751447165 4.705841533128398 8.192410942080615
Mg 6.124074794964027 4.367329985229489 5.057337037804865
Mg 8.221933284824605 4.067129893155008 10.93320174646876
Mg 4.1095172931269435 6.682187108339455 3.7758624669967062
Mg 7.21200364839128 6.752557909223744 12.133375702135114
Mg 8.882280926146638 5.373614358724557 6.6338185859939145
Mg 2.756063511629609 9.160347540000052 5.436132497755986
Mg 10.733344148177615 4.454542023651491 9.20609747447181
Mg 5.017222242780214 7.078343738549326 6.680400068026757
Mg 2.7964242909469204 8.799040706261845 8.504395349069354
Mg 5.466351521516405 7.597455951582527 9.593442632175009
Mg 11.018367796411576 3.1370899318279073 6.499328426060798
Mg 8.958932631699112 4.534874054187114 3.6568397245278916
Mg 6.30393410431336 5.18421750659404 2.1037748741936815
Mg 10.241950523673463 6.177771284492721 11.605340127774626
Mg 7.378030268189947 7.023942469417766 4.5836572388112575
Mg 5.690480904275203 9.385960901867824 4.756073183714439
Mg 12.087249307015126 5.8725147159009214 6.5913775657305465
Mg 9.255299092617767 8.661762735396882 13.113370076751384
Mg 4.848984782874545 10.535748714107031 10.000264525936135
Mg 7.352957504852538 9.087575920344674 7.426900057837328
Mg 3.5314728949667877 9.586568768477084 2.5213568705786074
Mg 6.136649519940158 8.180590880470048 1.9777469093122533
Mg 8.322984064918304 6.6879720529644855 9.232909068267988
Mg 8.965418080456582 6.963986602241273 1.9124888746525224
Mg 12.494068836529285 6.850855577443647 9.427631353898345
Mg 3.979740364257741 11.970990510704162 4.406987456393246
Mg 7.6941467369109775 9.528982414984982 10.543300745989464
Mg 10.794091298492829 9.00248748303437 10.550118788450549
Mg 4.630668712848558 10.970602408658168 7.114925032573592
Mg 10.45086954850274 7.53457914756475 4.613448281061046
Mg 9.872852906113526 10.50076160163969 5.794053274372595
Mg 7.19977182010768 11.870665614844395 5.478409044575754
Mg 6.235815722031871 11.31427499133632 2.488799108213613
Mg 9.864317434152014 11.031273769841594 8.677158487404709
Mg 7.109053701770489 11.975712782691785 8.589091688739538
Mg 8.573358422925754 9.660983593348352 3.2758435840502913
Mg 10.338304635691639 8.144219900034454 7.5975234065061334
