46
Energy = -45.10307261 eV
Mg 8.486858126186744 8.471334906082976 2.661801681050642
Mg 5.841643188515653 7.951220293142787 1.2363065864445035
Mg 3.5189716301934855 9.177458681346344 2.453120241786378
Mg 7.231625545347281 5.617012420994497 2.7529689230572196
Mg 3.982051354179593 6.022838893859828 2.802854099495781
Mg 9.005776573667932 11.327239523758449 3.437729718769083
Mg 9.678232450087913 6.433080251316516 4.528102605429494
Mg 2.468336769314669 8.141484157637173 4.980978916531419
Mg 10.831197610829578 9.239254587278309 4.68711140512643
Mg 6.178120533599523 10.539940282297804 3.004728541251172
Mg 5.517186510721056 3.639525726084232 4.3020359217653
Mg 11.354835727986513 4.288733332808267 5.810436412257892
Mg 7.979755326558303 9.013688611497189 5.997037353534574
Mg 12.248231174648836 7.090007097005587 6.572826919360543
Mg 8.681424186743227 3.5535391571162505 4.496957867435609
Mg 6.9457060010756315 12.015274872988686 5.72996576717748
Mg 3.7204635556243253 5.5171725247476875 5.790092482677112
Mg 7.021086436523255 5.649138036002586 6.166150098831839
Mg 4.284410565062686 10.568744893209326 5.394412652653543
Mg 5.710528264798607 7.836847289963421 4.394718134803268
Mg 9.998201853314761 11.890497525488641 6.0738182094528055
Mg 6.985529181082971 1.9450841793127458 6.41971921817395
Mg 10.674119821944663 9.546244420848986 7.817328426624217
Mg 9.446514065010554 6.594501103965771 7.66083256090759
Mg 1.6872768949376167 6.952131456061852 7.560231409780867
Mg 5.219223724258214 7.7811039857754665 7.352863380929376
Mg 2.7957526099566388 9.663027021743932 7.926256522301019
Mg 5.493950604068441 10.912999428761253 8.241268886535934
Mg 8.428345011631434 11.509427110284983 8.533512424325782
Mg 11.784885104107245 4.782530341341935 8.782324960483104
Mg 4.978101917808475 3.630662957449445 7.782412943894416
Mg 9.140995331087197 3.5358355040904152 7.634916978517391
Mg 7.635418203564273 8.534561038063627 8.967568869399175
Mg 12.077421911914675 7.65232443877471 9.613235583129661
Mg 7.142459442303038 2.2980812936240818 9.55146054315436
Mg 9.849053368615673 9.345315962887355 10.856563939643816
Mg 3.695714263803344 5.868039388964801 9.428393289054444
Mg 4.778930135981563 8.570331580336072 10.310486756213162
Mg 9.759359851262836 6.2335073020245355 10.90207010992725
Mg 6.912628349293821 10.619021475325722 11.021228668459612
Mg 6.909574079687504 5.620618481620679 9.339423312569307
Mg 9.79997515210987 3.242858522106801 10.54338791372621
Mg 4.794652079341878 3.4591880519535767 10.925114021577373
Mg 7.37362976583026 7.720147865864733 12.015032720164024
Mg 7.449044544338249 4.473427320834155 12.110606135710485
Mg 4.905674534526259 6.124320343801776 12.192044966225199
