43
Energy = -41.92069343 eV
Mg 8.746334506941766 6.5111124067671176 1.6785144962578529
Mg 5.611442459150041 6.284217608892467 1.6718631173929768
Mg 7.188048205953584 9.106984967880361 1.755262827698095
Mg 4.103161253118483 8.9023344901335 1.9675396733612556
Mg 2.733370385605752 6.391240383397147 2.876321482035789
Mg 10.029778769868239 5.261594044698658 4.336121502317387
Mg 7.430359985919176 4.2391453491227375 3.110205093106345
Mg 4.400659469577143 3.8483135130624864 3.115560613415916
Mg 10.319202603073213 8.214069490343217 3.7556280809762703
Mg 2.7248154312149886 10.012032154005237 4.504902811130157
Mg 6.382524672111201 1.7692342241045032 4.355842916094184
Mg 8.53109809313267 10.518182582708272 4.132202679783977
Mg 2.8073232845581013 4.855810057025775 5.53659429194683
Mg 7.3284554289996215 7.301973664007875 4.218666302575839
Mg 8.586149928685495 3.15133708980964 5.892916023046145
Mg 5.598188610323315 10.72864559861425 3.803535486602582
Mg 11.778633668693097 7.000246596810952 6.110932395482783
Mg 1.404672766714991 7.481202505185763 5.4614881385497265
Mg 5.955511362442811 4.830984388310875 5.82278673340455
Mg 8.591586850502097 6.641608754698875 6.785907128311859
Mg 6.345771308219465 1.7778273892950704 7.423362340529347
Mg 4.498750517178629 7.603453077989368 5.234170207557928
Mg 4.513906802227948 11.437650070460805 6.529619019075491
Mg 3.827302222578013 2.0715404988503585 5.668110249478038
Mg 6.8638752353823405 9.511193226431324 6.481917533694801
Mg 2.8732551558537063 9.192424537878043 7.582356174594949
Mg 7.296679707157111 4.813879376662508 8.709170819841246
Mg 10.005556859436663 9.393486539631583 6.634332324002481
Mg 10.81439579589368 4.415585747278578 7.44395067433536
Mg 2.462418524772591 6.240897227250866 8.240088232494267
Mg 8.982939917460918 2.2464097068930373 8.820970250025496
Mg 10.862818725844177 7.248752838309342 8.942506033203305
Mg 4.15074393734337 3.741968752045291 8.165505052757238
Mg 5.490559342072241 7.135522726199598 8.106658395865846
Mg 5.388854410962138 10.129880300066258 9.210083126108708
Mg 8.199302738501443 8.789754562290137 9.120082415684713
Mg 3.416912103866427 8.187238373693113 10.3737975690877
Mg 10.0662142086101 4.583669876744561 10.373357591250262
Mg 9.142641509651115 7.200367999262575 11.40601931444418
Mg 4.47553535130407 5.3292528000027115 10.664904732245713
Mg 6.075051351288435 2.6177924717426486 10.332298935900637
Mg 6.237769035745344 7.854458559707976 11.265820519446141
Mg 7.2574275020652514 4.9267234717343324 11.878126694886426
