45
Energy = -41.24407495 eV
Mg 5.287947627776665 11.473668765192304 11.936764691815643
Mg 2.2132765897224904 7.476137089693299 5.968546338503907
Mg 4.883535224876725 11.584708192911767 8.990800749994516
Mg 1.6789747449725818 4.776410282834543 7.116100712981181
Mg 4.516110325091424 12.221645492954694 6.142169847284945
Mg 3.264997508191823 9.649133171232837 7.5328021201211115
Mg 2.569148390712265 7.08205457600106 9.033270775646631
Mg 3.451890535948384 9.353785365358453 10.632695657141085
Mg 7.497571684371651 10.294765560196893 9.83324392151757
Mg 3.988809361181938 9.770883325356833 4.633727199647324
Mg 1.065800866021682 5.383831401168794 4.14736154723691
Mg 2.8339354226269817 4.147241237541034 9.79652851267504
Mg 6.106704140942583 8.612880349323067 12.037682105945855
Mg 9.1067649757073 11.342521638922245 7.519095777661107
Mg 3.5010663714742574 7.193577508735968 3.198339899004417
Mg 3.8569360636570615 4.745679398095168 4.918689278375681
Mg 6.866039858377654 9.115711251880448 3.6932495530600695
Mg 5.145399791075458 6.0042908080370525 10.879131642531457
Mg 7.412787369710169 11.95327764435284 4.95378958887322
Mg 6.495504631313559 9.88991481016105 6.806974948630789
Mg 5.438481023987111 7.271539613743034 5.863779330851666
Mg 5.699340569823622 7.995395549619261 8.803338942421261
Mg 8.267024286912513 7.3311087997427595 10.620693823331118
Mg 9.433819937768277 9.645917238979711 5.0612016037674215
Mg 4.825119011604069 5.045559537575612 7.768951550523002
Mg 8.52243669953726 6.596965807271601 5.260688392374389
Mg 7.797550798641202 5.752224768182023 8.01040568795576
Mg 6.36322704674505 6.255964390531552 2.9350571359148336
Mg 9.562674561027226 8.229313085824693 7.989893712509868
Mg 5.556358439989831 3.137469728833194 10.036725902863198
Mg 8.346421377410369 4.141376443063327 10.56777088944904
Mg 6.6479516673871135 4.197251053606564 5.3461224647704695
Mg 9.479570302572343 7.502902174845511 2.6565994339415306
Mg 11.650339552986782 7.719179355644706 5.107262282250019
Mg 11.779235718563957 10.07916524960038 7.029006914518764
Mg 10.750891989396635 5.385194432357085 6.926837067496218
Mg 10.745565250057387 5.940480183930094 9.857997519005007
Mg 7.5036609212288115 2.712493493193239 7.854835273808592
Mg 8.619979071944112 4.391236240338173 2.7799886543021928
Mg 10.402402273654236 3.02179595477773 8.641999165207945
Mg 12.657087249311962 7.442061908790253 8.061758007878653
Mg 9.399991462482586 2.9962651028749163 5.401423134919589
Mg 11.27185305584663 5.019799636278643 3.899084773908145
Mg 13.585400268995233 5.488825124310476 5.882353857990599
Mg 12.210126535283214 2.8432258493310525 6.156584021492494
