48
Energy = -47.16672717 eV
Mg 9.875664111049337 3.977533315691243 5.604444201098587
Mg 7.192969764327888 5.025125553985831 4.153049131811362
Mg 7.106791334768008 4.251450254044531 10.302463273374627
Mg 11.411420164789897 6.751117023838745 4.2939784926202424
Mg 8.919116051388576 6.546846180845027 9.176881727385073
Mg 9.839438545355167 3.6781214916438674 8.741734872039999
Mg 5.697723711707452 7.084732627437171 5.941984008474262
Mg 5.514631938510114 2.2130615900121624 8.506746003935493
Mg 4.063117618797063 9.051194914945349 7.801866714394041
Mg 11.391507902319228 6.338104293601852 4.321987069555743
Mg 1.3071599098632727 4.016974896811248 8.714780745434052
Mg 2.7494306175964036 1.9275820244941384 6.853566744103176
Mg 2.5803417929262653 7.08467000547353 5.923054219561651
Mg 5.682047621331126 7.472012092833052 2.7452726369081253
Mg 10.607204487565486 9.190815589757948 4.641256008187012
Mg 1.3532002423037826 4.755818615507531 2.472002038821539
Mg 5.560029340335503 2.950032868928054 2.3096405763488974
Mg 2.473441039240075 7.592687450176431 2.7445064318470247
Mg 7.172396155796954 4.659423768086898 7.222495698226765
Mg 8.966826224406837 7.317510107001786 2.7190773011744565
Mg 4.065780821744696 5.458447155131769 1.043603836746074
Mg 4.068629350351978 5.116898579771211 4.138181375011571
Mg 2.4251925574658464 6.8346534431882064 9.130710127590312
Mg 11.391507902319228 6.3860837439417715 7.38776067825609
Mg 8.228981380111096 2.0955395704430644 3.833848130777928
Mg 8.79057686172797 6.940361786172965 5.949486810426254
Mg 11.367585091225868 5.972222546242453 7.426880805037053
Mg 7.415689673383596 8.859429770733732 7.961556814021997
Mg 1.2526541417976962 4.27491912358264 5.58024513189681
Mg 9.080254645461663 10.934984728756296 6.428077635918948
Mg 0.9748786119688679 9.146377575412663 7.692540777923431
Mg 7.442499035010077 9.280464934765064 4.423110289330342
Mg 10.582523575697829 8.815966544511891 7.778167536071901
Mg 5.634934180212111 6.710142629829418 9.147776014507341
Mg 0.9966137756991165 9.500967377576947 4.668331215335699
Mg 7.175817133143776 5.352362785512991 1.0641477861057083
Mg 3.998529982286008 4.359221325791501 10.30709131064921
Mg 5.935238172018878 10.99926501937116 6.410489746484817
Mg 8.206330723741155 1.7366557726319927 6.85829104781772
Mg 8.201815751083537 1.4780577674131816 9.884071250156126
Mg 2.7730253287100175 2.288790396242772 3.8127905061671328
Mg 9.884004401866326 4.422573343991511 2.482953758531722
Mg 4.085353853265221 9.435734988865937 4.577200578682097
Mg 2.7881709139296027 1.6263736577524492 9.84479081074275
Mg 4.044828574079808 4.751137544909319 7.21690545241635
Mg 5.563949909400837 2.557281933883755 5.405087806191123
Mg 8.267517209616067 2.5559607108357376 0.8331644929017494
Mg 2.8542062956390573 2.6935003409466276 0.83415446855321
