49
Energy = -48.36715979 eV
Mg 10.998516030831775 10.735630845411913 5.063720939484969
Mg 12.285303136197223 8.205329318038835 6.430583037514325
Mg 10.930894568373116 10.331034547563464 8.02213869908027
Mg 11.237027908701165 7.657199772726787 9.430833311262088
Mg 10.182661084404645 9.945403526516362 10.987568962793
Mg 9.776183639391432 7.268499230834974 12.310060013088188
Mg 7.422060207717636 9.30411357853597 12.002524374141199
Mg 7.329608997870914 9.235462391599304 5.461729438398062
Mg 7.295545701358186 7.232644226821536 14.248238378476463
Mg 11.649765151267442 5.303092720687298 7.563009437349274
Mg 11.720708214054374 5.939985665352115 4.640296937330448
Mg 9.903619599438427 8.23594363715115 4.033046525045474
Mg 8.030864324272555 9.708846073477169 8.774173981653535
Mg 9.266502123025228 7.34254803678537 7.051888474146417
Mg 10.130896153175208 4.945330839255709 10.237694963116573
Mg 6.2590426762452855 12.250569408572964 4.786105892971016
Mg 5.082003291473394 9.290390132726996 10.081101741457257
Mg 7.8278736866288705 6.950025216815536 9.995605152265787
Mg 7.653968276277653 4.926580449873872 12.453612967910322
Mg 5.56198458514025 10.833754135252859 7.362884308929157
Mg 9.30512103462537 5.570559629992063 2.7863572025265078
Mg 8.580628913345539 10.92451995010436 3.220800358025045
Mg 8.680301009024967 11.821825397375214 6.471535351645751
Mg 5.258230255094695 7.005937906954385 12.029799771854229
Mg 7.431250267135073 7.904543031371756 2.3468210881920264
Mg 10.198574377782508 2.6682643206236634 8.218232809523432
Mg 7.960653597789162 2.759449339413677 10.486379268247436
Mg 5.472482925219219 10.083100454676671 2.972492964875807
Mg 5.532778419304821 4.635518521649288 10.140467686758496
Mg 9.496335208125421 4.145665862508191 5.478334899619657
Mg 7.75601170056177 4.718332006901098 7.890692132963979
Mg 3.394902524721944 6.703046510136148 9.527841972726593
Mg 5.9805451772865 7.508270512985724 7.754430818123571
Mg 7.017355672638405 6.237080276176276 5.134303793399276
Mg 3.0155762274569784 9.20081369262262 7.821590166858646
Mg 4.393325309960452 8.053539162252427 5.209168929999313
Mg 6.342932191649601 4.919220544201233 2.4268221110249253
Mg 3.437837714052451 11.064292418185287 5.288213178678912
Mg 4.37330234293045 7.213546583456226 2.2483187573251158
Mg 8.19619717027505 0.3047249032337554 8.878849581823925
Mg 2.454848500628978 9.527213996741002 2.922517535240975
Mg 8.351623191069331 1.4458171526172423 6.215624437326981
Mg 5.952857954936751 2.194075462578985 8.108689634807732
Mg 4.580143942151601 4.847781442118519 7.2305535628877236
Mg 6.300813037194424 3.280646601623834 5.143243814942514
Mg 2.0730044724718395 6.461955132425545 6.681312861857262
Mg 1.0675817533833878 9.073162144869123 5.4912166705399565
Mg 3.9341914794794697 5.012397414151165 4.304319096130997
Mg 1.588782668953656 6.784382642143772 3.690358362043435
