44
Energy = -42.19385069 eV
Mg 3.9927468313995376 4.373045745825915 2.003045021886513
Mg 4.42224944329825 7.193170140009736 3.0293950990895175
Mg 1.8409834094343436 5.615976118428895 3.903934628178553
Mg 7.405761558045084 8.58181310611442 2.8444489972597093
Mg 6.893778220600073 5.377195700961814 2.6898371179261704
Mg 4.816775372409707 10.14874595795547 3.1825637088522303
Mg 9.386272046073154 6.549888194560958 3.910318854416974
Mg 5.9827702496991675 2.519019420830856 3.375837817887064
Mg 7.413101398060597 11.251921606624183 4.310301250188893
Mg 2.7491499379767843 2.5447848426774917 3.9612533919768866
Mg 9.441780945119032 3.5538053702957257 3.7497454540521917
Mg 4.59837378249248 4.7805720165803205 4.958362605851819
Mg 0.6522148029965203 6.817342652569399 6.414328743674009
Mg 2.3897971954173562 8.686587589965868 4.664523530021955
Mg 6.471238792096951 7.180928029886431 5.418733829497863
Mg 8.727607152381161 9.025332408166477 5.763228728648201
Mg 11.74912221983782 5.7212529320149805 5.578615956981348
Mg 7.372110219490592 4.400781162815734 5.700133561115696
Mg 11.47050573556007 8.68640096503745 4.60657816576795
Mg 5.1220699327865855 9.792592293584152 6.132694382639832
Mg 10.551815376073165 11.195442845258583 6.329866331837208
Mg 7.900653943425457 1.4907197300721409 5.517188656846687
Mg 1.972112181619582 3.997974265283556 6.564093427103483
Mg 11.699240274540937 5.458317420380168 8.555443097354832
Mg 4.801000942150012 2.0308278311047117 6.212606840227087
Mg 10.057281691322213 3.4424387577644078 6.913973436178291
Mg 3.775699252099341 6.84744722772343 6.72851545963836
Mg 9.054265506861151 6.423264268046333 7.182334269703867
Mg 7.583830078539628 11.51780448835481 7.336298153450501
Mg 9.722197834904392 10.294093133211431 9.07369167767811
Mg 11.551250235274335 8.356323066441481 7.572469700976292
Mg 2.33010518911283 9.139201717744012 7.845887464287484
Mg 6.168166654671654 5.65702619129205 8.178127049808342
Mg 4.953586619261114 10.749183747125304 8.935603955109277
Mg 1.9620535370342669 5.951367206153474 9.021386461445221
Mg 4.013672205455882 3.6060669179946365 8.760631241010431
Mg 7.086388590950709 2.6423466401309077 8.201087132214331
Mg 9.020813110097203 4.62471975831031 9.743065168508814
Mg 7.200478866898173 8.57820645221745 8.456213093261841
Mg 4.430599430507791 7.857462926197095 9.595403447521488
Mg 9.948367760583238 7.492551207136125 10.102433209419809
Mg 6.335934885130687 3.7525880822454485 10.883308305721776
Mg 4.028163469121957 5.455023116813776 11.214765836464355
Mg 7.044652114264958 6.729185743167882 10.968464733394535
