42
Energy = -40.15772198 eV
Mg 10.25413918883047 5.96705758324317 11.4411594694639
Mg 7.759982319905515 7.5373785504320745 11.10138761580484
Mg 10.52743020464159 8.50317908823407 9.720877319486172
Mg 5.0407811707605426 11.370633424163596 8.682582366026358
Mg 4.915672379717457 8.763120895417332 10.15910379913446
Mg 7.7864214315593525 9.714055058797712 9.030779687334634
Mg 10.329543907684336 10.35524089056887 7.1547580935610995
Mg 7.445177128693059 11.648304808524655 6.780469779745866
Mg 10.68519978068106 3.622567736264895 9.585545872212144
Mg 7.814186980206948 4.557663543607103 10.179430748977456
Mg 9.224365055023206 11.266083501429947 4.405776646437809
Mg 12.348410025086674 6.028053904010735 9.319954248726077
Mg 4.8740054210422405 5.556191752725568 10.631759252745015
Mg 2.629491803910415 9.08491815480756 7.92505217055362
Mg 9.337311840232909 6.276375552845689 8.06883175488069
Mg 2.3952553059513413 7.129602068382966 10.396898818573268
Mg 11.831451729870807 7.718160767902095 6.926601189010444
Mg 6.525803410108809 6.874079138045748 8.43617748484349
Mg 5.484447008373598 9.112933387726219 6.804579358881545
Mg 8.277382732368517 8.42926819424466 6.073672973942274
Mg 11.27852010754638 9.135940563158012 4.350992148951165
Mg 5.577920334421482 3.8507043350717955 8.119020267725345
Mg 6.3607266209112785 10.362632757241704 4.227219733865115
Mg 7.0360409459214726 5.4784611921600295 5.909499253470049
Mg 8.578677007802431 8.67935943925555 2.949384743199007
Mg 2.5449500653281882 4.434258826427019 8.771893536009301
Mg 9.957165996768525 6.298838167616056 4.905088028982365
Mg 10.98425377453468 7.006969054984619 2.1178040983075026
Mg 8.597068779272778 3.2625152486841706 7.444051299482881
Mg 0.5618252847132429 6.72225788989577 8.185256742197414
Mg 3.9746899106587428 6.419513089783836 6.8517363495314285
Mg 11.439271130349708 4.440695201948539 6.752519397463629
Mg 3.4342575752532154 9.072624030896296 4.6370587811580615
Mg 3.7743036536057684 3.468310271276092 5.659760312073689
Mg 5.904762564512115 7.35979762350412 3.8987155287271706
Mg 8.921029278663509 3.514556316720024 4.403164789638166
Mg 8.141504181693485 5.698783924995438 2.4061393104951727
Mg 1.1462620891593893 4.78156693702715 6.041328502328224
Mg 6.455570159476647 2.255150150900175 5.567127193274864
Mg 1.0454154146250474 7.732199473051952 5.474099295162339
Mg 3.0688058231676902 5.963176829616326 3.9182137120261165
Mg 5.727274838675007 4.190281681821754 3.3682672243888083
