41
Energy = -37.70294769 eV
Mg 6.451873852187058 12.102387575079895 7.6541231184435174
Mg 3.933737789509148 9.89480702454609 8.043728192041621
Mg 8.709385975200377 11.796234939138456 9.636143297844777
Mg 6.336513345519253 9.862136721408202 9.815184374545014
Mg 8.918577457425837 9.236094198805882 11.3620659241359
Mg 4.335371869423859 11.7389292700166 5.635685842759008
Mg 3.0793661825273655 7.1235385262759365 7.231864901470035
Mg 5.371531143505367 6.570556682721732 5.14895543411285
Mg 5.788323085661737 7.191793398390161 8.618742153408553
Mg 9.297426460123235 11.663524943661363 6.358442150798961
Mg 6.540587065539009 7.51397666180222 11.77227478211239
Mg 3.643155363023605 4.964238322067072 9.260751218285382
Mg 11.267724644474091 11.022150756845932 11.332277322489846
Mg 3.62259837651324 9.07417435956668 4.680707962209997
Mg 6.31997314631203 9.296313441605308 6.321767611325532
Mg 11.400804487381789 11.239444644631012 8.355953804377322
Mg 8.859201706783415 9.129547955475346 8.053626193569942
Mg 2.296057036271686 6.420201360123369 4.328747763059718
Mg 6.3912543736887075 4.851751641692087 10.5504087946536
Mg 7.068636679476975 11.647002422331033 4.385143047451941
Mg 2.9866136757491097 4.259509699491941 6.226849954133049
Mg 6.28043621047085 8.930288661596313 3.1883664505119027
Mg 8.207731546494195 6.480341963194573 6.598261020194137
Mg 8.920991620970094 9.087311657750147 4.779514668880128
Mg 3.818914102560887 2.18039234651065 8.093601674604049
Mg 11.438792581962 8.442208317319263 9.6567377575309
Mg 11.500535641252336 9.081156860415062 6.474289614404593
Mg 5.98466201303073 4.365375391312537 7.351539391234471
Mg 8.750462963144775 6.682349327529277 9.823774715852045
Mg 6.656981150659693 2.0677651225338916 9.529057790788027
Mg 5.989912802519292 6.187820365511709 2.0883903760303033
Mg 4.229999010132986 4.266182429495175 3.364388854742423
Mg 8.613898946629414 6.503095552261606 3.306644222828183
Mg 7.182145159272706 4.1879474455002885 4.4656550009752936
Mg 5.130461789897854 2.1540127215544356 5.256423594022109
Mg 10.964569492404694 6.705349695423071 4.9666711340633
Mg 10.05734703417808 4.061716522684595 5.86137022361324
Mg 5.891996236910195 0.052722262745543015 7.444493408977855
Mg 11.117232882578682 5.971628345358848 7.999776363826669
Mg 7.968971582428823 2.0666327661723614 6.544812065981479
Mg 8.926208080998208 3.9903541936596127 8.717970294905674
