48
Energy = -46.90912493 eV
Mg 8.916384226323588 10.125342539397764 0.9390590239372496
Mg 4.984228168986462 5.618247779051806 1.3617138253740955
Mg 6.8250435874062045 7.892912819008953 0.789188102856703
Mg 9.948357937208266 7.337638166471477 1.837728862389793
Mg 10.37776901615168 9.766541020178474 3.6369508090625597
Mg 6.409594854105527 10.670971788249078 2.47296137595836
Mg 4.663317486849535 8.113291167092124 3.06342153427564
Mg 7.846889023828447 4.9879872980365905 1.9732591523946212
Mg 3.162627745960257 5.374657531381426 3.7249312077248917
Mg 5.2335797354789575 3.186406612936945 3.196758749298726
Mg 10.605091103239436 4.633833120656033 2.890499232701827
Mg 12.009475049013563 7.202408785559019 4.181677685860568
Mg 5.865413123255419 8.202776159273704 6.093259192321588
Mg 6.35341703788816 5.663676631643779 4.526680931697549
Mg 7.978580779564446 10.642816604140313 5.3704512769970405
Mg 7.720905403767579 8.169406338199162 3.6614718521666103
Mg 2.766039550213027 7.999396661876228 5.424707736666989
Mg 8.714838107443875 3.5096874940837197 5.13028059867148
Mg 3.009342549327788 2.8082038062149537 5.613738240787609
Mg 5.916718027290856 3.0430305072438246 6.103154415030031
Mg 11.890452706167734 4.264736829127485 5.403470775964444
Mg 4.199586660659925 5.572074038202249 6.638484746204782
Mg 4.64984905484251 10.655478468270202 4.8596628944333675
Mg 9.354847026472966 6.487611671108581 5.477825797572275
Mg 1.1374331363810988 5.217131233696245 6.041665514897554
Mg 5.993546947957324 11.404795705135474 7.514077952936592
Mg 7.363996527973269 5.793978275703144 7.478483003945229
Mg 10.521759771936717 9.143077992552223 6.583606607472161
Mg 12.175285342417618 6.642501330325348 7.134943194792584
Mg 10.198308393600222 4.258247315337397 7.852338302268976
Mg 7.795811598110355 2.4042548099359466 8.242426924920185
Mg 2.232267683864946 3.864460720934782 8.516011731668137
Mg 3.4180102430838897 9.890526109555429 7.719874205357746
Mg 4.474396966601513 1.6956118100808064 8.348281335216328
Mg 7.842025434132179 9.09728124895928 8.186246439027524
Mg 4.959461962852365 7.435248402312966 8.858328803603014
Mg 1.7523008782640417 7.174198670362764 8.228609592362025
Mg 5.358954147461274 4.426389251780354 9.13241476713234
Mg 9.879316009028367 7.0374318294567075 8.982253234194253
Mg 5.535055678915314 10.065965968887546 10.130434155034285
Mg 8.411307042221285 4.499584225945364 10.352468312151577
Mg 7.385306718199616 7.3413687975654405 10.72340601020113
Mg 6.399832702323209 2.1488696032698855 10.931774053272406
Mg 3.581914275047248 2.864717016512983 11.203454473636242
Mg 2.9694571704318027 5.8503224787933945 10.717431929970475
Mg 2.633453863363505 8.991964309972468 10.502629765757023
Mg 5.773111318377399 4.950865670202871 12.083735325895601
Mg 4.802874152230637 7.869609311539346 12.16130227016041
