44
Energy = -42.14695156 eV
Mg 11.58766563225749 5.41418586510325 5.253425377742783
Mg 8.05080624161843 1.9464060847362838 4.08681022166361
Mg 9.847410787791103 3.080118311621101 6.284106862642458
Mg 9.438942244626306 4.534899518484249 3.4238988113938382
Mg 12.935418145690367 7.074719665742857 7.236317650238243
Mg 5.072452723578859 1.7678626406534077 4.59653058232761
Mg 10.974349399654368 5.059173628744447 8.362348704563907
Mg 6.658457083631982 3.5291714915570904 6.45651582345914
Mg 10.467625723465769 8.27545259740984 5.2023866009433775
Mg 8.351208526945541 3.7902430017292894 9.00226790259222
Mg 6.450820732119775 4.408644680697564 3.249574740964514
Mg 8.510632478107823 5.890252451651841 6.1341616520349005
Mg 11.84178693410253 7.621635479511735 10.120305811449798
Mg 7.816125666015054 7.28820834188053 3.5855760219868427
Mg 12.164882736708698 9.792563128395807 7.654833319742618
Mg 3.6066204632741354 3.3174465037405327 6.881563458005589
Mg 8.998472291051513 6.17976488841284 10.651323980745417
Mg 3.439897352915734 4.1809100798298235 4.03292730175434
Mg 5.431676474410109 3.1168796845571927 9.222931681435517
Mg 9.661281563106344 7.804522605187348 8.028227001321257
Mg 6.060583657896358 5.206947141393522 11.282095873119582
Mg 5.281343773110368 6.247399349368094 5.615397012647311
Mg 4.493718267892617 6.65922282238289 2.619131739975483
Mg 5.552745424558324 9.210208265448662 3.7656264786447236
Mg 8.353948387181608 10.309624489307664 4.314279885935829
Mg 10.341309219313061 10.352116842617455 10.052350944040388
Mg 9.910495224827384 8.511333754790144 12.335969856127194
Mg 1.4917723751498757 6.340042146051057 3.3934665894858123
Mg 9.434861948008756 10.787757948195846 7.135458956276622
Mg 3.571843708792518 5.450505835168141 9.211173235353028
Mg 2.1537569243000627 5.8819060042245335 6.385309899810263
Mg 7.052942103936865 7.65697569283767 12.66837337685279
Mg 7.573625647569951 8.837079415491564 9.727103435475293
Mg 6.956540133892004 8.75815187875325 6.605882210640035
Mg 2.8950368858159683 8.414303898560108 4.84580457826818
Mg 6.552483148619033 6.284170485234017 8.424915307061928
Mg 5.979311142778779 12.131137186964043 3.994481179346935
Mg 3.9805729451251644 8.129846242481316 7.819604762113311
Mg 7.718918137644613 10.61063013138955 12.152720238928493
Mg 6.839193730445395 12.13862631485464 6.850610667406326
Mg 7.937950689345193 12.147577244840503 9.58224059947742
Mg 4.741132314453473 7.903114064566382 10.745386643471466
Mg 4.325906349126983 10.695649673516 6.178459500925483
Mg 5.281433488402964 10.593822129286165 9.1024469282747
