42
Energy = -39.83514067 eV
Mg 9.95769469128632 3.6278912539547408 8.580538130910634
Mg 9.315790899035042 3.257057182228423 5.558826783270137
Mg 7.291393684915678 2.4837375429801334 7.766356091897946
Mg 10.54919683963321 5.807869017826079 6.678124622393428
Mg 7.863685292280145 4.050690033003667 10.58787451040672
Mg 10.12110263026294 5.505436744319221 3.2261490319570623
Mg 12.099320355811942 7.488275709497196 4.807262606392788
Mg 9.524315253239264 6.621558945329313 9.596379668840898
Mg 7.5459438268732155 5.547001532105173 7.377420048912218
Mg 7.289527125214541 5.2347869334442505 4.3339656085554275
Mg 7.788084635106 6.496310758931018 12.599511305038002
Mg 10.763291547973514 8.341459258004294 2.3460166764701307
Mg 10.645256933344537 8.815069371133308 7.388853646375459
Mg 5.034086237046375 4.185568977383831 6.359773751161652
Mg 6.58815547420139 1.9939330042536225 4.796938912681772
Mg 5.339115781267262 4.836050011971841 12.337355109429218
Mg 5.026332547371729 3.9028342588021534 9.359678199116807
Mg 8.882309034911026 7.835011409576372 5.012077447906638
Mg 8.452689896787597 2.963201231669322 2.573730845312441
Mg 7.956120767446243 8.997564895635279 10.96676956113241
Mg 11.193044402309066 10.305023398796534 4.745150015160352
Mg 6.9049012528872025 5.089437943714048 1.2714753854166005
Mg 6.341423446799244 6.6204345576377515 9.908126123213064
Mg 2.40945727673846 4.472289776379415 7.968277986040626
Mg 7.7551146517644325 7.765088517172549 2.1570152603475474
Mg 4.697872446198699 3.9410441164169865 3.334085444820157
Mg 8.85056312928502 10.51674905160021 2.91825453294733
Mg 7.621774278265927 8.603569411016117 7.905813882334163
Mg 5.934435076739196 7.485783594450519 5.582048357353513
Mg 8.360847505106943 10.75099888882621 5.8823359063902965
Mg 4.912761690501592 7.88013961496797 12.26431802888977
Mg 4.811651238321748 6.996486240797369 2.837158529646626
Mg 6.026966871978327 9.870251059400672 3.7441387717288537
Mg 2.9885405721608493 5.79047590095578 10.621135883092432
Mg 2.9312596364275127 5.9528818843597415 5.117243959422603
Mg 4.325760277546095 7.054578473983021 7.886147757892838
Mg 5.246124845729687 9.605372875672694 9.635113794968285
Mg 5.43625011233002 10.459191340740363 6.652709895179613
Mg 3.2683422400841473 8.885331804683263 5.025892843564995
Mg 2.4972667622824893 8.69407851377355 10.571565571879134
Mg 1.370119114099806 7.270670762143249 7.943296653525831
Mg 2.7761871816085715 9.927157486256318 7.817930133768221
