49
Energy = -46.62751867 eV
Mg 10.844364829676557 6.438544979795254 11.789053641482054
Mg 11.207805388132165 4.821968915793073 9.133350648168568
Mg 11.781540352689056 8.50799731128084 6.584170685918126
Mg 10.148935610735434 3.449695790391136 11.90351368214381
Mg 10.244358516003581 7.914983171142792 9.242633459863349
Mg 8.145222145073491 5.354090944542799 13.245985416638444
Mg 11.369233291825552 5.618333717450677 6.282023210433469
Mg 9.930169408272707 10.508415959752787 7.675580480988383
Mg 8.098793035535168 7.939625552775869 11.808457835172968
Mg 10.937561235385127 7.373359556477076 3.6496708769637416
Mg 9.244906327658343 2.507515978127328 9.173815013825706
Mg 8.44832737818177 5.449175930684673 10.163626382449294
Mg 8.882490576189673 7.538122298227099 6.183872029438952
Mg 8.219569409381142 10.254162100115677 10.14014761537867
Mg 8.676889959250857 12.596347390976488 5.31941377531215
Mg 7.053907074813462 3.099125392669573 11.374029190178554
Mg 10.143791584372643 2.7717685350453634 6.324080112411042
Mg 7.8514450852229505 12.580004874715092 8.476766618137276
Mg 9.784747099560134 9.99208979399011 4.605982839187215
Mg 5.712600090393741 5.96113067133615 11.374591929249203
Mg 9.174972761483755 4.996693439270656 4.301366772579695
Mg 8.18588052955087 4.907448754327888 7.280227325096531
Mg 7.707052143670669 14.96585863685424 6.790190917000496
Mg 7.124180803508417 7.7971401697896825 8.65292694953246
Mg 7.068370429104289 9.934982139498876 6.323151825868752
Mg 6.445587124465651 2.4404511890926948 8.188668154009491
Mg 5.424351887379428 10.712632174488395 8.787833258845055
Mg 5.710406575170752 12.817738134634393 6.249673574610477
Mg 7.173842337453824 2.758999705426694 5.21835049001874
Mg 5.273688168123082 5.393867142658275 8.123012438921169
Mg 6.593463550707778 11.015070403375127 3.53163338810226
Mg 7.7764414536149875 8.097989122006526 3.2965163783859532
Mg 4.277576527054512 8.073377811216156 9.87667685577195
Mg 6.242617723746883 5.951182855342758 4.9927713860733185
Mg 7.289970687646291 3.714162204478316 2.424841813616487
Mg 8.878801503605773 6.034344114402478 1.3801505305527932
Mg 4.369780372982287 3.445122528952356 10.246058159149893
Mg 4.730663530332099 8.022697446530568 6.742509464419155
Mg 2.5766787833198297 9.962735196465717 8.050708343309179
Mg 4.152849312147762 2.6946999184878924 6.225349923245127
Mg 3.944883741265187 10.71119426525895 5.395824018498344
Mg 2.4530468198388333 4.131286973934028 8.20163248423222
Mg 4.857452280183558 8.500963646144664 3.648771581814406
Mg 5.787142172307035 6.2525236156361705 1.8324029320607842
Mg 4.5228688585596935 3.8044867281051884 3.501825115762303
Mg 3.193642860182728 5.546722084522644 5.663307373602756
Mg 2.048896289428609 7.058127781848103 8.021627682376998
Mg 2.0116973957793576 8.386167137211658 5.096288248391511
Mg 2.8994928742484634 6.326916945462902 2.8371691963339556
