48
Energy = -47.19618133 eV
Mg 5.641921643429122 1.4913925578488565 7.078493495649637
Mg 8.317220901993647 2.6050450601601134 8.095939757676247
Mg 5.416541897602462 4.731611488583109 12.16821444187689
Mg 5.727625746622545 3.2894000233005958 9.499682239558743
Mg 11.335863461913705 3.8285666223217003 8.225148474339141
Mg 3.2663647446048163 5.044216527937689 10.0190825268909
Mg 8.21008871724082 4.389744098816907 11.025829681183176
Mg 7.578177252962121 1.7819013609852672 5.022468768955365
Mg 4.843188162484532 3.1268297780419005 4.564290066153429
Mg 3.455772875479557 3.5245208187684067 7.353309205468099
Mg 7.234548323674589 6.9505813885906464 12.610045928763157
Mg 9.845736012506979 3.627931861018631 5.56124018959869
Mg 6.4404922067390755 4.759507194671373 6.719525208251669
Mg 4.353122197787632 7.557278555628053 11.673786879995717
Mg 11.264248315195884 5.2351457592989235 10.775698538898041
Mg 6.131428076302128 6.425139313387995 9.40842270831454
Mg 1.7840894728617716 7.621545344457661 9.988385781876895
Mg 8.8623537751305 5.6633883587970235 8.41421270122599
Mg 10.57345009710564 5.914184179888165 3.2879442172433353
Mg 9.528917177706244 7.607378392320906 10.821226618685813
Mg 7.625029224179427 4.485517725089178 3.69121472015821
Mg 12.17954856826586 5.384214304821966 5.870288584601106
Mg 2.4359845879364275 5.027163281262528 4.934149745194718
Mg 1.0775165472531616 5.537613999559318 7.830416528932695
Mg 3.8707214783366797 6.577450054154771 7.238324951363029
Mg 11.566047316178352 7.225634773400355 8.32436899889303
Mg 8.84759354290952 6.622262142170459 5.669708585052053
Mg 0.18935448389710055 6.978349417806998 5.403666244713111
Mg 5.250607105317394 6.246255600575422 4.27366333035019
Mg 11.532884722626012 8.233449136880052 5.3715295258420745
Mg 6.894982611132096 9.169515324430213 10.57171924777597
Mg 7.878708843472329 7.4859721722023425 2.8199401730293747
Mg 6.358678352305635 7.990380556819371 6.726396228940507
Mg 4.27947918745001 9.129264909335857 9.038507236696011
Mg 2.8800944899665284 8.117950716740303 4.602579315583947
Mg 1.6416043386391685 8.823769475445546 7.2782039983496025
Mg 8.90598851683911 8.853459348764654 8.207111439645807
Mg 10.551064918825329 8.859859169838426 2.5885554339283003
Mg 8.584087053019973 9.547454559967125 5.297092143095357
Mg 11.493181429808466 10.290376210720952 7.5516940412612135
Mg 5.693925489066775 9.290484598924515 3.853353311085298
Mg 4.145626426984131 10.341581216822458 6.244012045427846
Mg 6.634944967169006 10.882380909497588 7.941822372116087
Mg 11.076144814625135 11.180315783260944 4.546910248182629
Mg 8.236389208902112 10.772747550791758 2.6024557156113914
Mg 6.614857887921657 11.947572141656432 5.0805760496160115
Mg 9.225460548201875 12.135882979871255 6.846373184985766
Mg 9.051796406995244 13.288803392390914 4.011606262796534
