42
Energy = -39.27226831 eV
Mg 7.375880602498279 9.791099053846292 1.629787773571079
Mg 9.626840678867078 12.007086265159431 9.670807344290258
Mg 8.78359049068038 11.24094564073659 6.984160403345771
Mg 3.7935325402142706 10.061678707464349 8.365760242268355
Mg 4.888966068026215 9.390536982356492 3.312217507810547
Mg 6.1025924214455625 9.79370163536085 6.15978001072228
Mg 8.604683040599994 10.847332078104953 4.104767695084506
Mg 3.1709768435442536 8.899847940137986 5.703824699021243
Mg 1.1934287585255936 8.043435484480296 7.873074278350571
Mg 6.608107175021199 11.063286104808169 8.969244044244459
Mg 8.410239658070331 7.106755169555758 1.050159666809931
Mg 8.440408064384984 9.573533422281168 10.928788518139347
Mg 5.719947896850094 8.54295199095748 10.329163529779821
Mg 7.541972552159321 7.942009805022284 4.161235015710564
Mg 10.30811450510164 8.87082394199256 5.859384289056524
Mg 10.330028584009286 8.591065445140234 2.8896105765918856
Mg 10.841034725149465 9.319345248521763 8.809488526548805
Mg 5.5478059273830524 7.018148674584481 1.733101655547454
Mg 2.8019508945540617 8.014886147272339 10.374614278056658
Mg 4.767525761836024 7.219874123228675 7.690172826669064
Mg 7.9624354412360105 8.368202195411609 8.08353638018041
Mg 10.352404064588535 6.4721121032527735 7.706156174191563
Mg 9.983760888814526 7.004001642757858 10.567195576435378
Mg 7.413856024306706 7.016864021174953 12.403516649633596
Mg 10.107936534398286 6.100006766410367 4.761745595923324
Mg 10.570048180937235 5.320878634984482 1.8879777765153314
Mg 7.040595390247576 5.832608309672365 9.431253778213978
Mg 4.665725012112934 5.994076772591327 11.572403587305544
Mg 7.410544622216841 5.838205781825929 6.370313642424528
Mg 2.364450333255044 5.899629956603101 6.0448132235912295
Mg 2.704122594104473 5.3568307696502435 8.976444496709368
Mg 7.430099917937739 5.03824813931432 3.1419468013988725
Mg 4.773883527931718 4.263793497475345 6.907153660997052
Mg 9.624763854243064 4.922824182823427 12.683792912394225
Mg 4.871802759761597 6.308651023890636 4.526136404626508
Mg 9.6949630119224 3.226352046061707 3.808709340026585
Mg 9.696920161281168 4.133864069393694 9.656895894214838
Mg 9.760349398823823 3.7009013766754526 6.705293312681569
Mg 7.039341458323633 3.828988961478891 11.650239201673665
Mg 7.165844889284509 2.9446269269316243 8.329583413414545
Mg 4.737671632940789 3.457840349974317 9.9110858841802
Mg 6.961252483010862 2.947840156653018 5.349574011576189
