49
Energy = -48.95630802 eV
Mg 7.647281610187906 2.2038458656609614 6.441837574026932
Mg 11.09946877492731 5.71959568731218 8.991138336207703
Mg 8.617702455604153 3.5248290083099043 8.953882189762405
Mg 8.63255382269867 5.752173892674594 10.935740883396898
Mg 10.139040820845565 4.114986598878437 6.343375051434933
Mg 6.099182037027315 4.00940440123411 10.79522133337962
Mg 6.100975610808418 1.6394794304544449 8.921188211287424
Mg 10.99358749865178 7.88333851705741 11.3582765720272
Mg 9.429632703028204 10.35843608958326 12.82202460672365
Mg 8.963219546611938 2.751753818440867 3.806863047121026
Mg 8.52895737357988 7.6720515545737 13.281138400580538
Mg 10.88559508442882 8.755369612578276 8.323494892215724
Mg 11.275701996110234 6.9110951594092835 5.986219676798356
Mg 5.898426760175545 6.630146248709218 12.30835661209001
Mg 5.981016660630594 2.5849202443652057 3.9227267974929494
Mg 7.379738960597484 5.126850027622491 5.258165169130397
Mg 10.904657476697473 10.916535308317098 10.449535893119108
Mg 8.502198607992234 6.524487393326641 7.697234301692339
Mg 5.802404223351973 4.7113977302020595 7.730908490123188
Mg 10.134762990769163 5.458217199035157 3.507400467547234
Mg 3.4847381081574573 2.8866069598118886 9.312999119269488
Mg 4.261324660293238 2.3813376680667013 6.408805662664568
Mg 8.40900009003983 8.729844783048625 10.159672487040167
Mg 7.843794058083262 11.727561043205128 10.208909089716252
Mg 7.2334132490173895 4.877699055611771 2.255784289355193
Mg 6.382869661898832 9.735168504278814 12.249733051105004
Mg 10.668521539039649 9.9467880012743 5.534973688394047
Mg 9.798814323202889 11.829327079729046 7.870223983609225
Mg 6.5408031365729045 12.160793179520637 7.289853284415521
Mg 8.45174687812343 7.877990940478155 4.783695187738887
Mg 4.30464873494214 4.941534599634252 4.662098010764398
Mg 2.7943116443712093 5.1947900264606295 7.263039981223135
Mg 6.012938847168532 7.218331238226924 9.345396712346071
Mg 3.4957178899060453 5.7001358912966245 10.252459073688145
Mg 5.642375268015506 7.515010593537173 6.317661439386167
Mg 11.223682600730822 8.209654961279407 3.0645227470060576
Mg 9.139967344219516 10.382821040848485 2.749214594505118
Mg 3.778206246817132 8.557849361475379 11.265106126745032
Mg 7.84971658371704 9.471244438749919 7.341288885742997
Mg 8.530211615671828 7.572519008357775 1.642731604513331
Mg 8.704375940933721 12.209941754034665 5.11102808801959
Mg 5.700870059744861 7.2666402850288705 3.2553347624703712
Mg 5.2345940225108 10.267205932073127 9.22912564499872
Mg 2.776856107986742 7.50954889289164 5.253408254527733
Mg 6.406732016508445 9.777776739811362 1.690308767084629
Mg 3.1700238148127813 8.045335036442056 8.27686395587361
Mg 6.483924326258837 10.277350541108598 4.66977546733657
Mg 4.04847474071915 10.248727339869498 6.437410616924013
Mg 3.829369732314599 9.618198868582814 3.4639900423537915
