42
Energy = -39.45335028 eV
Mg 2.947190949420174 11.315484416416655 6.290715479715954
Mg 4.579881251919004 9.274735874395104 10.848265487432919
Mg 2.326473832189364 9.819059470444405 8.847922951428417
Mg 5.7556200770291355 6.459433653779291 10.860854633098718
Mg 7.897288754070762 5.168465094711905 12.64310782511957
Mg 3.3789406742433155 7.01788790874369 9.01683906612439
Mg 1.6822888969875718 7.922425475932889 6.6022421582789175
Mg 4.351871303927867 4.062749137469839 9.129422767453436
Mg 4.659826997954248 11.550129421428565 8.913887386714425
Mg 4.630198946647907 11.303181718072596 3.8167542358438857
Mg 7.685937698403549 11.66280536893012 9.132185952742592
Mg 8.728817192471006 7.560329798119097 11.110207880825227
Mg 2.2604204087569824 4.9511039507126675 7.041803033674195
Mg 6.831776073558696 8.732147936944555 8.907714818529083
Mg 4.7215398267703375 8.78134261513745 6.635165985919102
Mg 2.6583540502806193 9.159461261693375 4.0711432217768415
Mg 7.307924255837247 4.140209145714374 9.790500378673384
Mg 5.96239856152562 6.0710357791102005 7.463699403825873
Mg 3.6266762968939443 6.336116815285964 4.812426489098357
Mg 4.731200069046956 3.561218120051762 6.014057984335467
Mg 9.874974634802228 9.53030568823115 9.143738384148099
Mg 8.983450467942788 6.271439460427819 8.272318776687401
Mg 6.1990107191132395 11.55228833999383 6.4167955459231125
Mg 5.5401275091725335 8.369433535921095 3.5584297405801446
Mg 6.233623943256211 1.896503996716294 8.075994865374211
Mg 9.508947634172426 2.4863607157949255 8.673433603720865
Mg 9.269012681120941 10.994237051845055 6.631760468475223
Mg 7.88181657841588 8.238139760054274 6.065947147189127
Mg 10.202821117017827 4.6481938607021585 10.857714606983995
Mg 6.62610089021497 5.671421426691635 4.411172633939218
Mg 11.584868418118617 7.238654428500417 9.945642402719551
Mg 7.632622637282954 10.60561399575344 3.954914434014098
Mg 7.811326746860529 3.740965458171786 6.461245595225087
Mg 11.670166324156295 4.6595675418964015 8.210244840409558
Mg 10.468173705173836 9.72491783311277 4.2381260215020085
Mg 8.567027503741503 7.6774666364315785 3.0597791940583505
Mg 11.071004699936587 8.053087911156014 6.7174278491440305
Mg 9.639081133515713 5.707579583772111 5.170610452290877
Mg 13.7156958942458 6.955286034269058 7.825380276682977
Mg 10.714578933068397 2.9664554874000015 5.88160703926735
Mg 11.656234807206067 7.145923295541484 3.4694790588107853
Mg 12.735901373510583 5.298828695048549 5.451219727855754
