41
Energy = -38.77429221 eV
Mg 3.7179602524875244 3.6393339614455757 8.343904860503875
Mg 5.675885911131464 4.544998759166399 5.98087209953568
Mg 9.986069000687392 9.378321726970094 8.391135823647325
Mg 10.079860752324684 8.002776306362037 5.518194847402165
Mg 2.32362287503592 8.372139146738633 7.472386362937565
Mg 7.640466323623367 11.489102014774279 8.035772576178402
Mg 3.9026255617795074 8.350103442051147 10.30971415648407
Mg 6.891264699518506 9.470846526195608 10.029115000339344
Mg 6.272214741631056 7.306412761397288 11.891341218357105
Mg 7.112819387997543 4.265722616232004 2.2000841282895403
Mg 5.100375925201746 9.010244856742888 3.0385777594247476
Mg 9.161236439685815 3.6083061652662978 4.362181320806295
Mg 8.48797306275457 5.472491275807016 6.95946335723329
Mg 7.013823929283057 7.264245596774266 1.4283443370440023
Mg 8.23931951538984 9.294505255130291 3.3813397465667414
Mg 8.188364596620747 2.2574202748479064 6.85944123759817
Mg 6.2459869302908295 10.945129538261833 5.267656908484322
Mg 4.773662440939982 7.588468576710248 5.746904792327803
Mg 2.4320592260290206 5.474448664097459 6.35537198295948
Mg 10.938241714897666 3.430654323290589 7.044386245104932
Mg 8.575368522165974 6.884419844599297 9.763646052920562
Mg 2.0087964967837832 4.620432044796814 3.5396250470377253
Mg 9.319736410333615 10.903097679875815 5.7312443621398925
Mg 3.2658996993638727 10.205725591832355 5.243472926329223
Mg 4.539029512617983 5.072632872190676 11.02611162668915
Mg 4.3774702790881586 2.9871746868552242 2.5613450048790423
Mg 7.339715432567273 6.5836289453303625 4.46812539678938
Mg 3.417728806790697 2.6139022391868845 5.328779063990885
Mg 9.641226833673478 6.2209009673986095 2.6683274461319657
Mg 6.542458796741009 2.0033233774930768 4.295376352289624
Mg 11.13109241175512 6.4715583010514335 8.027988291046503
Mg 11.386569064227237 5.462025416283354 5.018845564954445
Mg 5.564908379358396 6.613788650899416 8.469402997120076
Mg 2.1244437911392215 7.646295632279001 4.204750948853491
Mg 2.2135290721139063 6.066166814920551 9.360533851010247
Mg 7.541092307892193 4.646950521423262 11.714181971680972
Mg 7.4467004752066375 8.484643498583742 6.963773930272087
Mg 4.868095333274891 10.036174270651241 7.865040974457592
Mg 6.694103064564317 3.8573235781721853 8.990274069747972
Mg 4.629362554203354 5.989802363235737 3.0197649092652927
Mg 9.682767202772633 3.9582886486225877 9.617128185111843
