44
Energy = -42.57612027 eV
Mg 4.019858410985698 5.183171429418487 1.6534989812735257
Mg 2.5685590043566005 2.5746489448850585 2.8033453057458093
Mg 5.538518112194525 2.5882434773570075 2.597508535190813
Mg 6.828002994086221 5.322676590812081 2.8575611862532453
Mg 1.4296461208263804 5.245020866930832 3.190915748874974
Mg 5.488984395520313 7.824759480421165 1.578743297519743
Mg 7.8616235899173645 8.212105014322926 3.513114705404943
Mg 2.7017755168990263 7.947712856740357 2.615655543630922
Mg 9.582777110403482 5.700304420891475 3.9428451525823274
Mg 4.378891311898626 4.75224275962904 4.721367305696321
Mg 6.992190279091666 2.6555394779835146 5.299169244188943
Mg 8.063068379916166 10.791808464698796 5.094909428096931
Mg 5.429227188312985 10.310473243422386 3.421905406179577
Mg 1.7975771866364842 3.564936184508774 5.733389335835632
Mg 10.516822683817649 8.674511905430995 4.809669477525448
Mg 4.147929654529133 1.4553713495444962 5.0062813492225535
Mg 2.625967403372433 9.855779489141323 4.8918187837989136
Mg 7.211122836056904 5.550581146068818 5.899215576635587
Mg 2.025603361270698 6.869980150020353 5.57502018637414
Mg 7.2866058129371005 8.43568996841777 6.759270436163746
Mg 12.165567935962416 5.855826944831068 5.26361279256715
Mg 5.034888260714413 7.646963278078718 4.763049672053133
Mg 12.586934956065145 8.128294509290573 7.122535064709718
Mg 9.739856177614103 6.772966282536212 7.127301724745817
Mg 4.432967762286963 3.2029508602541252 7.423772526291892
Mg 12.375975582562107 5.2699112364139085 8.153049776352844
Mg 10.16765200010199 9.831194578355614 7.720507758960812
Mg 5.109014814297707 10.588365940588183 6.420443041447454
Mg 9.820377477225689 3.8472582879142943 6.562997000576908
Mg 4.833450849876551 6.3672176987355735 7.506505302577638
Mg 7.591937417664658 11.181876924742461 8.218179570196416
Mg 2.125009092098166 5.333763555933868 8.227752427423209
Mg 2.915457371271223 8.74369778644547 7.676846193924906
Mg 7.448529159258496 6.40517157408845 9.03294822281904
Mg 10.994094005795931 7.539001977393832 9.760889117151132
Mg 8.399736542450531 9.116239498960498 10.301013296176222
Mg 7.306561754736801 3.3556409820315123 8.388372033522696
Mg 5.524821960339158 9.060200711069802 9.278255701134675
Mg 9.942569595756408 4.549248136481935 9.70802072076735
Mg 4.841144124219345 4.570307829492965 10.073210996444978
Mg 3.4718279382446364 7.184216036062744 10.27775424626791
Mg 6.106693294612133 7.076285068981158 11.67512896288544
Mg 9.10313916837791 6.609219912363851 11.920866226392004
Mg 7.4670414054392005 4.248623168308849 11.431782638417701
