44
Energy = -42.87253947 eV
Mg 5.890457611849797 1.7148306304336882 8.464056181612953
Mg 3.3797910116781047 3.497086246929321 9.001307785647846
Mg 4.83923101688398 3.5205644442860997 6.385269321002178
Mg 8.22269777964468 2.3726801906476473 6.558026109596805
Mg 1.974804609296469 4.75921998616259 6.654404200277035
Mg 8.448787980560589 2.3418275934157347 9.65431920205628
Mg 3.331880337683192 5.495350550425047 11.291980485881261
Mg 5.906155056526468 3.8525671977460845 10.656367396849824
Mg 3.9491801562149074 5.981861896695306 4.828580239679281
Mg 7.07343424204268 4.640957911079864 4.692603965703951
Mg 1.3668792794605074 6.090919713247478 9.165493203081484
Mg 10.387264111660551 4.022137042498649 8.22287730912084
Mg 10.135954594251807 4.343177081339901 5.112403912650497
Mg 8.659574657807678 5.311712240542796 10.542176877749984
Mg 5.996590554253283 6.823136596098791 11.229699136328136
Mg 7.1997408684058035 4.9069141836247905 7.902243110101964
Mg 4.600584080852642 6.284458305550316 8.176345003179838
Mg 5.800591897314943 6.779782685481957 2.7402148479363624
Mg 2.2953417856121834 7.826437885820843 6.771779576475413
Mg 8.711083332669654 6.895671827491662 3.7582453890468686
Mg 3.2106697071615122 8.287254360822534 10.049439965018122
Mg 12.470539836814602 5.750590397002348 6.787715976669701
Mg 7.359175895500205 7.943344383738475 8.718972807789282
Mg 9.36999820831336 6.658732190990869 6.858514805514343
Mg 4.755528945437213 9.439041214878872 7.659755540203492
Mg 8.743313941858998 8.221772602346828 11.481511824862748
Mg 6.493012608533565 7.469045379501493 5.911402980890016
Mg 10.904131554986163 6.878364624958361 9.471780229284112
Mg 7.000304806372959 9.394370982205805 3.061780232013609
Mg 4.15723744276748 8.962573947740612 4.448872322875155
Mg 9.876788636435823 9.737384247592948 9.057283726819325
Mg 5.70965019140625 9.809247356259123 10.766107043341622
Mg 8.910432799171929 9.391845986544615 6.013837313800786
Mg 10.103684944262456 9.253097361628045 2.5564585476258315
Mg 8.25122167483579 11.164917727460617 11.39540705725479
Mg 11.588722333249766 7.432528418634791 4.462493264934597
Mg 7.196246048935282 11.101485919338298 8.423238217814628
Mg 12.042836264327132 8.693719730141959 7.1835966480403615
Mg 6.304744682586818 10.964118204822665 5.519378112042112
Mg 11.783336783522852 11.710246329355407 7.718075376695397
Mg 8.81165294846746 11.755718650292549 3.605482247064135
Mg 9.588092215799088 12.98742381400511 9.357852176425714
Mg 9.121770503168017 12.517841994393894 6.419871405968476
Mg 11.414947402939056 10.664156990036439 4.880527523603431
