45
Energy = -43.42228815 eV
Mg 4.658427483021721 3.818436207301553 1.9012644518000394
Mg 6.278784302582919 6.4803205971678555 1.904467924916596
Mg 9.359588884804786 6.303009179303537 2.745618155671353
Mg 7.500666957661645 3.8276841209046255 2.914818168147466
Mg 2.7392813153912146 5.73867595191671 3.0647662884651905
Mg 2.24042558081688 2.7259429307418483 3.271125545678182
Mg 7.411120532869269 8.522012038703739 3.8273192118432835
Mg 10.114179679208203 3.689714709038115 4.2587834684227905
Mg 4.175828333384582 8.296861275707142 4.03874195435047
Mg 5.495085886235144 10.91275440088137 4.566314997913819
Mg 4.978135346041834 2.339564003003888 4.473829108913418
Mg 10.542340474284453 8.893220891845704 4.211900414982292
Mg 11.443081691425894 6.173771489032107 5.443992731889926
Mg 0.4552676155781631 4.401870728832137 4.972754615733611
Mg 5.608496930608019 5.666481030814434 4.689663016924313
Mg 8.34063830163945 6.061279157789748 5.571128230535813
Mg 8.361576056995997 11.014802510864653 5.359338118198484
Mg 7.493108750643296 3.1686232774041847 5.939858391335331
Mg 1.3440623274471781 7.40814335771622 5.114382948034199
Mg 12.514675499873785 8.629052413458979 6.700394564355593
Mg 3.294292138820193 4.50566336818125 5.96432139786718
Mg 6.348159326076298 8.244685617206944 6.691967778964249
Mg 9.326507085632763 8.548691100963373 6.903437184980417
Mg 3.341652442084248 10.121932646207616 6.429612305548805
Mg 2.200878604142969 1.8133698806331073 6.088607204663165
Mg 1.032098236248298 5.734202301542431 7.714353208987284
Mg 3.600641668567102 7.255231532960684 6.977935006765162
Mg 11.184655444052517 11.139506061424397 6.454632931567197
Mg 4.99209663735082 2.21088811936882 7.560983587615226
Mg 5.977788199908048 11.309395116430396 7.564050963530116
Mg 5.709224794224644 5.256557575112638 7.729730665621316
Mg 8.304058364750361 6.247121632543874 8.56755072100791
Mg 7.722188252018902 3.026279299254693 8.93511589810501
Mg 8.8695900181465 11.80137854714915 8.233569596753682
Mg 4.534906114051432 9.098811558962835 9.159658160930583
Mg 10.122311440275697 4.080873098080479 7.318996467145832
Mg 11.350635914248185 6.545250573788068 8.598131787887224
Mg 2.6128112903505554 3.435840964564651 8.867958060814226
Mg 10.84182838979774 9.632840272452775 9.222606123796856
Mg 7.652924662438664 9.34771552440903 9.434881412707766
Mg 3.3130899288910087 6.206918165815566 9.810487780046161
Mg 5.314583833078644 3.8848718055338463 10.517206269538264
Mg 6.134309952280187 6.903147239507757 10.578813123618092
Mg 9.580923598505024 7.468058209651604 11.024827223031723
Mg 8.20795053573889 4.733428338017458 11.304981652587605
