49
Energy = -48.42104687 eV
Mg 4.73364398425784 5.054340716772203 0.3402936573096346
Mg 2.5794648413675594 7.036614046306534 0.2144789620868769
Mg 5.452360059425929 7.941518307725156 1.0402147535080588
Mg 7.441925156885966 5.41815829065502 1.6715710955109648
Mg 7.886381199256079 8.069659336176526 2.9289558629516286
Mg 9.95134809393769 5.768832585752932 3.42561535391369
Mg 5.402272508646734 3.4490653160391975 2.761520745833279
Mg 2.8495093187876495 8.417215012295845 2.8157499291662282
Mg 2.5980939961427647 5.087591612054661 2.5623384565092886
Mg 5.4531543293360984 10.018454942522936 3.365338141662375
Mg 4.959048897473277 6.492278579502681 3.653912202906417
Mg 8.310437034343945 10.504342260648743 4.719655737117271
Mg 8.560998151670251 3.0029825569907183 3.266518174697224
Mg 10.65576171509057 8.634450265958177 3.888363369126339
Mg 7.174846229294023 5.106512726673997 4.967638541373131
Mg 10.341151067541324 4.165709849263161 5.943779875556475
Mg 2.268138749111621 6.55182146944328 5.382280405689167
Mg 6.170979076383303 1.9988835471475517 5.2412113492812065
Mg 3.3726722039099384 9.398533339780354 5.585075500839334
Mg 3.6234000999602567 3.786531717876704 5.211124208996493
Mg 9.152837050229468 1.4155343490566772 5.726025265628522
Mg 5.726965735030463 11.331355946592122 6.311178656741966
Mg 6.350049897780986 8.20832325240851 5.697863322155082
Mg 9.040549749432374 7.189252898164775 6.200153899913471
Mg 11.861331617828357 6.889937021704162 6.431201935271977
Mg 10.761010585598049 9.911885623864935 6.479149882164301
Mg 3.251624115562536 11.115650299228033 8.12078061413178
Mg 5.105531871526822 8.745119300236246 8.309920934232538
Mg 4.966883458886141 5.8701985131857874 7.195812854633538
Mg 8.093944141019731 10.0969523449279 7.743754549123891
Mg 2.178137605244084 8.029823598340892 8.056766020278037
Mg 2.2626733962271466 4.846699436779078 7.985844377850575
Mg 7.179379627454663 0.9145868348563131 7.846223141109525
Mg 4.561745767757874 2.51472219986585 7.759215632547651
Mg 7.500078385918723 4.153173089157578 7.852002973679462
Mg 7.52392821529241 7.090384258717322 8.769884147821651
Mg 5.978266132849082 11.250975897524857 9.733243219255753
Mg 10.489120025188626 5.386388403749976 8.756297702357493
Mg 9.841469025021336 2.303541228389623 8.578100018535768
Mg 10.540555977182597 8.353233141213572 8.966667117338137
Mg 3.4486174972180406 9.693220334434857 10.711416353324513
Mg 3.7134578018007236 6.696228094019307 10.262892381528758
Mg 8.557921364364027 9.906708786414436 10.645932403681863
Mg 6.526373656196768 2.4191077698541057 10.298039410284439
Mg 3.8431416559246108 3.766057845236902 10.317490094884759
Mg 6.315019305925118 5.317111460939751 11.177685540301345
Mg 6.086841052957512 8.40302609190265 11.43231616455063
Mg 8.998403463901376 6.961912349277467 11.355271398566614
Mg 9.009095103206532 3.965933145719803 10.943773659420408
