49
Energy = -47.1723442 eV
Mg 6.936676881287947 3.4235397141947774 2.3225278972690386
Mg 5.263817395328492 5.963559258501025 2.4364589590386414
Mg 5.919223031054893 1.783993606103493 4.849480638481292
Mg 4.036059102337423 4.015143830831439 4.355501786159429
Mg 3.634015928591543 6.98242226795537 4.817159721518831
Mg 9.83504802436681 4.391637859539346 2.7776124266933326
Mg 1.9538549746318774 4.798256495348042 6.355643145749127
Mg 8.1014058427676 6.957127705468572 2.360735578916475
Mg 8.840463451027468 2.3496847616088856 4.870313088942134
Mg 7.0924799059589345 5.010890991335195 4.85370448133754
Mg 5.909749727989256 8.581097896695567 3.820338621595725
Mg 3.8366066420116143 2.4383622938815543 7.1609235904815165
Mg 6.894545994223311 2.744046727207859 7.501577742851851
Mg 4.9939969952194945 5.2932651847986465 7.092590382450636
Mg 3.532390441295909 9.89738288283611 5.51828817751309
Mg 2.2963572212546883 7.598961544145651 7.397394761960796
Mg 5.871624661351161 11.557674017043498 4.179767549071736
Mg 10.280290571340535 4.946170881570587 5.683846219655257
Mg 2.6679007794040905 5.020341480548397 9.211458240676999
Mg 11.052217904492862 7.049323961661013 3.5842439935846935
Mg 8.46615992871149 10.000056508340025 3.046111268435568
Mg 7.96496007351447 5.614219509340092 7.72634166580311
Mg 9.918345029669013 2.814381943288743 7.696131694793208
Mg 8.505798467570928 7.681377140349597 5.27630361369025
Mg 5.826680614457937 8.288169755181984 6.846861549609736
Mg 5.28573198204758 3.671481205905792 9.795281793911455
Mg 13.308171313253613 8.81885471176719 4.569765788060428
Mg 11.635219530930515 7.3633185985076794 6.588621374802143
Mg 10.640083179788506 10.067818271043784 5.143798118337066
Mg 5.406344159506935 6.937297650984305 9.616620436845984
Mg 2.2688835245918617 7.801621335194775 10.427992485461317
Mg 3.5615906687260077 9.935264101915969 8.621267429912297
Mg 5.3916600528737435 11.741310853713044 7.1606385587113515
Mg 3.8261746199878592 5.625050419357153 12.008216274168278
Mg 8.011752191288537 10.817936144948677 6.174544241902166
Mg 6.820929512607718 5.318568752945417 11.981586071315187
Mg 8.375040373531885 3.6526635937253182 10.067085121045016
Mg 9.050822978220909 8.449359674308791 7.9893590105075045
Mg 11.087144731873924 5.2879584210411466 8.687369975462566
Mg 9.012390969148289 6.684527227067352 10.402035815155795
Mg 6.60223447581856 9.685675057441669 9.353603016740777
Mg 12.884569716355223 9.957589970705392 7.2702585565538245
Mg 4.4337567577915475 9.495674637792122 11.53126377368302
Mg 7.071441022742514 8.315920461554214 12.082632393213263
Mg 10.415070867238144 11.310308043967929 8.073334243921542
Mg 11.682635910940371 8.182375040285399 9.567617869340559
Mg 5.103018515381711 12.190251361060488 10.147859096770231
Mg 7.868816280794217 12.357757803411353 9.03847267507379
Mg 9.312697311649025 9.833772166622548 10.68282199048728
