45
Energy = -41.19439365 eV
Mg 7.1545488033258176 10.432136981823323 5.2801237381963055
Mg 10.03535633452172 11.418489060072913 5.458107136304207
Mg 9.326211807602458 8.556435098861217 4.332811407699938
Mg 5.089818236388689 12.384293081652674 6.793748783995421
Mg 7.981189410546415 12.22342131811205 7.665981272973962
Mg 4.361877301090581 10.751792499961633 4.252809913455746
Mg 6.627705956482859 8.271425579767671 3.194679542350398
Mg 3.8468358816000157 8.69038466140608 2.2059944352106946
Mg 11.805237195493975 9.019608452666612 5.9719216716571175
Mg 10.89984144314856 6.137412285396155 5.469944512095871
Mg 4.772737443850809 11.522789128658054 9.817452387023707
Mg 7.482737165743749 7.369358565107122 6.4440807241556435
Mg 8.286475033717274 5.560246349265973 4.1694023001855705
Mg 9.234723394780357 9.485354046289622 7.678580801306612
Mg 6.012630942179613 9.510692578099652 7.9730825689191
Mg 3.0359787356154677 10.203656167417547 6.995946832260941
Mg 4.671825198446106 5.8955803556694155 2.9479740157628633
Mg 4.659808122258732 7.939748681124471 5.489821441670653
Mg 1.8697391062583972 8.635480179926246 4.670064345934628
Mg 7.839872134493919 10.616347128918543 10.22642877720102
Mg 1.6726308984651208 6.634562099262842 2.403470564760161
Mg 13.580656860807172 6.668417975798103 6.655145814703271
Mg 6.382693996603714 3.5152344561689763 3.157297965545951
Mg 13.240564927276802 3.990815415078378 5.451953577884727
Mg 11.175086263074336 7.3252390478755025 8.373403761981097
Mg 10.173932941665539 8.781064173372304 10.802356078329021
Mg 2.493432508969944 5.484608165267953 5.045069145119917
Mg 10.383832000767526 3.2258599238404004 5.646427610860106
Mg 2.1990063236860626 7.269833781046966 7.451349548433415
Mg 5.585084822640972 5.002282765164877 5.735292322281528
Mg 5.19948414418118 6.574477850749066 8.312084877823676
Mg 7.920738875390558 7.199495337686525 9.542547385626932
Mg 8.847353494294632 4.984988755789405 7.718139284444268
Mg 3.209480290149287 8.937793311031971 9.699263686069948
Mg 7.502492285640848 2.626411498546511 5.681083067428192
Mg 5.80097885286307 8.686278137880345 11.148222971138305
Mg 11.824939347180417 4.395249383677674 8.183827133585705
Mg 10.322768183780223 5.702132762394293 10.650268617845978
Mg 8.74099376817918 1.9700536824182144 8.27889849390119
Mg 7.8713947287675765 3.946987933117077 10.562453995257723
Mg 2.922968059853307 5.958372804604385 10.163404428287345
Mg 3.226830528046801 4.244601731575324 7.657503918125815
Mg 5.684401699740666 5.736515447837092 11.248270874481712
Mg 6.004476775578959 3.3358547378093486 8.29857782539818
Mg 10.61964783675345 2.72222135844217 10.448208930395719
