46
Energy = -44.36511582 eV
Mg 10.166123173314864 3.9184546575197197 3.1424655040709712
Mg 8.45529773600125 6.134487914117582 1.9017632312724049
Mg 10.169708883537306 6.738619243334092 4.339101669995835
Mg 10.249862584154867 4.166721527596938 6.084711094411606
Mg 7.8878277749263805 2.7106760446169638 1.924879333925623
Mg 8.466942282429297 1.892926216816914 4.840659968074916
Mg 8.970090799307538 2.0725561818379314 7.908675241882754
Mg 10.660159726990972 4.539711130184268 9.064593144233564
Mg 10.449002501429062 6.992215521302218 7.35685803805188
Mg 9.367942539891676 2.6622829485804043 10.847462799400814
Mg 10.116955376571472 9.62899797970353 6.048579809294695
Mg 7.422734138624943 4.820240695611737 4.599758366150291
Mg 8.47216543917554 9.019947626366399 3.1042942841910057
Mg 5.794921901705875 4.70665090036376 1.6248400454083236
Mg 5.446202123818745 2.5006349059734094 3.7544209544197424
Mg 7.783111433850279 5.178542384454202 7.744437448335099
Mg 9.20513428517153 9.057597042810544 11.91209127554708
Mg 6.14900847893009 2.582457445562636 6.750809260827819
Mg 10.145220841266761 10.244837560424235 9.262718179586884
Mg 7.6270828079955315 7.665292800102285 5.862103842505369
Mg 9.717560167881814 12.506444781683586 7.3642914764303455
Mg 6.6685460947514 3.232883969074547 9.850155070183849
Mg 10.888633233450207 7.352056771470549 10.313554913291732
Mg 8.339121262371412 5.668206659132957 11.032547243134552
Mg 7.957390644822003 8.02028782760671 9.015671337656293
Mg 8.465658845308743 11.662576065516104 4.685360366976448
Mg 3.203655763986731 3.060206208076806 5.748486012275696
Mg 5.859697543950221 7.283352121238246 3.308177840403154
Mg 5.02353101815622 5.697690561492519 6.346780949103838
Mg 6.457290237507447 8.07438290426659 11.954686569877214
Mg 7.451148633718742 10.554279187759057 7.387624681717962
Mg 5.495397867595813 6.1693356820946175 9.742419628789696
Mg 3.6696342837247786 5.154510400259619 3.60402111796251
Mg 4.024371463424559 3.755121471384225 8.644614130084927
Mg 5.906054897465194 10.16238464186405 4.478255386981793
Mg 5.236624422109299 8.547620091863433 7.474164282669965
Mg 1.2257389825323417 4.007704636897546 7.790520611859857
Mg 7.042085141202865 10.707353610715622 10.381612997908114
Mg 4.255045780696852 9.135747210936735 10.256740948209945
Mg 6.1186203204712495 12.936065497407236 6.149197897353675
Mg 1.7594051632536687 6.01517989430879 5.7302870879517736
Mg 3.466273282053303 8.339468447312727 4.986775755461112
Mg 2.832808673111413 6.707978999612927 8.401560940891628
Mg 4.698231640881749 11.631741543204711 8.51391950854186
Mg 3.522562897674227 11.545773954963604 5.698495517183952
Mg 2.435699160840287 9.662362514509303 7.698887854346064
