49
Energy = -47.87646669 eV
Mg 3.3252512003892494 7.174227585745556 0.9931864100983401
Mg 4.231405311896894 4.824439803137468 2.6431425434567775
Mg 6.166839196972644 7.228254646525614 2.023071570199302
Mg 9.140952023321171 7.069998995215495 2.7816241204267484
Mg 4.505318924910196 9.847239139996518 2.1735962615102413
Mg 1.4789627500638283 9.013848557437411 2.322145269787568
Mg 7.255685850456946 4.692136961868753 3.265667069695807
Mg 7.662728750557478 9.868369869438757 2.744889094868077
Mg 10.174699135027332 3.995965687872634 3.863373818139538
Mg 1.4468818526332474 6.075183281401633 3.1012936876573183
Mg 8.010405773401695 1.6940185841521114 3.692853828319448
Mg 5.223858840506968 2.6192430215578972 4.491986828739849
Mg 11.621310551658137 6.546984770264938 4.538954021667108
Mg 2.6160248619471846 10.288279389229146 4.693378097941465
Mg 5.614427181600441 11.224828561536814 4.661848623954089
Mg 3.9187944670146684 7.551724459223567 4.182622025279974
Mg 9.896884260332788 9.157640423359036 4.812234616463146
Mg 2.6301278433520796 4.449699521331544 5.313643531520626
Mg 5.575406012425792 5.5080705353797255 5.718192056695423
Mg 8.768220344621636 6.438069892137126 5.866047333303701
Mg 6.7035639489756225 8.439860045112406 5.265837354571549
Mg 1.47859888556182 7.259722265266703 6.111151263981486
Mg 10.085053419270478 1.4959258058886133 5.799300202533007
Mg 8.020370586647351 3.7289754761520126 6.067998570830492
Mg 11.255125728505538 7.5321731750049805 7.361073186945348
Mg 4.211978246530096 8.553029085222121 7.054128875721777
Mg 11.100300075260263 4.292861046499519 6.888651385534506
Mg 3.7103148006305573 11.92477235430395 6.935233487957943
Mg 1.363092436246593 10.120127240380377 7.441481192970104
Mg 6.3538912699767405 3.742672516758418 8.432444027749854
Mg 6.365029721033476 10.884303987455862 7.596141893138509
Mg 9.046454459297145 2.164099779718238 8.50098142379418
Mg 6.5321356356859 6.9089242490440395 8.192991523401671
Mg 3.5859115358798253 5.525238177573434 8.118163609048928
Mg 1.8677612980551048 7.880049900471441 9.175381741777539
Mg 8.707995490944565 9.053446124023326 7.629305900589477
Mg 3.96966483733997 2.45642615210516 7.189212080370451
Mg 9.052550827526536 5.402143809741335 8.772518061388126
Mg 12.125647891418465 5.836937724941343 9.651889897551483
Mg 3.883466629945158 10.357048921080029 9.543506384381432
Mg 6.782061210503582 1.0839881311925645 6.5936593613973775
Mg 11.051636875491301 3.211451667068994 10.407519924714874
Mg 5.066994792595153 4.684400918370329 10.86137087524052
Mg 6.937093936657489 9.383467992572879 10.094983211763491
Mg 4.493480853751921 7.5851468729029525 10.474724630735013
Mg 8.003093445284186 3.5795891939414015 11.079445882511777
Mg 9.917430507707774 8.038578044694328 10.198791289347165
Mg 7.422049288364247 6.592575685045435 11.271251708176683
Mg 10.198530886363345 5.569304625197359 11.962574896692503
