46
Energy = -45.08939807 eV
Mg 6.234712508058267 3.046103765996023 11.295079232333503
Mg 9.398215632333612 3.381042175227269 10.901575731351084
Mg 7.283561798174141 5.238179812951019 12.922343688048567
Mg 7.52632605855001 2.215904311276866 8.728775478562758
Mg 4.57141261198181 3.670148808423301 8.929254305886012
Mg 4.737602488361975 5.7605172685395996 11.225710359989812
Mg 9.765324360866446 6.27304606275884 11.832278279158627
Mg 7.746701014504531 5.39330633763815 9.440201336147641
Mg 10.71915399783244 2.336545700327463 8.063676256881994
Mg 11.23924982670595 5.317008127517241 9.314863076366683
Mg 7.045830687421436 7.839319060224477 11.296096745741856
Mg 8.339651643958174 1.711630907799186 5.949316945303143
Mg 6.348869776851457 4.05334473300582 6.5492644123735095
Mg 3.3870644795083535 4.942432894861414 6.3083072216696054
Mg 2.525925823404354 6.413772936943506 8.867731005317227
Mg 5.46967542792072 6.521089993243568 8.140394124112516
Mg 9.272070666101046 4.633010327986016 6.927708915018514
Mg 4.185045032768783 8.624063440374716 10.268587805170865
Mg 9.55823620964381 7.984650484809676 9.424422387244094
Mg 12.448137542792898 4.549811100275974 6.6614521758782335
Mg 10.82478642634009 2.828918102249096 4.88978169263954
Mg 4.810647977118402 3.4593870337365438 3.974560730287806
Mg 1.5712228428088202 7.299166288292343 6.075173158789572
Mg 1.7621122756946102 9.370010794028628 8.428743957873289
Mg 6.768734729609975 9.293822918807495 8.594605900817879
Mg 7.974926781244744 4.09974690870933 3.9527765452635055
Mg 10.583637863287281 5.855403003534096 4.431983152443787
Mg 4.235231628587965 8.702461477220425 6.852762490192053
Mg 3.090189163188916 5.972375447075176 3.391938509419597
Mg 8.051647919348852 7.2310489365973405 6.557592379826841
Mg 11.239760940850276 7.406009560103956 7.006095061915382
Mg 5.812819618146199 5.209252363556157 1.919434888181807
Mg 5.567963817919824 6.60862525258258 4.9367301804497625
Mg 4.304699812169871 11.227991095685244 8.732812662912536
Mg 6.638304413537388 9.504264229888573 5.200655839007052
Mg 9.40653644631648 10.058096252358345 7.271360016198786
Mg 3.100352032069212 8.934549195609101 4.088843545798959
Mg 4.1761200685304445 11.479410119192522 5.709292078473809
Mg 6.890110052311697 11.939241687555933 7.1216997759307885
Mg 8.008071277759557 7.083175838623689 3.17707022341205
Mg 9.942873296799597 8.888094137378397 4.541387416677023
Mg 5.324785152822646 8.102577526804533 2.1599749926028853
Mg 4.827730024152139 10.96949301613066 2.765605923188606
Mg 6.508407864517313 12.855759022516903 4.245756305978616
Mg 7.789087166263236 10.178619789625102 2.540416181523492
Mg 9.110001848719005 11.774675875701254 4.878395331082465
