43
Energy = -41.43673021 eV
Mg 8.776807556663375 4.162242950187906 4.5033377728701245
Mg 10.261662864219801 4.543329022528542 7.213579531683421
Mg 10.690979863452538 6.498880797365886 4.853129251045537
Mg 13.075155037316302 5.704969687821463 6.5506589578424474
Mg 7.949432146282919 7.054074011409811 3.6510361710510675
Mg 6.786161165092087 5.677654016627135 6.371675724749971
Mg 8.205025816235938 2.391341894790299 6.888674567538206
Mg 7.576398829975231 4.973011935843558 9.024991116785863
Mg 12.185536117021472 8.53731821291207 6.672325948403427
Mg 10.20412403303233 4.145020844824194 10.262551336927066
Mg 9.689219731384053 9.405634283648876 5.074958166789808
Mg 5.973211708807554 3.0613689043589978 4.829652617980752
Mg 9.250265334497158 7.413290799729256 7.458787389849905
Mg 4.925047939509184 6.307209858352265 4.10996491002024
Mg 11.05983171333606 11.462163833027583 6.878508032487743
Mg 6.81470705377859 8.68058178908996 5.906591130352623
Mg 7.331793362774586 10.412782216702924 3.201789268595579
Mg 11.826333968185056 6.505197139957903 9.11478330938823
Mg 5.463993370718762 2.6578171925177956 7.96905934769572
Mg 3.732007460920318 4.408931836125711 6.194271524715405
Mg 7.973454797081856 2.1076411713642105 9.968204186555086
Mg 9.148960992054297 12.322952282348067 4.6456432854346135
Mg 5.612881396057624 8.310494058841051 2.074846790396371
Mg 7.6032735322023735 4.782134614789282 12.0024679688628
Mg 10.925102161642696 9.39665020537926 9.24137396100537
Mg 4.447717855095628 5.328190832772914 8.983130068153317
Mg 5.349077853046673 3.1046203647643167 10.967748404539952
Mg 8.119499411362963 10.425697803365994 8.03419770017997
Mg 8.634098865859649 13.428273401876343 7.453338485108457
Mg 9.250760965403844 7.168620128910097 10.676657585471363
Mg 6.624233908687492 7.860722983072424 8.883031989261534
Mg 4.322076971322212 9.518850396500186 4.526390576167046
Mg 4.013653865509185 7.411104735242334 6.865268296475758
Mg 4.737265008296432 5.8877709192820955 11.910000103592116
Mg 6.299074105560095 11.891536755471408 5.609472610955521
Mg 10.494660844651841 12.352520793732781 9.662428245771027
Mg 4.735282293896116 10.160828326701395 7.707460613952778
Mg 8.702706430190252 10.172321704675085 11.173409346061225
Mg 3.9447113565483884 8.213336425559294 10.111514968011134
Mg 6.629744230967502 8.128008325163183 12.080364542685873
Mg 5.80312293660926 12.864341068710994 8.361810954494722
Mg 5.755312799752697 10.664429580570095 10.535066413652347
Mg 7.790948544520528 12.995406090992185 10.483435075936578
