46
Energy = -45.6356368 eV
Mg 10.270015556085829 5.390039969983789 4.39549200613573
Mg 7.832616325776268 3.37723567870768 3.682872484339359
Mg 10.041870675081622 2.783690762781522 5.7828092660432535
Mg 7.442260189113591 1.383902846178594 5.92067459913563
Mg 11.751338340366209 8.19592849604316 4.607883732145891
Mg 9.673556643582119 7.805384118889341 2.4949864768592374
Mg 5.065737989849451 4.466334639789811 2.9352492279122613
Mg 5.029287289408463 3.201722966335814 5.630046714542881
Mg 8.506297682636763 2.5958749065159514 8.502006222658872
Mg 4.492261254719219 7.411146473250513 3.114666350592888
Mg 10.33895570021434 5.080385119145221 7.894859156443994
Mg 7.34265563782604 6.406891032813395 3.7620777427649217
Mg 2.6468006179165955 4.994786205701079 4.804765724189482
Mg 5.49542810271418 1.7232892253473275 8.261019039204745
Mg 11.93290330074717 7.700142266115291 7.611307593163395
Mg 5.108320726471713 6.407576164593088 5.967167293352434
Mg 9.355870452484114 10.220250070865726 4.3344109680827385
Mg 6.941097731262181 9.254476861014416 2.4790595496892007
Mg 7.612834285443835 4.822811008010494 6.5074400001672
Mg 9.183286074254791 7.479672368055561 6.2527110181585766
Mg 2.344351838703734 8.05067232022033 5.10042666612277
Mg 6.677314015642042 2.5878934007669088 10.914536095541166
Mg 2.7388563001093464 3.419431111721814 7.728262430660771
Mg 5.3273137335993015 4.799062362655582 8.616103166370257
Mg 9.698455256886902 7.589445862494355 9.753780325368156
Mg 6.692380287729328 8.909425607697868 5.573950044045385
Mg 6.816262766413419 11.86202415100148 4.056884912151407
Mg 4.311931780243856 10.180400081168091 4.319291835383975
Mg 3.758833699517846 2.5882180020782433 10.637933231445599
Mg 8.073232082254592 5.127213654620544 10.161807943754788
Mg 4.127476208277528 9.069646045935237 7.375008970284016
Mg 11.301551181123193 10.563456603911325 6.68088050517325
Mg 6.866351512432617 7.384403956060085 8.316613630175338
Mg 2.4774897244898377 6.470599345591085 7.662557690144651
Mg 2.4817757717913094 5.145949251091948 10.328189366882935
Mg 5.784629763753634 11.610122373435386 6.938119978244811
Mg 5.29500775891227 5.198185880070373 11.72469583521012
Mg 8.70702485111878 12.531012993450956 6.387378980355972
Mg 8.529314771753997 9.909631732130963 7.911312697456348
Mg 11.544821553801954 9.911436964140414 9.650056698002059
Mg 7.069016279460178 7.790123010945443 11.470870902381908
Mg 4.2508086461980295 7.541784878732254 10.053147936421864
Mg 10.304267569682759 12.455210894111119 9.040147389340666
Mg 5.883724467898199 10.123256143672645 9.733718377519981
Mg 7.414977759189765 12.669596906763617 9.267237808190373
Mg 8.760441367657776 10.386241370077348 10.945439568335038
