43
Energy = -41.37439298 eV
Mg 1.9559302549042843 4.647500493186941 4.238823349498663
Mg 3.154918869223737 7.401322941140281 8.192754295718919
Mg 4.515596613748572 3.084826200997092 4.648835511205993
Mg 2.6757337452354317 4.341770792873166 7.104270210339128
Mg 3.744514712567425 10.25981746391942 9.40134299919333
Mg 3.666292097750476 4.005396718284311 1.9075194132029731
Mg 1.989633261070027 7.328542707158384 5.382529184675306
Mg 5.285574175396138 7.907852070886264 10.469163415095897
Mg 5.534000305908153 2.925473657077815 7.435070364693569
Mg 4.847569686659197 5.895020329309755 5.761794352042996
Mg 2.58438275864761 10.014842102341966 6.715056910572993
Mg 4.598565073665128 5.052587380740724 9.47527767266406
Mg 7.4807342204558855 3.836418402969852 5.295745185007399
Mg 6.501643997442375 10.691099827082619 10.287204858629806
Mg 8.224257562494502 8.642561918697893 12.317913396068137
Mg 6.29736028769869 5.1393541475568645 2.8824092538601778
Mg 3.782428340276659 6.846359520638294 2.9001432806003824
Mg 6.595890993712391 2.895269234091923 10.193103251245203
Mg 6.06218417953653 8.563735265297597 7.4887174529745355
Mg 5.307302424455607 11.441578019225885 7.0849806271451286
Mg 7.232698709064272 5.7223574431663495 7.965622644438843
Mg 7.212425913188707 5.725992029661523 11.160315267824952
Mg 4.63678595892779 9.019999011106638 4.796779626137749
Mg 6.687790206700742 8.169802822423698 2.601077890404565
Mg 8.29355436084178 8.199854451119817 9.418949833561884
Mg 8.709039097174578 3.028514952333951 8.11165811858568
Mg 9.29931557476472 3.4783441228350465 11.167877920987285
Mg 9.461485334735135 10.922012697225957 10.66445695257846
Mg 7.477062694844437 7.02847046644619 5.213007618695443
Mg 8.254280964351072 11.072638815202739 7.854869943302668
Mg 10.10612865037766 5.689893129338007 9.293499248766787
Mg 11.177982734231362 8.339655363255497 10.576580268877665
Mg 7.391667382832851 10.215056780069762 5.022495911960882
Mg 9.347356412518124 5.7084127321844145 3.264940123677463
Mg 9.530937692551516 8.31697219013811 6.7430912839989166
Mg 9.644365199012283 8.794048492569289 3.521730313495549
Mg 10.009222243122647 5.243647569748384 6.318518797443082
Mg 10.048988737163633 6.190364706535372 12.369974593961365
Mg 11.313192736581376 10.413534107221066 8.349479099579257
Mg 12.220697742740672 7.323528034313668 7.8086292090209755
Mg 11.734496712613158 6.9937158480262935 4.651892763277353
Mg 10.268578700456484 11.055773498261354 5.5251863076815555
Mg 12.767887821121231 9.516526339141722 5.864992953580752
