47
Energy = -45.95047317 eV
Mg 12.159833526936081 8.946909733900386 4.429187492999998
Mg 11.099382015544903 6.358837262297871 3.363277359859924
Mg 11.029732455054399 9.689955008652273 7.2780507082957175
Mg 9.677164897741747 8.885515359887476 2.361886194022433
Mg 11.664043263244832 6.771638467777505 6.628199831167638
Mg 11.839156433758015 4.1525875479250685 5.20496438155167
Mg 8.449067945860186 11.212144365758453 6.620658085516356
Mg 10.292085322015545 11.133561932156196 4.289819854098579
Mg 8.739863031674949 6.068368071068963 1.557733189513075
Mg 11.305245145999553 7.702507784241357 9.618663091316636
Mg 9.748832606212417 3.463876015627043 2.881756208400101
Mg 10.520142832608625 5.0341046158201985 10.762121319106658
Mg 8.481333412107677 9.579076783873715 9.112949124575753
Mg 10.39274847117987 4.034847111801864 7.9268677953620665
Mg 8.785885427890102 6.759208684113791 7.9707317308694146
Mg 9.213991301083748 8.253416859590521 5.342052168717933
Mg 9.948500436097834 1.9824244042894397 5.519455222841807
Mg 8.881160949755223 5.223663613775844 5.255240263129092
Mg 6.600338130860764 8.74797969730172 6.730856306143112
Mg 6.891489554778491 7.44514351560995 3.6079641993898686
Mg 8.66228638922763 7.411979093060823 11.203846759667698
Mg 7.302896417011544 10.439103218947617 3.913923349256847
Mg 6.632369911343239 4.505003773737145 3.172283047661688
Mg 5.428051077229679 11.566245660968285 6.169263379115934
Mg 6.424754539530238 9.617433803505298 11.403009700144214
Mg 7.355982532393346 1.8507999314010157 4.153778400901531
Mg 6.166629716501754 5.802942400644507 6.393864786926746
Mg 6.035860153826516 7.102424328247202 9.38204163803488
Mg 6.073004962604572 7.209006793927607 13.07423005921555
Mg 7.420600461262973 3.020736734842058 6.954294665593344
Mg 4.4281896497675985 9.130216371135498 4.398767203120088
Mg 7.710735853699167 4.440482508821 9.571661318004127
Mg 7.724200579898944 4.875281673645851 12.50669933878415
Mg 4.107875395626228 6.007553966586541 4.0423727084902294
Mg 4.768244953704477 10.137915602008654 8.927215688753073
Mg 4.846408254348628 3.165990692599108 5.247314052764755
Mg 3.8131526112181744 7.598561144734873 7.22311712605793
Mg 4.787156365181414 3.952594542916548 8.488234132334215
Mg 3.7922780350719174 8.119190963798626 11.289730893891651
Mg 2.7235047807039225 10.437113170444006 6.577847067670753
Mg 4.859128438438262 4.987636903012892 11.43030758062875
Mg 1.717105889855939 7.65038783411299 4.931736862817199
Mg 2.664965366812718 4.858580234856075 6.491552707897655
Mg 1.8404984784190113 8.950431712430351 9.154842762918816
Mg 2.662641660549526 5.839158416244067 9.554490800539652
Mg 12.159833526936081 9.378525626838805 6.587107425125288
Mg 0.5241623399356674 6.656405592783137 7.585131733241519
