43
Energy = -42.08358778 eV
Mg 4.057404622244388 9.030571245180122 9.619670045420262
Mg 3.533989766239162 9.283498336320408 6.624775772395533
Mg 3.5837726957523226 6.553014463193856 7.827538020188841
Mg 4.312015971297269 11.811847386985031 8.173263823070819
Mg 3.1816972065338858 7.15652179223626 4.4296417805069375
Mg 3.5143592892934556 3.39688725751535 8.97632105633812
Mg 3.6574129071645 4.281127806409199 5.918598830619341
Mg 4.382130492164656 6.108474650333336 10.684774400257986
Mg 5.989740179694628 8.36776441672253 11.881724072729833
Mg 6.587599935387747 10.627693131755228 10.042099383992937
Mg 5.5243375776164285 12.427415823830476 5.479533139881533
Mg 6.677496728281359 7.440728481191746 8.665326121646972
Mg 4.850916410721418 9.847259488684784 4.033317800426176
Mg 7.026199492866601 12.953115566997086 8.098080726299814
Mg 5.530214819428687 7.512402642357426 2.373828118542876
Mg 6.546388549875355 9.825780488071606 6.868982833155388
Mg 4.715496441356787 4.827095449847811 3.1352356866142097
Mg 5.817639996761676 6.842294111783652 5.780241127443009
Mg 4.82009494602903 1.6500614124493624 6.730526649058461
Mg 5.863888052475814 1.3427456473797756 9.391643252808654
Mg 5.466704846644183 3.424680674289567 11.363493624480276
Mg 6.183379364644361 4.487573317919458 8.234169492443753
Mg 9.315255235127603 11.027121254061797 8.799279501402363
Mg 7.409654980039674 11.29878640427963 3.3163203509686605
Mg 6.560583970642877 3.47723772949846 5.146915576938551
Mg 8.823523383608585 8.537724501494536 10.535202563623896
Mg 7.394448002527021 5.792645556848976 11.312343962605036
Mg 7.789031615496909 8.454368719911825 4.23594103772495
Mg 9.21175146972927 8.505187723403651 6.930058049377766
Mg 8.388711572120421 5.693736097166035 6.620888782711725
Mg 7.94956865707803 1.87631414972802 7.208594799709198
Mg 8.749183787345984 11.854029948066158 5.912380924172182
Mg 11.522845060670509 10.937206466807865 6.799382873939759
Mg 7.726499031584234 5.591602875618753 3.3925037266242706
Mg 9.717884814519758 3.5470493778239005 5.139427678659351
Mg 8.283768195190216 3.105740235765099 10.081732251239188
Mg 11.482146490390624 8.362006223736788 8.789986000179779
Mg 9.700755480448738 5.862776075999023 9.369202538284016
Mg 10.377519083186757 10.003108821021632 4.127729971549159
Mg 10.344028268247325 6.735436295877581 4.35794498995466
Mg 10.507559033610354 3.167260960228423 8.0479535747655
Mg 12.434848781512928 8.351961688272821 5.784267204006447
Mg 11.581306926820936 5.783085923392532 6.960970003056166
