44
Energy = -42.17357802 eV
Mg 9.523505200790666 6.441621258174252 8.978272886358797
Mg 10.05376969778899 4.380541807385713 11.17046122522628
Mg 9.569684947839518 9.373533156338189 9.584530869687972
Mg 8.80109403396378 7.178684336009944 11.873309498853834
Mg 8.08769174000183 11.917011279976066 9.562443729303805
Mg 7.63640220627386 4.525050925391188 12.748561136054409
Mg 7.094657016183812 9.5823526387647 11.4171984097039
Mg 5.813295074110994 6.975863621553105 12.639309911823329
Mg 11.334025386788142 5.626990533013871 6.476556101872109
Mg 10.209893857258756 8.43052873661497 6.697645662340789
Mg 9.439757340940256 11.288593266706972 6.876486335666443
Mg 6.638831479426195 12.347622029062082 7.084220377730244
Mg 10.348910628870017 3.449356159190323 8.365042949889697
Mg 11.876284539159611 7.773058780203972 4.310993227531468
Mg 9.997035272682607 10.138798450464433 3.9472801058951004
Mg 8.140424354423823 5.336202838813304 6.652021038569838
Mg 7.369594090722455 3.772972437586789 9.330874810922309
Mg 7.280252317876311 8.931286543119821 7.527853445353882
Mg 5.116152310235854 4.20688787182323 11.397038883174892
Mg 6.406346243652456 6.745176211361718 9.59428141729258
Mg 4.103486535509256 9.107102801997861 11.48700789209917
Mg 5.265200744355505 10.895270353592029 9.320604142175979
Mg 10.543545665307922 2.924084509858284 5.4055294202589685
Mg 8.170306150357867 2.031997784630898 6.912704867588016
Mg 7.186745445261015 10.625713494717678 4.732358053779647
Mg 10.16499022211713 7.910618026276616 1.9234678680172927
Mg 3.1884279427918454 6.355381580061306 10.80244418439127
Mg 3.7018859547720493 8.360624207466442 8.590308236525509
Mg 4.596471094260689 10.169985448212454 6.353728849401583
Mg 8.001369258839986 7.513131700018938 4.60353236643067
Mg 10.329142792972208 5.308718809710585 3.557231300888962
Mg 4.268345953788759 4.517679174881341 8.556793331947427
Mg 5.4271656885041955 6.753400148185131 6.533610384097854
Mg 7.956194830721812 3.4978891953091584 3.9994564064671643
Mg 5.676119029754012 3.452354456178983 6.190976625061805
Mg 7.479129541044917 9.144300689927329 2.010342538578447
Mg 5.094819222740406 8.508202589901087 3.893153289545829
Mg 7.856910966787933 5.939623461705454 1.8940575438241372
Mg 1.7468162705196568 6.0762295372633135 8.068659406312896
Mg 2.589131818712365 7.931659456383843 5.719190281946514
Mg 5.576807562986506 5.324295384218956 3.750911584355835
Mg 3.0373265244584315 4.850283816030404 5.610984089081506
Mg 5.210566781135702 7.158912470850259 1.2003490480122763
Mg 2.8792099231482826 6.515441807760279 3.0529812707082855
