49
Energy = -48.20977709 eV
Mg 5.910675104183476 3.8984280317863775 1.7682579134115122
Mg 3.6376780282845553 6.010561584575646 1.623150499868558
Mg 8.911370735344025 3.316263481382695 2.8195419674679525
Mg 6.68585345367509 6.853009435835094 1.9684968860418428
Mg 9.573453034088521 6.441020232503448 3.5430828311947042
Mg 6.4496909017093245 1.9408203922051028 4.22396177692678
Mg 4.663584339127674 8.849293418451072 3.1315748779634927
Mg 3.602285754424736 3.118589523472771 3.569380784926312
Mg 1.7468032140417629 8.00652938577228 3.2565617672686997
Mg 7.91138867642829 9.602715708398454 2.937528302014297
Mg 10.77108638269861 3.837066651658839 5.207727822020686
Mg 10.024319517266427 8.956326500932102 5.3646439014397505
Mg 1.2645248503909101 5.136780593747645 3.5566702406048796
Mg 9.354938370074544 1.1612772158408151 4.981948511914211
Mg 4.22199458345019 6.134944446566054 4.446940118669329
Mg 7.020000218079515 4.983419947132567 4.346261060736398
Mg 8.699933985545131 11.557877683944993 5.18849348307964
Mg 11.920841700045692 6.589507969754058 5.866824766982039
Mg 2.0465374705543717 3.8045969645549573 6.165099651158737
Mg 4.154978725307287 1.1836480382837855 6.423218454490512
Mg 5.7845179999118495 10.673514021957981 5.267314158342843
Mg 9.075050871891555 6.318464466441015 6.56858123481777
Mg 7.006301823936213 7.8011738884880275 4.96084791713295
Mg 2.6289362032263104 9.87498937049762 5.478066291615101
Mg 4.609565391737983 8.025086972771373 6.615804254950944
Mg 7.088723078452656 12.341754477930664 7.52240585878073
Mg 8.02562102027836 3.476649168672471 6.585911132522075
Mg 4.985062480203242 3.8912199207033886 6.155005071605603
Mg 1.67988919618888 6.883372536244738 6.164863841857777
Mg 10.366578148109683 1.8419048679103935 7.686271937224118
Mg 7.718706942151832 9.055601379954863 7.563168958053166
Mg 4.541266603517308 10.768848123209024 8.087597039034351
Mg 6.463117500141344 5.84076765819515 7.618984771574311
Mg 10.984061969670478 4.742944432491646 8.306539034709502
Mg 9.86713734449854 11.118939269607381 8.032668239028553
Mg 10.941230466015796 8.143560513066166 8.273387297445472
Mg 7.16984779696813 0.7952016735296282 7.238446290045048
Mg 2.551439716919346 8.532910307354449 8.756154188705496
Mg 5.481837756528434 2.85685081846362 8.86471723950267
Mg 5.639397077882187 8.024279478434138 9.323147219418049
Mg 3.5174604887530134 5.522379624368264 8.446203478192118
Mg 8.393178116535388 3.5187355859238014 9.537092142154876
Mg 6.911236374570752 10.893059239913638 10.128143632176075
Mg 8.625303935394717 6.613735153027617 9.706323192332835
Mg 9.419487529062145 9.409916785995435 10.54633284260259
Mg 4.1527865445939005 9.95129091733327 11.123903431672908
Mg 6.0571090685158815 5.24179121736785 10.686032755021934
Mg 3.6437253170571986 6.955682322544197 11.243556141625977
Mg 6.87837525670734 8.281589664944539 11.902055853815286
