40
Energy = -37.58904409 eV
Mg 3.4437843844975107 6.019610112198537 1.288983708175018
Mg 1.9815850530136918 3.5365417807109574 1.8143504330980342
Mg 9.241476256226186 6.833422115652731 2.560060146367887
Mg 6.413927922887155 6.472279250640501 1.7852350569312088
Mg 7.494153359404953 9.319240088244463 3.098993438163373
Mg 4.473190956948548 8.23210220096447 3.1234057503426116
Mg 10.051651200185779 8.243561185006465 5.047422692180796
Mg 5.009908734926978 3.4880418408095655 2.1041212177022404
Mg 7.634736542266948 4.478609425524533 3.924149262103604
Mg 1.8460623439147685 5.6433450168167685 3.93424997396841
Mg 10.437534235597628 5.131272718218509 4.820272192434604
Mg 5.318852296602921 10.03374056174127 5.307853509527882
Mg 6.957561477221079 7.230814031240715 5.095910776755723
Mg 8.180040536002725 10.144465479053064 6.313813952849623
Mg 4.7390295076013365 5.33203709893776 4.355436179600985
Mg 3.781614488715811 7.547435531860445 6.142366950749309
Mg 5.717957549947426 2.5880995373525764 5.462109052087458
Mg 8.492940015001208 3.210155712809459 6.595030316139591
Mg 2.8046470296204693 2.6401024695706057 4.485314229557549
Mg 12.104748305908691 6.709273334545431 6.75602788975507
Mg 11.29700809537769 3.923253048436085 7.568191579872497
Mg 5.894342848781037 5.12386099596915 7.186604868915142
Mg 5.905336292042195 11.659423497637357 7.658253807013173
Mg 6.4053923635014876 8.059986476384063 7.909831671919437
Mg 2.8119747835162148 4.6939671374710255 6.820303298435906
Mg 3.613872201760448 1.7599762855978667 7.330748016522037
Mg 8.809372051185 6.188910264616379 7.241760117288818
Mg 6.357534225587893 2.4608111146448235 8.698578845100716
Mg 3.8397596335781405 9.603246199855016 8.439753592976999
Mg 10.264275457028017 8.724027159024033 8.137854669000312
Mg 11.257096777180998 6.1210816668821595 9.55260135489085
Mg 8.922047631094454 3.999662206564399 9.553879593029137
Mg 3.7292853745841144 6.62662623879483 9.077163886635335
Mg 7.97569608801805 10.02864987611197 9.660240613346874
Mg 6.215408433842633 5.174787236930642 10.277804439656784
Mg 3.7084284060178616 3.650536657984928 9.56864068109403
Mg 5.2819927499407395 11.145539019915779 10.621398080374664
Mg 5.646877988977063 8.210040860049928 10.863422004425653
Mg 8.519679848773217 7.089430906485448 10.25220868234612
Mg 7.583010128680586 13.08582723470515 9.729447044624383
