45
Energy = -43.03071535 eV
Mg 2.6013528112680775 4.840915125646937 9.0004737597762
Mg 3.1617206185998117 2.397139250687071 7.271104214056961
Mg 4.562191879205374 6.174891358215625 10.810555790948705
Mg 2.72001319640114 7.918196408689604 8.611287686943996
Mg 2.8209353683621394 5.395631396847858 6.1456418572921505
Mg 5.313796752092903 3.483078484723357 9.172640972605349
Mg 5.963629633442898 1.104312876409878 7.376160938507155
Mg 6.8004334806816855 7.334143798272358 12.341671526810378
Mg 3.465389143759344 3.1228065714719944 4.297222205035364
Mg 4.728674429487406 9.303715441379838 10.441378384467757
Mg 5.245276410332803 9.83524671536798 7.570840226135612
Mg 7.438277130194153 5.236043323316438 10.131412048326858
Mg 5.2659462450801815 6.536910524552796 7.8702015867296975
Mg 3.346274028358623 8.299076071439396 5.648169036456649
Mg 8.224604408920767 3.0246937403195155 8.076907409565997
Mg 5.75092432205593 1.2008669180348521 4.423893854601898
Mg 5.710884532790606 3.994163798944609 6.187086203369293
Mg 9.09011514762953 8.83528036933761 13.646441294878667
Mg 7.0809310251282795 10.371972294102367 12.000576664790797
Mg 7.375041423048225 11.340848959934092 9.215742354383872
Mg 3.6864265462493595 5.9571741046993765 3.32576479148945
Mg 7.413571034564217 8.220221639818835 9.394529691131385
Mg 9.8077467869598 9.95233660911074 10.800639585885968
Mg 6.046327452107266 7.11772471198447 5.003003699492256
Mg 7.923232755668667 12.280535878724022 6.4714936337410665
Mg 8.100951031671105 6.073611966283138 7.143253052888999
Mg 6.120057494745837 4.0693673295045585 3.1395034325085844
Mg 9.701297510303439 6.96428731552593 11.32509876243766
Mg 5.899417125788271 10.275983886744967 4.762717394560732
Mg 8.250146621717747 2.7031309515366657 4.966831750943771
Mg 10.294353470573785 4.908350834746865 9.119285463892055
Mg 10.358363868364982 8.000969828328508 8.563830550022406
Mg 10.329838322530906 11.106185090370104 8.058047005304388
Mg 4.119704127364331 8.755748156689304 2.7880039304367354
Mg 10.389054138426088 4.391909258460255 6.082322879599373
Mg 8.093834827162485 9.185962113401196 6.629161601053532
Mg 12.46884041240822 9.294621337937206 6.796328634389825
Mg 6.471219741577468 6.851637939741184 1.9075200201824265
Mg 8.178013815613147 12.023372440727204 3.4037906135020304
Mg 8.475042387720443 5.686506350703166 4.018577169541225
Mg 10.285529502520099 10.688614211583767 5.0579784242800985
Mg 12.478921245994233 6.253814249817956 7.290970334293548
Mg 6.475155860962615 10.087794298740835 1.6555344031038608
Mg 10.37405724134954 7.537599123429008 5.450331136213129
Mg 8.410983438391131 8.747731885409538 3.5251640715893737
