45
Energy = -42.85359421 eV
Mg 7.150601987722438 4.0649444173138445 3.994557290583197
Mg 10.612396809288262 3.4203248878984467 7.869311055988897
Mg 5.784177300586714 1.5500890396164848 4.839121318727095
Mg 5.6721431149951345 3.7612430910656425 7.268426418510155
Mg 9.915330266974458 4.626740777742507 5.122368235661473
Mg 12.34318725822922 5.704984966002799 6.6879549414217445
Mg 8.05375779451713 3.618184179704274 9.385752207098927
Mg 12.397198329125048 8.41929682134799 8.27353339665606
Mg 5.54442307232624 6.23563730149095 5.215077730074478
Mg 13.35864883438234 8.184091415450538 5.273524157037258
Mg 7.993415144041592 5.850591943127041 7.153881993967061
Mg 10.16119924289865 7.840086439511207 6.0610087030181035
Mg 2.7592767916831593 4.915582179677587 6.68497704594848
Mg 10.505061857189837 6.045376532015646 9.193788836271036
Mg 7.581792324675043 6.578778407479342 10.366701919363356
Mg 5.372016347456305 4.46778647174768 10.47571568657574
Mg 3.2475660945646077 2.9352640229715083 9.063293230121952
Mg 5.235604479985125 8.794154714974539 3.6158286235026926
Mg 10.8471212603266 8.611322702705184 10.880309166328843
Mg 5.090337818177585 6.626187604662875 8.13825814742646
Mg 8.2167632131448 2.3810512264843373 6.484603567509675
Mg 3.256940855397329 1.8494097358855077 6.243464113232486
Mg 8.2409098150586 10.245834571273267 11.113506929263348
Mg 11.574103937640789 6.600035392386974 3.604588733552958
Mg 8.931694810867258 8.605203569200526 8.558529810214146
Mg 7.121854125575096 8.657798081293622 6.233694878518817
Mg 12.112125897218863 10.631826310927698 6.247247543276255
Mg 3.9971253659071855 3.908546064832672 4.074066297953193
Mg 5.078266408718151 10.120267854936927 11.960938869000733
Mg 2.789949501124445 7.073740641657241 4.559180269868063
Mg 4.690563590036013 7.247274189950084 11.433169674710074
Mg 6.091133453940898 9.165918894484133 9.206590084291296
Mg 10.600670831612447 11.027357402271178 8.845379840231557
Mg 10.8880116142766 9.56311411735005 3.6347588068794083
Mg 2.5933426102553625 5.8451751983190325 9.77723648789329
Mg 8.259470512217272 7.040343154521324 3.7655960026788247
Mg 6.248003177879035 12.48148722312873 10.71869035761414
Mg 3.0493296432401613 9.058591874588286 9.64819141028619
Mg 1.69376700030206 7.583478622598328 7.389540539455123
Mg 7.899516461040243 10.058460424345535 3.2953670727044635
Mg 4.060783387733391 9.182951042079916 6.4492085060669435
Mg 9.228792588038388 11.019713319875908 5.8210960652986055
Mg 6.082465263216855 11.356762621519092 5.428146689602628
Mg 7.6512285214619595 11.719545101992242 8.198556870602415
Mg 4.612332022062526 11.568506303592422 8.270102921572485
