44
Energy = -42.17326914 eV
Mg 6.887400446551754 4.514533300595454 13.387420858984244
Mg 5.706980472350873 6.9757061151140345 11.836870964797825
Mg 8.751002518901236 6.676730516400187 12.285948228801669
Mg 5.226476018832926 9.184480442254708 9.639246369654483
Mg 4.683780730577979 4.428558688362382 10.72868562940548
Mg 7.529181011650096 9.30969781793943 11.82466412875198
Mg 7.7446727238694635 4.332187590955984 10.568247115643405
Mg 3.146164467539114 6.970965120784859 10.052239083043439
Mg 2.717661431524584 9.443941436433127 7.989070887994775
Mg 10.287912879294723 8.823649960175873 10.62977319100544
Mg 7.317024052184679 7.073423638515045 9.052093355056552
Mg 2.9792255637162586 4.375854342746038 8.266616073226974
Mg 6.791603631900002 8.920774874729009 6.183021472610232
Mg 1.2643637419394484 6.786830631381027 7.8101255312848625
Mg 5.992103981656213 4.08731273152229 7.974281521931191
Mg 8.036846806628091 10.208401486759545 9.041220348606824
Mg 10.217473781475618 5.872202096064675 9.689831853685538
Mg 1.619385507652592 8.348304911658893 5.4096170708054165
Mg 3.844073553397857 10.41959614015106 5.297410097057661
Mg 4.703083470480937 6.8891265768905185 7.173032768092703
Mg 10.973975830218068 10.859190486595558 8.4921230838025
Mg 5.595387364541202 11.403258851386646 7.557946792361356
Mg 8.623158699113155 11.671224798656123 6.535178717976801
Mg 13.526306959385742 10.10819477538502 7.196084078734508
Mg 9.714444177599717 8.202597970265614 7.3113674143949146
Mg 4.140605991914943 2.739901740130005 5.995490975147597
Mg 7.884611640278406 5.967462638704193 6.219349095555482
Mg 6.272092855176046 12.13857677142629 4.696280831472976
Mg 2.6109278175007833 5.36315967828649 5.374530977055595
Mg 8.419096402540884 10.213302383896668 3.82702656787925
Mg 9.019268561759109 3.5575097802803803 7.930150636537854
Mg 12.42677102958826 7.774169817481152 8.677474036697125
Mg 4.196454400877309 7.607425242490189 4.114595766585181
Mg 7.085852315450683 7.414837049318869 3.3504781297630584
Mg 11.420901389248813 5.277963281570049 6.998492901331156
Mg 7.24341605589833 2.657340404713779 5.488250643963682
Mg 11.067763545834907 10.245597504402037 5.405169723655525
Mg 5.507590119743931 4.905128022751045 4.3833156199614915
Mg 9.947968785126601 7.581531985499585 4.220613706337636
Mg 5.558238850084605 10.028014767411191 2.819548766631568
Mg 8.547889064988185 4.7043208083486645 3.485137922963574
Mg 12.64179670515417 7.663875520130323 5.591905051135866
Mg 10.194514693951668 2.970868004977664 5.257892166185206
Mg 11.685036322989811 5.196779375918882 4.032800650789719
