48
Energy = -45.46646772 eV
Mg 7.516788192192774 12.101025383677298 7.0211679626898835
Mg 8.261302297316973 4.563731027362117 6.873941538579936
Mg 0.9035159914124138 7.437056554197488 8.02604778060204
Mg 7.822493723841289 9.014788954381087 12.108505845131472
Mg 3.1907331510603245 6.718723001474995 6.017078377981734
Mg 8.524646306163902 12.101025383677298 5.787657354628107
Mg 8.313394155630887 6.123265550746541 2.4483011478776673
Mg 6.159860511061906 11.8014549684566 7.63223984458747
Mg 8.269566769765557 1.8108795273662697 8.845151401958677
Mg 7.181332304232341 3.6689281703683423 3.948043085942589
Mg 6.138691686363027 2.0516736139480396 6.7043933143208925
Mg 12.533430035835142 7.931471642330944 11.12639867380877
Mg 3.9928875723766395 11.207280829041109 9.651802242940725
Mg 6.914789931434834 9.36602744438775 5.831964909417094
Mg 5.907845453680406 11.771986468786515 4.390609598349742
Mg 8.982762219160332 4.283202659232168 10.15010720051832
Mg 10.278151963070103 9.678504155425342 10.165150052686942
Mg 4.251063294181038 9.143686131629096 4.173223947024877
Mg 10.797337247917309 3.2118858793130705 7.793144224671154
Mg 6.002161743835097 4.073146724486473 9.005234815899197
Mg 3.843671357047052 6.261272765024089 9.197022544506181
Mg 9.7951513765454 6.742530695036372 11.617862300942182
Mg 9.472754287584836 9.94579471143215 4.00117644759512
Mg 11.94977298339207 8.514120792278167 5.1885784762283125
Mg 4.025755261343831 8.928695141505735 7.79116408818947
Mg 5.015414609237052 8.708038920321517 11.145672413768398
Mg 4.922753991883019 4.47764670669529 5.975499107907738
Mg 2.2093380177198862 8.565246399758829 10.440134646015098
Mg 9.063854332647827 1.7342082795026599 5.757453084636437
Mg 6.856746425429508 9.023773740809505 2.6382058466852114
Mg 1.3779507147542065 10.532803950773243 8.293479317222621
Mg 5.984452849469301 6.656579345981738 4.305697848946099
Mg 6.322629916304821 6.885044237805306 7.375748484199061
Mg 6.727631905385726 0.46873588439265723 4.1308025207650285
Mg 9.420023552054188 7.014324932215302 8.47238304822056
Mg 8.976661693043592 12.00375130858562 8.82868389393007
Mg 3.5648209100651242 11.485123000994973 6.240468101076887
Mg 12.361349073038628 8.11365186528833 8.123618153051947
Mg 11.793776698224399 5.395238514546139 9.574909132186034
Mg 11.18168202018121 6.527570967661384 3.2548159196101656
Mg 9.886628777084647 9.714849174629837 7.055740364002291
Mg 10.149999005062316 4.044238012733833 4.394662019117647
Mg 11.46472813703028 5.782106071918885 6.434534004314875
Mg 7.34287642451959 9.248241888491135 8.943662024644652
Mg 6.722101002474023 11.552143324912306 10.813433657774913
Mg 6.9422947340547925 6.553117814284003 10.417094975977893
Mg 8.951899734828633 7.1252945270739145 5.295529176195611
Mg 1.6783340339115238 9.22877423123295 5.62150522631028
