47
Energy = -45.53732101 eV
Mg 9.248225208691052 3.381236398434558 10.571924559395763
Mg 10.233499836252692 4.220659539771617 7.921719789594094
Mg 8.577423561438913 5.350836043599569 12.535406312910503
Mg 6.303406582098553 3.641207632344975 11.325157368592892
Mg 4.522234469179919 3.133490781215528 8.855475773800212
Mg 7.4659451064448925 2.9268521614459444 8.087457793870758
Mg 9.470151743118405 2.253306684038403 5.747136140906614
Mg 10.780860382517046 6.101786423884088 10.300978273265855
Mg 5.21868714753868 4.2602641310385705 6.204339550750291
Mg 5.8485941800026255 6.636868787397168 12.15779054429685
Mg 12.20675727566086 6.156431972269872 7.112639512916783
Mg 6.608147188567941 1.8353670093764298 5.172870743570687
Mg 3.7015562956612955 5.170303682448292 10.789530336956092
Mg 6.883901635600823 5.842903834047995 9.151512376617546
Mg 8.460669878336727 7.970626530899676 11.105897213115295
Mg 10.86020506578966 4.753089072718325 4.726086170195121
Mg 5.016162922469822 3.7016647126694426 3.1557050678489578
Mg 8.115801001469542 5.404610565568762 6.125649643113953
Mg 3.027584562949924 5.6837241907847265 7.867514419388346
Mg 8.171961144105126 3.7952844523619316 3.4377223617259256
Mg 6.091078696747621 9.617118989125732 11.866259702633707
Mg 9.329571094545937 7.408976924986967 7.996883462713283
Mg 3.224025840102296 6.033680924457968 4.742843715209417
Mg 10.901692924904808 9.401976262837891 10.282260676187759
Mg 6.309214092088748 6.362387314310573 3.9810145192746997
Mg 12.106603681564973 8.99088930517069 7.6185998287512975
Mg 9.213851019210471 6.540234336023811 2.702626399784261
Mg 10.728964080697086 7.859487811116463 5.048915311516275
Mg 7.833717727511237 8.555080927788595 5.537986087540211
Mg 4.168433939365572 7.888309036496693 9.665540811481979
Mg 5.52570721589716 7.233223705444175 6.807594225402994
Mg 4.189458380094048 6.249996371314188 1.7365840908556298
Mg 6.805970022220461 9.140736365938135 8.737613593889185
Mg 6.860760769318816 5.197126641017739 1.0828789351460815
Mg 9.482192937928579 10.487893897839678 7.733521297128922
Mg 8.442316325963645 11.179250682825815 10.60566195504198
Mg 6.337205556747264 10.697206036660798 3.0135471523429955
Mg 5.589778646635707 12.295489276578582 10.660325205618562
Mg 3.313352431983535 10.3881730996774 11.372902070142105
Mg 9.128357019067892 9.564588845067886 2.9038185979098947
Mg 2.8365510014301782 8.563902583659516 6.623163557463543
Mg 5.355030752979539 10.330541151259526 5.908381824983298
Mg 6.687021402555039 8.145197737858641 1.5032972653191172
Mg 4.0581024866150575 10.76308921583793 8.510717042271894
Mg 4.25877013119873 8.650669789879878 3.6833269114209717
Mg 6.92294058097193 12.189922568540334 7.971397193429143
Mg 8.24956693465673 11.594138006749317 5.173839222438408
