43
Energy = -41.5244869 eV
Mg 7.2419051045105975 9.711060243276531 3.2217197396773822
Mg 8.488228071597108 6.939552409169693 3.471074410181424
Mg 10.287902162829251 9.40459899430519 3.737895747755751
Mg 5.301422468576026 7.282354084065832 3.308398200933007
Mg 11.358344772201932 6.483726880567366 4.418924793365036
Mg 12.879347894240645 8.993702187364955 5.2139883595724905
Mg 4.28733917476142 10.059140807318638 2.9841530596601507
Mg 5.458337080207872 10.963529797117335 5.598541898324414
Mg 6.550357798965199 4.7511628838634685 4.45566778894409
Mg 8.826781443677454 5.843505482999832 6.3097937708905345
Mg 8.40759216334519 10.93499365740109 5.744550959504751
Mg 9.977375509911349 8.501798359616393 6.732310926356039
Mg 6.699049280528705 8.019476058974526 5.943450984705445
Mg 11.366459978212845 11.450468840108556 5.9228574212388585
Mg 3.8689331542526317 5.6862332542014205 5.590782039596379
Mg 12.574103516810267 6.952210641052984 7.431270932122755
Mg 9.588311853610282 3.8615237158846543 4.213640713175048
Mg 11.667448573893664 4.212963560664491 6.407719236665096
Mg 3.473915239074997 8.640930856473714 5.597798394901395
Mg 12.64862560567933 9.95446289669457 8.070685873048983
Mg 3.7856949660219885 10.624291159305224 8.138489364572203
Mg 10.851737035368844 8.396636131601847 9.928994662677654
Mg 9.762403691442985 10.919923905404586 8.6624073346108
Mg 4.461186158579198 2.7041662797888266 5.691018291880216
Mg 7.880606433859413 7.431742402956389 8.764642502684616
Mg 6.809504632467917 10.30415004612175 8.350884436943428
Mg 10.421444014311565 5.483827792756809 8.993382238623479
Mg 7.337895020544401 2.0187982528483186 5.373876731303303
Mg 1.0679362227201898 9.561877838869227 7.266746490998177
Mg 4.7783926826609 7.643268772697692 8.325112955295
Mg 6.189309891122889 5.10704566929345 7.53387357747107
Mg 1.803368139767849 6.68399417126432 7.608351491091425
Mg 8.93776299845431 3.1189931154122528 7.5981356327682725
Mg 8.070103095154876 9.51908694362061 11.121091159890435
Mg 9.048223633238688 6.748479488975089 11.596713515314406
Mg 3.165223889905592 3.935783256993529 8.058966792983172
Mg 5.03763699479505 9.559590145953049 10.805773733691906
Mg 6.03857913885151 2.186959634685201 8.211210650986272
Mg 2.1029590974167074 8.924936523763007 9.976552579118833
Mg 6.039254038384958 6.738610687055981 11.19928605912986
Mg 7.8192865342304385 4.427120629694316 10.06074101828964
Mg 2.997480318657454 6.133496580182608 10.419284394379606
Mg 4.924746416668667 3.963581446734096 10.411306461839345
