47
Energy = -45.38211169 eV
Mg 7.572564363051178 10.209415391925244 5.993582799532554
Mg 5.783587856455494 12.801944235803187 6.502140647409894
Mg 3.3629277113160048 11.161518465181686 6.233198541418115
Mg 7.974489255815342 12.418815687624743 8.33396376906487
Mg 10.214502401035604 10.532644532547122 7.78821566269682
Mg 5.4606491688271745 11.165424236156225 3.9503032302308223
Mg 10.269771896109294 10.39002110375767 4.773398417562062
Mg 2.7428487442626746 8.666721303965266 7.831403464169739
Mg 7.94248978292543 9.582932998703429 2.82470550270433
Mg 8.048228640221506 7.808239861865413 7.78206069168616
Mg 5.175581264743578 9.178511064172204 1.7412325385462566
Mg 8.31274581964839 10.02175957915026 10.079210347626086
Mg 10.428872530129988 7.772200781203384 3.333469617096759
Mg 2.803580112365831 9.437879437616354 3.583955140448517
Mg 7.641808258636691 7.175611026791412 4.708393548151128
Mg 4.99969599310541 8.445541433120939 5.654049267271073
Mg 0.7871733216328436 9.776261119520147 5.665905425511575
Mg 9.334974946008366 7.768567236414035 0.5728145165023582
Mg 3.3147977056224427 7.728095542127362 10.558345876832703
Mg 10.755516565067301 7.90735774802492 6.421485330382606
Mg 5.577432552962333 9.902845569565978 8.426440175358787
Mg 4.234856329476193 6.695148573518843 3.1998988843989844
Mg 6.714834671230666 6.717769396792281 1.4727046158396195
Mg 9.149482515003292 5.189404250558896 2.2675028682834504
Mg 10.570990837535716 8.024925220983894 9.647589843877782
Mg 6.345702192938868 7.832693549677442 10.846918365766134
Mg 5.330604371518905 6.691917212052771 8.113399533966485
Mg 6.407711562467151 4.498782048793318 3.60726397374613
Mg 8.984796977164482 7.915251097204884 12.281280638235248
Mg 10.184718862483612 5.208006275384218 5.157655646989747
Mg 7.631522841556033 5.364415783277317 9.550856877379275
Mg 10.498860922500903 5.324788046444231 8.256277458657674
Mg 4.31661609581604 4.965019383683266 5.785851488424478
Mg 2.092697074299522 6.9520526089862384 5.493922206676009
Mg 7.467186141505137 4.729303822904961 6.659387649042464
Mg 2.5259286011570525 5.598989478363446 8.312335910873964
Mg 10.360200163508692 5.493572199446719 11.352503191957991
Mg 4.716876224258245 5.171437400034143 10.957055008585902
Mg 8.73116149932942 2.6947127568963873 4.19542370307558
Mg 7.4733848301373795 5.3299900499116095 12.561959913598033
Mg 4.851198730684205 3.5392732644279854 8.437357864486337
Mg 5.889610779954782 2.2425964132629588 5.715651761922494
Mg 9.49934681131757 2.968161217978518 10.058478334840784
Mg 9.99745558942091 2.654896520017541 6.968017907337551
Mg 6.587342959789359 2.830860751479199 11.092043691652519
Mg 7.3224882159214495 1.8560585187391079 8.342115010612256
Mg 8.28555283018292 0.3550718255111867 5.920106092161111
