48
Energy = -46.83676773 eV
Mg 6.071670454766226 6.218185175014851 1.4034179365032808
Mg 8.63776610441772 6.5898066754750255 2.8330198413970855
Mg 6.3690042082956495 8.876968276218253 3.0422921426491634
Mg 7.25594732149764 3.863149952003276 2.854227605848193
Mg 3.5847940614258067 7.305128376861447 2.4774409846739136
Mg 9.43034120643888 9.455300819562138 3.0184598394215314
Mg 4.215926363642898 4.2301903501043565 2.901769752415362
Mg 3.532568563839383 10.292149758993135 3.1796010666900605
Mg 1.278307663111751 8.600719628561745 4.059310463764694
Mg 8.16632148461781 11.431833447099132 4.631145496736998
Mg 10.349457482090285 4.041178385730898 3.2771482987534504
Mg 11.01660825384476 7.474484012468253 4.450357134250441
Mg 5.96677738366612 5.986624499645521 4.719472777251245
Mg 2.2219154059026565 5.722292045778707 4.6703502442079
Mg 8.380928615912573 1.700626316282988 4.453352092144082
Mg 5.874933197349768 3.0324947960779616 5.7821253441108
Mg 2.9146250341992497 2.9643396470923746 5.241420640201488
Mg 10.235164228744736 9.99001879039988 6.3302857830014805
Mg 7.964146456685746 8.035208983630882 5.751840936259132
Mg 4.059022328425313 8.05793655074696 5.543609082757192
Mg 2.4380257424213054 10.557622019799098 6.152395809212738
Mg 12.099049056167985 5.018408363729072 5.599367775539388
Mg 10.96154860970876 2.2203901686686236 5.6869591115519205
Mg 5.445661692691904 10.750048656443951 5.460440043608315
Mg 8.744327247799392 4.9006408316846235 5.6373265557032175
Mg 13.407452352668022 2.9493426395701094 7.51536802749229
Mg 1.266866978767495 7.5999987478406466 6.916437947538517
Mg 3.3773342003055395 2.1668527093157977 7.993019499493428
Mg 4.344077503578517 5.550256156958992 7.366289967655896
Mg 10.77732413696583 7.177257798293543 7.500154258194561
Mg 5.880919603244575 8.413169808324014 7.867838348535483
Mg 1.4353837016245663 4.4883329819807525 7.516747639061875
Mg 4.5703996463533 11.705302991950095 8.120261890918615
Mg 8.415825093514243 2.156785332823133 7.443607774518406
Mg 7.541158531890167 11.140403372297287 7.575481194027466
Mg 10.563103549873484 4.215311254061431 8.176798545090074
Mg 7.332787746321192 5.746598326266381 8.219763413147287
Mg 1.7562322716727765 6.5740635858056455 9.666046722213707
Mg 5.998186348130544 2.8804406986395295 9.100028400564918
Mg 8.858747829838823 8.910053465384781 9.016368896589057
Mg 3.051128918047303 9.238401169907048 8.912209383892375
Mg 3.5218155960956983 4.2105577984111875 10.192578499906736
Mg 9.643355545084463 6.217538955391851 10.271548538459125
Mg 8.684527927139138 3.332895264746264 10.288423953532751
Mg 6.02496746282649 10.19008327855411 10.208027073753508
Mg 4.60925390063344 7.143794070251145 10.456541551514752
Mg 6.447223116958742 4.974392126255815 11.25691544949879
Mg 7.357035953638364 7.7823670217346645 11.342352348585583
