42
Energy = -38.41479625 eV
Mg 6.293703793276509 8.632574961591606 2.0627428588112457
Mg 5.299028484539064 5.93170762131542 3.2549847065409394
Mg 4.792596637545993 8.997357122975325 4.550144126601112
Mg 7.84101601380293 6.052072716680211 1.5708958399899229
Mg 7.620101332556191 10.5314218486078 4.155023766786871
Mg 4.000149955843519 3.7850949476700166 4.748646592799138
Mg 3.68153151110878 6.575719025407002 5.9358986127069855
Mg 3.1070720990132332 9.322968405779761 7.039113482377357
Mg 9.25959293697595 8.696015294057894 2.141730737660423
Mg 9.066349707578008 5.056203152723584 4.094357030548465
Mg 8.314979129653471 12.500281102920756 6.387283283264601
Mg 7.48585994505628 7.508987316571155 4.627545711063739
Mg 1.6919989515266514 6.955555046474866 8.330530377425086
Mg 2.259568881332814 4.137057126186776 7.339688840253537
Mg 10.435365356729204 8.022056629516868 4.7521602608781
Mg 3.127335385095471 1.4191139786699591 6.279827690970923
Mg 5.956757445648123 7.838297753876843 7.625322093702069
Mg 8.452518290881311 9.403016914439656 6.911638240866442
Mg 6.3366657414600205 5.09500927236342 6.163763510867412
Mg 5.764340590664065 10.842124033607002 6.714796931125635
Mg 6.184684380806837 2.005141281088707 5.922973196679685
Mg 3.8138905520952355 11.371542766269757 9.099966662210086
Mg 3.702034393914595 8.441763502926442 10.03188828652393
Mg 10.94439789058962 11.086515913156445 7.049443453162214
Mg 6.316988188807772 9.9368600792146 9.819626726269627
Mg 4.339963504498627 5.647058044977833 9.000143026628026
Mg 11.365507258039358 5.4377965702460065 5.929875370581298
Mg 8.825197142950191 11.429612973691178 9.378402083271713
Mg 4.658166666243122 2.7115791378224396 8.557406062251403
Mg 11.27246201956747 8.052441977208664 7.646859807219197
Mg 8.748903140890503 6.402696560930364 7.303194262266708
Mg 6.386952961847105 13.027001481485657 8.793867655862588
Mg 8.885659354847867 3.3999955732618674 6.703283453349293
Mg 11.357526137256194 10.073546173432218 9.940470185644854
Mg 8.806447770627436 8.351505867383045 9.765886159309629
Mg 6.27768993571043 7.034907378959944 10.805082637825851
Mg 7.032935488777552 4.472874819828482 9.122067349081608
Mg 11.23951186839093 5.054537832278307 8.808374816744161
Mg 7.3716938512360635 1.3722286774625798 8.629237365248459
Mg 11.527309148934604 7.283449099850163 10.738791255240168
Mg 8.981137926197858 5.666669842188878 11.055785109127216
Mg 9.53301401701568 2.919637390655086 9.87438429639513
