49
Energy = -47.25435576 eV
Mg 11.987419204909035 9.829263418330092 6.952781559771361
Mg 11.067328007380942 8.666092476500742 9.811297134382459
Mg 9.942273506276853 11.252718479232808 8.598672835489525
Mg 11.100676780628472 8.244484589166325 4.3384191706262625
Mg 11.144556993610598 7.032699808323263 7.077473612711016
Mg 11.467863352737249 5.681122983459276 9.852485730018719
Mg 9.238381696665368 10.368511337742305 5.709137438170233
Mg 8.544542479796352 9.923618937798642 11.035337367339167
Mg 10.849858303890494 5.244396152006649 4.513742287149428
Mg 7.813792522574122 12.691970174083705 10.07635435493117
Mg 11.752210392831607 4.183509089723915 7.227266956711283
Mg 8.420132038285885 8.462555507802398 8.25957146140838
Mg 8.916624831485004 6.8678502050386525 11.029815537152826
Mg 10.180686375869584 2.008536465702964 8.594090158637208
Mg 8.86000952391054 9.790064437448558 2.8883253785780867
Mg 7.381758651578644 12.291202324243653 7.01992984868319
Mg 8.198660585267145 7.068297750957374 5.433997569638071
Mg 8.790603584041438 5.349744472384843 8.167039684609874
Mg 8.954401246392813 6.866810897503703 2.45610555733236
Mg 9.361184775222458 3.8212122748890165 10.843222195456578
Mg 6.561313573557152 11.528278229682753 4.075974821239083
Mg 5.245763371199135 13.54459892506141 8.860802128729324
Mg 5.81203362631111 10.422280539594757 9.348048574333237
Mg 6.1829311303186 8.117834941098888 11.519478917555501
Mg 9.31883230056003 3.013486915697357 5.906071815433965
Mg 6.265846936822846 8.439261976093492 3.274994047714588
Mg 6.317986266609569 9.432385255483567 6.348246199498231
Mg 6.653343203291318 4.897812117847782 10.97367346407962
Mg 8.06633499907669 4.188240508469852 3.4750452148478717
Mg 6.211548565800859 5.9066871576944635 1.7051166877065482
Mg 3.948614868539307 6.018164896223476 11.028892226878556
Mg 6.594154287814919 4.6065170334117 6.297431522907586
Mg 8.323838437513704 0.27644206413695177 6.968243589965304
Mg 4.423415701125524 11.940187101467702 6.483164147614568
Mg 5.682570234035274 7.145306431729838 8.654697416672608
Mg 3.8242930440584946 9.896411068041417 4.350955827144082
Mg 4.939562635543912 6.924164195290094 5.72366483446745
Mg 3.4726039163576985 8.838959227225319 10.441042357235249
Mg 7.157807697458722 2.641202909442109 8.570414230356729
Mg 6.721144958987932 1.7666137734510814 4.871091996369771
Mg 4.6295662694579995 4.10931133218678 8.841260745806776
Mg 3.283464619603519 9.429697918105266 7.551279628905562
Mg 5.003606218382366 4.00628938210435 3.6351394069007745
Mg 2.6545654632206235 6.537830540904529 8.173589000201483
Mg 3.5748428307034157 6.9178435143972985 2.948969522097224
Mg 4.243935368762573 2.5499520521678365 6.322373107196848
Mg 2.609202074906007 4.963180338355192 5.195140564696873
Mg 1.914470773232559 7.8103800513555575 5.4198480691060595
Mg 1.8485339275113495 3.637591748529751 7.822245878432883
