43
Energy = -41.68458358 eV
Mg 7.992371433120748 9.942358620525606 3.029457058712137
Mg 9.365891380455697 7.124416769719631 3.0778597275517816
Mg 7.499836102016341 4.655360233986958 2.827014788006578
Mg 10.4448601862896 4.268575681582928 3.7531460936632137
Mg 5.223428093075872 5.436571839284059 4.619826165372985
Mg 3.236382490956482 7.461824911879228 3.1843044701832977
Mg 4.979420899302557 10.363404986834416 3.3982630974944046
Mg 2.068954052982755 9.530945698331369 5.128535110590284
Mg 5.996116949856473 2.5200770057157422 5.007717283642543
Mg 2.2080264427852225 4.648128430117103 4.107364457680337
Mg 6.313905874005377 7.5392879035561124 2.657490368767359
Mg 10.07481002413255 9.56737267318574 5.294512101083896
Mg 10.818944785176882 6.590157015686128 5.788474419869532
Mg 8.469841829088427 1.8854727577574248 3.4764881019094735
Mg 0.5100492967946009 7.030042407202937 4.368813483687965
Mg 7.2106241693682644 10.743167224100864 5.777632609582948
Mg 11.000592079699357 1.4333993362989321 4.839676284067459
Mg 7.748799339861066 7.648191158193261 5.540731280833405
Mg 8.137001995767188 4.661352696396909 5.939569517457155
Mg 3.545685433835142 3.508061288534635 6.560941297270273
Mg 4.21024445155953 11.306245148896048 6.346477054112034
Mg 4.980929151835587 8.414451935638365 5.534597208302146
Mg 0.6213476331326788 4.963780459194445 6.802570958343905
Mg 3.020982395405021 6.58153104277314 6.564467990301297
Mg 8.54412667431284 1.7027813175519657 6.610747018150469
Mg 2.868969023610067 9.251507181406598 8.161183637427936
Mg 5.840107648062186 6.031010116622048 7.53810995002428
Mg 8.938543242264837 9.901678304838928 8.232790556962106
Mg 11.048383046061838 3.7022858562194845 6.763852390707568
Mg 11.65613259658718 8.717329260341142 7.70752068976204
Mg 8.696935298909173 6.8124763615288755 8.186361914632963
Mg 6.099325057924429 2.928445497427415 8.114493018745572
Mg 0.24036608557784508 8.032702120340948 7.109722135121872
Mg 3.656118852321396 4.4951742633785825 9.346469112249062
Mg 4.423406950077509 7.333741152645143 10.096744896678679
Mg 11.433260027050453 5.829626348094684 8.896434345039282
Mg 8.916987655833333 3.79382774240829 8.951250234158946
Mg 1.569890886169002 6.654629772693807 9.342462733992548
Mg 6.039159490246693 9.180376922016517 8.224376563342183
Mg 10.529556908138042 8.42525333242674 10.437047719135519
Mg 6.571796668397523 5.085622550184979 10.405119323091508
Mg 9.401212606567539 5.822206166902952 11.179480268739944
Mg 7.456527948854489 8.085001665049742 10.679755721020213
