47
Energy = -45.90986403 eV
Mg 7.6000626851804105 6.212998457869563 1.2215519532840766
Mg 5.651596762612506 4.0557430018765395 0.937855423989192
Mg 4.677901373897609 6.753221400078256 2.0889295908557415
Mg 8.48701141662738 3.3488771234878554 2.1827369673464556
Mg 9.522115295756729 6.133812475796715 3.5798778038464327
Mg 3.979834418587322 9.230329842084192 3.6549462646688906
Mg 7.140008307508759 8.303330182022297 3.509952049244477
Mg 5.748627685213265 2.1692415199376898 3.2802027404381193
Mg 3.4535249513538777 4.174220595371374 3.0636943275656834
Mg 5.9384839875327255 11.495063937482287 3.5807645423837724
Mg 2.2410069263017753 6.713614877907369 4.184042718287793
Mg 8.606683503691952 11.231997001134514 4.493778398335629
Mg 6.5983397497793765 5.031238698093516 3.871239921048553
Mg 10.402929857683361 3.403790616702808 4.58578826901906
Mg 8.478699813456956 1.1698298964992748 4.327478693408066
Mg 9.940995548699252 8.656416395472394 5.284177631727189
Mg 3.6926865486399874 11.590968177010375 5.5150347036724545
Mg 4.934897148273854 6.757666187209361 5.462627435105356
Mg 10.814337498359397 8.230548458318067 8.141814944813396
Mg 9.11905583792014 10.764536898585384 7.39893407735412
Mg 5.8536302343551405 0.6979244890557625 5.7752918216044
Mg 6.537658271088372 12.337474049748014 6.61287274775391
Mg 8.412484065276866 0.8865072121840978 7.450714542906757
Mg 4.3322944595088515 3.500334097032291 5.9134697498774305
Mg 2.5666810422811226 8.877832364404133 6.336452002457422
Mg 7.8146279396385605 6.624348299271426 6.224443081339216
Mg 6.313730997524002 9.4280447800186 6.186590721651381
Mg 4.939902739681913 7.798678379140194 8.265995490730399
Mg 7.600961557478789 3.5242619377310707 6.215436445585988
Mg 2.63066241697848 5.94093301444199 7.295886683969094
Mg 10.952365487081822 5.873960474722955 6.275941963288246
Mg 10.391549200303889 3.1564775011323363 7.660815907184955
Mg 7.806760375055367 8.275371487383117 8.769238222280887
Mg 4.098772165969254 10.733020442238283 8.33417265677773
Mg 5.583489174940917 1.771601852997294 8.457334301920106
Mg 2.183627933288833 8.444306026364316 9.300829873752681
Mg 5.912143966014166 5.052473375790131 8.1028712559736
Mg 9.779114620403828 10.202137599765678 10.313443743328357
Mg 3.080295261489648 3.3927942318587605 8.788694735983075
Mg 9.191949647456156 5.670828696684366 8.847445227054045
Mg 6.83319749028166 11.012474695068663 9.498896471749749
Mg 4.714631775131932 8.988215783683843 11.016246630810771
Mg 8.00903078817048 3.058333740824987 9.630972522005688
Mg 3.5428975143830677 6.00391688217591 10.396508201302302
Mg 7.569875361598265 9.04163725785246 11.859444582743693
Mg 5.2569268497239925 3.535452559182224 10.831112870492197
Mg 6.614363588956388 6.295637267445303 10.825873330219677
