42
Energy = -40.2925311 eV
Mg 4.39494361112652 11.245312896288834 4.10130222112707
Mg 8.825634057548202 11.567031783969975 8.237156772064083
Mg 6.603087425373118 11.212201759896352 6.151880349079371
Mg 4.571136860379241 9.389758782892253 1.8755519232322753
Mg 7.152074869736356 10.369350601826158 3.1160388047674026
Mg 3.9075871664060107 9.922421441895743 6.803106538720313
Mg 9.388858862193851 10.953179983045999 5.107526811884207
Mg 6.0086267250100995 10.202096220683504 8.99259608441839
Mg 11.079561513742775 10.745832007162726 10.09970328549442
Mg 2.5891618501095093 8.799264598902942 4.235662357145224
Mg 8.912564957021653 8.051284215848197 4.046749093731442
Mg 3.326056554836864 8.645140429244202 9.54185336850124
Mg 5.849053105481598 8.15689980668339 4.944188532535189
Mg 8.284629211242027 8.693081837119495 7.220442187809836
Mg 8.451191303888747 9.343828240636004 10.483413039598368
Mg 11.268806460562121 10.081152465997773 7.163124099242299
Mg 1.7333249877307235 7.892835831706015 7.098675155306802
Mg 10.901476642086855 7.236827193246642 6.0740359083094155
Mg 3.830634139231055 6.642855012715681 2.493003919533953
Mg 6.76436598842165 7.320294277944387 2.032260133633476
Mg 5.842107951301522 7.776060134118278 10.964727896945485
Mg 10.942797513510971 7.785046933739859 9.053900030508883
Mg 10.940086049825856 8.38910970704678 12.030809498289653
Mg 3.4432331157985776 6.07708384311388 5.457546777657134
Mg 5.530156747285362 7.190896623478965 7.821521877126381
Mg 7.948323689268409 5.85492111738372 6.215402614042236
Mg 5.839672379102588 4.941046949938411 3.9597235440184453
Mg 3.2521585237861186 6.229113743736306 11.296618751096867
Mg 8.144510170538606 6.3587903316408125 9.291365995865993
Mg 8.388541297063705 6.86228537871393 12.413925070993647
Mg 8.646286994367095 5.11632548341033 3.001017760306141
Mg 10.563661332631527 4.348468236228681 5.068988417871514
Mg 10.617292799326373 4.905065253464666 8.00882218965059
Mg 2.960353354953693 5.47266987925274 8.428561799056517
Mg 10.744167613580155 5.440978527411975 11.060967216224045
Mg 5.293841839679233 4.07795754962084 6.849319662419431
Mg 5.494930769764607 4.722098712407192 9.898974856606362
Mg 7.821941772740011 2.938617267573046 5.190515174906449
Mg 7.754243933314928 3.294424437483269 8.34409239427767
Mg 8.071121402777692 3.9655719272991767 11.390228940571726
Mg 10.093595223213457 2.007773009858214 6.948211955392953
Mg 10.293577794704131 2.578213845130453 9.94174027539496
