42
Energy = -39.67714053 eV
Mg 7.256142188709704 8.440674324926611 1.7709990422928035
Mg 5.360843702951524 6.282488171857732 2.2874030631993443
Mg 10.033038729592448 6.836232928437852 2.1781638331336777
Mg 4.33321950706745 9.020662772076134 2.859430271033493
Mg 7.881225089896464 4.800279209464279 1.9611678768563976
Mg 5.248177869152581 3.3459198295301977 2.8629835625664546
Mg 8.119922323714254 2.1272882307078325 3.2934076628932027
Mg 9.626480768062091 9.426644009113264 3.506582790879093
Mg 2.8792571592634317 5.693341470382639 3.6767667711081238
Mg 6.751571008050996 9.928827509356484 4.525345005529249
Mg 2.079391482936813 8.341310974247746 4.876714785307349
Mg 4.978235830728949 7.203696710383718 5.319550205323962
Mg 9.978718941272618 4.425413332479911 4.15128353442502
Mg 7.920842043750421 7.029290428743616 4.411889130133583
Mg 11.062308537102947 7.207893916996483 5.0385731573179
Mg 5.984740584579518 1.3427031682327517 5.163360748753222
Mg 8.87753947134452 2.528963155403635 6.320600658962802
Mg 3.911230561556111 3.7348063610790847 5.723657936849574
Mg 4.059572450738141 10.4702604840818 5.673163130008606
Mg 6.807143652291312 4.4925744939953365 5.294674127856496
Mg 8.919300844640073 9.235075450427905 6.580915657885898
Mg 2.3356433477357523 6.037974851407334 6.858072064696361
Mg 3.774907901066822 1.1520756696244652 7.244027764950025
Mg 10.888602520304653 4.90699862344135 7.07397388535889
Mg 5.975916559719301 8.600116772892367 7.828776822293191
Mg 6.758413965359501 11.46555225662148 7.282685774203891
Mg 8.238803149330046 6.349066694602673 7.419465839159994
Mg 2.671657875486976 8.804616529644315 7.863882296348074
Mg 5.317873606581993 5.681715832318742 7.919309398007261
Mg 11.314652497480164 7.8500855479106235 7.894706398365008
Mg 6.195414894299722 2.7564455165889683 7.9309438732055115
Mg 3.1229650525572725 3.662549963766885 8.84934846144664
Mg 4.05918731341901 11.416201400652705 8.586915674397945
Mg 8.64677927605118 3.8741206745298995 9.132973489954525
Mg 3.0157539112903695 6.465257081806865 9.97805226220878
Mg 8.618465601193625 8.385730623726218 9.694252727289415
Mg 6.359209966693773 10.527589206613092 10.31833365652826
Mg 10.612081821734886 5.977704273677252 9.940244966791612
Mg 5.547502087160863 4.4894557497870515 10.66533325246354
Mg 3.540545462862557 9.381861719627098 10.687500453656268
Mg 5.81777340183836 7.5240631195208705 10.94036399220866
Mg 8.113808692717654 5.771332611601265 11.409065646436751
