48
Energy = -46.30862969 eV
Mg 10.965286903423298 6.659143911314535 1.6286089017934917
Mg 10.747289611623629 4.9146758997248075 4.0634071203352295
Mg 8.166363112975443 5.622060702901188 2.0729336765897672
Mg 11.21265497866961 7.902540192942588 4.3579097403876235
Mg 8.12729612622303 3.288160225873299 3.9943834202832242
Mg 8.737880624423347 8.543385608401083 2.4692494353164594
Mg 10.015149631653346 3.382275041178988 6.519333758421208
Mg 5.4640740258930975 4.549474352677513 2.8854408154592903
Mg 7.950114853301269 1.188564923597201 6.221513515975964
Mg 11.12015740114896 6.321968043253058 7.016656352828224
Mg 8.18587217822536 6.6029814897542325 5.2116350356190315
Mg 5.873368444907578 7.609492299209654 2.882410764458858
Mg 5.268694811449406 2.169251002986388 4.83102587257492
Mg 9.23434104373858 10.163411935012912 4.976366511662206
Mg 11.008378598098322 4.177645676227845 9.319245602750003
Mg 6.757727605660338 4.093536102626469 6.589761570144043
Mg 2.9929918478273705 6.720782893060705 3.3091007074307672
Mg 8.349501626771161 2.404009429005272 8.946989481355098
Mg 6.627536024384586 10.507630171232924 3.329590186669849
Mg 8.44948469363422 5.555609907913534 8.352260681636496
Mg 4.934588513281684 6.088980749001335 5.495394142625646
Mg 2.7870405820885824 3.731878138727713 4.064251870848239
Mg 11.689553115458324 9.480901785478913 6.860471641374645
Mg 5.577188370888567 1.5443056927354297 7.9950471345374945
Mg 1.6616198526005244 5.778370324563826 5.83697414293456
Mg 6.2358282258884365 8.982744842418503 5.882068865100382
Mg 8.61558339353578 4.394835197179933 11.188063658644264
Mg 8.854203734276389 8.446905806611099 7.759339857836335
Mg 6.996303233908195 12.016888543377188 5.9430796393206204
Mg 3.127850381516578 8.408040385882657 6.327692764260675
Mg 5.68277703298533 4.274083797838922 9.53942920336283
Mg 9.428956846240032 11.535000054194674 7.6520249032631735
Mg 5.827728953017654 7.076760098015286 8.13384105600546
Mg 10.937321471486179 9.788131391116329 9.724808904650086
Mg 10.312907403077425 6.962306680434583 10.404305002020154
Mg 3.553588899333716 3.563694502521703 7.070489254307052
Mg 4.480526501807447 11.051891985417882 7.343734706318596
Mg 2.8700701992947524 6.095150812978131 8.544178180080301
Mg 7.177777274086312 6.974038697178928 10.833045591287775
Mg 6.748879810338491 9.861355748685343 9.214678684171197
Mg 6.658541867620575 12.834951300936613 8.867769583975269
Mg 4.192285353069678 6.466956502982088 11.208714107815917
Mg 3.604752091161658 8.904281241682913 9.350926530172586
Mg 9.163647972933976 12.109725963112021 10.515029359246542
Mg 8.63093724082669 9.394323417776537 11.683354156745107
Mg 5.343165412666125 9.167473198659392 11.93026398823537
Mg 4.217207798294742 11.69818317211915 10.343227359664581
Mg 6.653133991320537 11.88019516857344 11.959976806497194
