40
Energy = -37.57880706 eV
Mg 8.290580927586463 3.312963770845176 12.585917007857391
Mg 9.955663929092665 4.121937610073319 10.259140802242353
Mg 8.499667288283295 6.278925372827843 12.180433975823378
Mg 6.847801868686896 2.9405000756646564 9.878536191629074
Mg 11.687531335180473 4.795824019457313 7.93898469427811
Mg 5.784853899660602 4.749338372812718 12.107204774733605
Mg 13.075189447055932 5.8740181243199645 5.612244951802297
Mg 10.34803843222417 7.233452062948075 9.650141491732027
Mg 8.668227722432418 3.5608945738630777 7.452637009905893
Mg 8.157304313819273 9.05570844360859 10.748769187511083
Mg 11.773895451150436 8.228361987544941 7.072953135665245
Mg 7.533718189043388 5.974590953015176 9.427462063877734
Mg 10.409141159612167 4.488357001459675 4.943587576521508
Mg 9.962642962855412 10.226028227953849 8.61135825222783
Mg 5.5374336586791575 7.6121397399108774 11.096884511126028
Mg 8.132996075002337 12.107352100921828 10.17568066868344
Mg 5.50965418061519 3.139407610469629 7.185216010584296
Mg 9.249244607982659 6.50174378057915 6.9458687022155665
Mg 4.466193714728133 5.115310172463698 9.441606419130702
Mg 10.810061403624426 7.487211637359283 4.307059013929823
Mg 7.685936060268879 7.641423324494837 4.8162085396984775
Mg 5.624566497080577 10.517741427745074 9.800316326543784
Mg 7.212576622552866 8.695121057220833 7.766702563846818
Mg 9.459245001190466 9.894030760944833 5.712970981170862
Mg 7.437099422169221 11.732647585093462 7.3414924474587195
Mg 2.8102770231413388 6.021281525284662 6.850625689692431
Mg 8.857107407497823 5.870807722813555 2.6454472510472193
Mg 4.146997801209132 8.123102581132073 8.527375979171007
Mg 6.079844841504557 6.030168264063114 6.934061533018528
Mg 6.54201353184714 10.485428527433651 4.618617589641278
Mg 7.35142910438296 4.341921498404467 4.785875945053806
Mg 4.252672814544333 4.6236728506693705 4.744909810156887
Mg 4.436535536587622 10.828553413618126 6.977590807571022
Mg 7.6181427466104825 8.671467825100493 1.977492824203652
Mg 2.6588471722025577 7.209567823608814 3.870438848999233
Mg 4.827803872962099 8.216939097893281 5.4880152803485505
Mg 5.694220451119679 6.42065887456171 2.873215591671723
Mg 1.812982984229715 8.91013312489565 6.489524274704643
Mg 4.706489541855219 9.246986710191065 2.3998122207083585
Mg 2.757140251978818 10.445362217450532 4.248797225286877
