45
Energy = -44.54242838 eV
Mg 8.439117970545794 7.19643244243713 2.2671884821048245
Mg 9.866943381345102 9.462212087507387 3.7576894868982698
Mg 5.194428838645955 7.427167692285613 1.7969778796676343
Mg 6.531605702221484 4.72035478772855 1.6456038113514089
Mg 11.113941884811373 6.520108129913709 3.7227922927134074
Mg 3.815837865088188 4.687064409848414 3.089827083509776
Mg 3.827675104939179 9.84191393923142 3.039019977587513
Mg 8.910139007922833 4.3729131971918855 3.519230360189489
Mg 6.797992873521149 9.374307927593211 3.6638954062479816
Mg 6.456444497669942 6.135733560216106 4.315094351318815
Mg 2.334697249304343 7.3377186891907 2.7871894673545565
Mg 1.5692871400182997 5.613722853416204 5.050046627867553
Mg 9.024369193094477 7.110479940135269 5.6408372993143265
Mg 3.2055132227119185 2.316319319071676 5.206366036075947
Mg 6.127818014842306 2.8886303666261175 4.045707967734407
Mg 8.27355225215463 11.103273659170343 5.853738837022951
Mg 4.8588741225501835 10.899116883607883 5.555746288930289
Mg 8.748103001451033 2.009553317226488 5.379997606772846
Mg 4.23232791047121 7.632326939470015 5.423817650757865
Mg 10.66885887470165 4.2420669550742645 6.013976762809927
Mg 1.8424041438118104 9.16756303624795 5.457432796243431
Mg 4.511245930060732 4.591526680661893 6.3145988804915545
Mg 6.171158553800363 1.7377963074765426 6.885757906871027
Mg 6.711675473534098 8.707269289635757 6.818137412035024
Mg 5.20991403040113 6.604987542669859 8.291240529529299
Mg 12.005090059974654 6.841393722189762 6.68718291351876
Mg 2.0103498034691625 6.9780413370612555 7.815464791634054
Mg 3.69311603950448 2.1486863270870633 8.355123042830442
Mg 8.242623846361196 6.694632778211116 8.616752463447177
Mg 10.836320070392379 9.66957928525291 6.649386008676542
Mg 9.07155600631739 2.715787428330233 8.430212809288696
Mg 1.5647568530385325 3.9746827305291266 7.501554415127994
Mg 7.545867777653725 4.538381094501653 6.574163385239369
Mg 6.1895097929128475 11.36066418433153 8.206228032517586
Mg 3.7297039604079463 9.522835421544166 8.038721549535822
Mg 11.032569595072209 4.985696805042906 8.950030692187545
Mg 6.187411074610857 3.617414637025971 9.36191233990102
Mg 11.040910598974882 8.034925497158312 9.261629022921907
Mg 3.4066847727086156 7.705096797552101 10.461111552971797
Mg 6.137081394014988 9.008082138965849 10.085973195492762
Mg 3.30011032068717 4.744807958712537 9.877822893066478
Mg 8.773530344888238 9.971134734753583 8.887556599389038
Mg 8.682951577298663 4.577232840090177 10.870268884821677
Mg 8.683946332474306 7.749705542093103 11.276672085802774
Mg 6.04454741855993 6.083222664874288 11.172885999169965
