43
Energy = -41.27156764 eV
Mg 3.8283399825978752 3.629307533259886 10.902727884302275
Mg 6.233041344100251 5.349834346639475 10.524978986673965
Mg 6.555346113417035 2.2348938479166773 10.904705188521076
Mg 3.3217805530754787 6.565360049936481 10.09047163754231
Mg 5.386619257971004 3.2665747619882617 8.225335719024002
Mg 2.5655513101184915 4.31267879559664 8.302930387688724
Mg 8.73700531455203 7.027217712390207 10.419862780051979
Mg 5.878067829851984 8.355351633104553 10.130522759026483
Mg 8.169224294517814 1.9482319994678579 8.340884028768823
Mg 9.084875197435553 3.8167167370002533 10.561091204215431
Mg 11.167507682874492 8.630688303992114 9.645502769286907
Mg 5.183448209632385 6.478092972116594 7.729298479322745
Mg 8.54092787802509 10.041681611513564 9.949334262330352
Mg 3.3301833432770658 9.183791690828425 8.360865734160123
Mg 11.363837388196874 5.558618924167578 9.82482689788808
Mg 9.37988168429907 1.4297048061557862 5.5969668356415525
Mg 2.220900157047285 6.8352878561111075 6.777976764281602
Mg 8.0049785746555 5.159074654768954 7.89844869620157
Mg 4.108156441291969 4.345363035025712 5.662856173349441
Mg 6.9806641887923595 3.275540036900415 5.623405540060759
Mg 10.67994501545569 3.624547750091532 7.567722744776282
Mg 3.668309156024069 6.8549945586703505 4.088795331992687
Mg 7.79315799311483 8.202782224734335 7.5230313344676665
Mg 10.736356968483438 6.898048099255492 7.2047648230509935
Mg 5.929096775248994 10.913327567752052 8.47567608905639
Mg 5.80059509298015 4.3631124254035525 3.006620196291923
Mg 9.413914175569394 5.220433294963942 5.122281300195873
Mg 5.37948709673331 9.10278022242698 5.889388013535494
Mg 8.603403662254827 12.29489570708705 7.9523371079379555
Mg 3.568673747624557 11.73194305803136 6.713453284757654
Mg 6.675179176599419 6.477518643382073 5.130048474296508
Mg 10.29918008625383 9.972639647367922 7.112681672563034
Mg 8.705740215236196 3.1876882279016345 3.0349229707537657
Mg 2.3960046289069123 9.457734006883861 5.232592728939789
Mg 11.469451233290405 3.1754231885008366 4.594499673816363
Mg 6.164843002014806 13.145123860033532 6.410098657788361
Mg 9.329805294471662 8.21292035255815 4.6959726561405155
Mg 7.9248073917332755 10.881401186869294 5.34244568653589
Mg 3.904102187053407 9.406544884245903 2.537724794016239
Mg 8.291639363353164 6.239638368920997 2.4637962109817906
Mg 5.456172272150031 6.958035108556792 1.6125148658619277
Mg 5.1430802278902625 11.592694170798485 4.064782327964499
Mg 6.951076033524729 9.156790245219316 3.010495687125303
