42
Energy = -40.17310205 eV
Mg 2.6881620903814385 3.261840214378416 8.424836386048689
Mg 2.744294249849228 6.107983263138261 9.60029361914933
Mg 4.383718832672948 3.878703667143572 10.766887545206592
Mg 2.443690015592535 5.683027380712177 6.591547386873451
Mg 4.049836406159018 3.058582814399954 5.681019168711073
Mg 5.527875259794706 1.9448524692751887 8.576361999343778
Mg 2.037970885632274 8.565754665817174 7.795669682301875
Mg 4.126753411125138 9.373245762794173 9.956680219947511
Mg 5.511947269477255 4.7071811238912575 7.730515533571631
Mg 4.746325645678725 5.846555227820117 4.580193822378008
Mg 5.643050225559889 6.738388993305497 10.578184617458918
Mg 7.078926847141536 2.152067305755471 5.540504437506081
Mg 7.3474195338324195 4.220970434106616 10.559698539248638
Mg 5.814353783883228 3.4812730889683863 3.1146504526138012
Mg 6.278096207624164 8.291080216476272 5.348101200051347
Mg 7.671743151414661 5.191091601719004 5.520110084205275
Mg 4.797822183385616 7.449161793466996 7.655816893823702
Mg 4.606887439098281 10.492739618983867 7.142382835546234
Mg 8.535046539507519 3.277189910122679 7.940018519906033
Mg 3.113743152577031 8.42473916832103 5.018578563451761
Mg 7.287688457088537 9.110036039553803 8.296404718145723
Mg 6.574438017196633 9.538358173529973 11.72445170387324
Mg 8.591548131095903 7.2980340618498785 11.147727688511305
Mg 10.238647781836805 5.0552826192290965 9.878610226377145
Mg 10.02641503166194 3.068623500129386 5.357379098880599
Mg 8.673114117892576 3.4796632816201356 2.773821596954683
Mg 5.033633996391106 8.221714042832943 2.5419726363237354
Mg 4.950815956781942 10.77196529087439 4.130680726680903
Mg 7.477373531909693 11.140751379299186 5.943876085041068
Mg 7.936385874378402 6.312808264610633 8.268951287335456
Mg 9.043222660497433 7.97989746741319 5.865444718427436
Mg 7.641172119672432 6.642101568386788 2.905350419874159
Mg 6.311053132057977 11.568405436964895 9.610357611850137
Mg 10.75126985857921 5.544967973619328 6.931959162810131
Mg 9.158230796025846 10.213303025267798 10.37501503702139
Mg 7.72406983102181 9.852369181350127 3.0723970067076785
Mg 10.585131528254369 7.941751313692474 8.743158552244306
Mg 10.50332163166381 5.736221638636645 3.946418028100368
Mg 10.191449230731747 10.927909284676465 4.47269970808993
Mg 11.840924612484237 8.450833143700194 5.613605161003204
Mg 10.13962357000222 10.558069210956273 7.396281749074866
Mg 10.37752841015461 8.4780615856494 2.8285434260545848
