43
Energy = -41.10011322 eV
Mg 4.251308178779482 7.51972207166129 2.6094731064850487
Mg 7.662861853217403 2.606980068135833 1.7553266343552156
Mg 10.588751783338155 1.9548070836461435 2.9281142429387845
Mg 9.775520615992482 4.617932700008059 1.875410532708054
Mg 5.016219755382818 10.367303850432394 3.236777998298755
Mg 3.7651314712321957 4.731504009450592 3.834456753245381
Mg 6.645995482104727 5.465796561513327 3.0890078828293674
Mg 7.10756576343425 8.35423511129899 4.016975026019122
Mg 1.673294056821019 6.843240837261699 4.158352017397086
Mg 8.050947197568943 0.538501143252848 3.9602839565778627
Mg 7.186738012305539 11.150205521518997 5.271647285320601
Mg 5.562668995619174 2.2869781386486236 3.8614553010450487
Mg 4.164670531339554 10.615913298611709 6.0616078780485445
Mg 2.241461822297291 9.658661359155934 3.919589539412977
Mg 8.387403876746308 3.623892433635087 4.637600706462324
Mg 4.652644869446703 7.4878574934192 5.648356496151789
Mg 9.678760675269618 6.558332301144753 4.055525794312369
Mg 11.451749944722144 4.065085195195163 4.980021483656899
Mg 10.334448600273001 1.2796425220123862 5.7694180545635625
Mg 2.625424089675031 5.400257569861426 6.6675711417077705
Mg 9.551736937870158 9.052406876299402 5.728409220560332
Mg 7.25646117235368 1.5548641312225442 6.658644785408604
Mg 1.8181694054893243 8.464769396880547 6.682734082301608
Mg 10.768222552064303 6.426373527867853 6.906843653738111
Mg 7.572366047516742 6.183201377632904 6.242133605978157
Mg 9.521981701533646 3.686810568812554 7.4862119764409965
Mg 5.385986119918 4.085313679510734 6.310800857050473
Mg 9.228966430510877 11.53092815748514 7.425671805860105
Mg 6.848890959127757 8.915750038352744 7.413087567683441
Mg 5.354346040886243 6.444987456332062 8.441936383424656
Mg 6.147583223139466 11.833899885005923 8.106775812840164
Mg 3.8052743105186804 3.9306699188896967 9.130973907364536
Mg 3.9809468555211414 9.207621420208387 8.674936508314268
Mg 6.842294958000681 3.4285686414227468 8.954494092472565
Mg 2.229579378920562 6.75113633362839 9.316332395397044
Mg 9.73671619996595 8.768556062667221 8.745096372141486
Mg 8.53008217413846 5.965392795521289 9.181711423165641
Mg 7.155009107939054 8.200123879903078 10.520096683405965
Mg 6.0316143160857765 5.336921387886862 11.189073455925087
Mg 8.27385411667921 11.056923931480245 10.1413107363702
Mg 5.434149831482509 10.637598342248923 10.84370206045987
Mg 4.226629291686503 7.852856007660449 11.403215963857573
Mg 3.0570251245197273 5.138930744650321 11.740288649737051
