44
Energy = -42.35716799 eV
Mg 3.6170401649592767 6.7280355361935005 9.319667390390427
Mg 2.6900530416887536 4.356584748405971 7.432084688539339
Mg 1.0214247338561693 6.784768120335461 7.739213134446204
Mg 2.2425591308922312 6.453551093858209 5.058066046488667
Mg 2.429643766665576 3.449229170366828 4.519802208175662
Mg 4.559038263087676 9.027394173797425 11.12547403703266
Mg 5.348720770530335 4.177045339770129 8.971336071027059
Mg 5.0459101585267465 3.033364728313712 6.006664772563885
Mg 6.273457072085932 6.507583211518293 10.790722260655842
Mg 3.111039238277141 8.849852099103172 7.011973577683583
Mg 5.000436015819294 6.297166029727709 6.527592687842026
Mg 7.656621674126494 2.849276514680523 7.467712191805523
Mg 6.031158139928879 8.705297838660686 8.345184109421014
Mg 4.474058543410508 8.431735864119268 4.269080597866167
Mg 4.5788522223457715 5.318492722941427 3.455130711091928
Mg 8.136586372639663 4.1080597204074465 10.391678566118095
Mg 4.757387731597456 2.2363752468955074 3.0800176856080133
Mg 4.137759538986978 11.04517391796331 8.93512118097307
Mg 6.9075995893943976 8.540150419961355 12.951290629821763
Mg 10.38314146209991 2.934354703270659 8.772977211992016
Mg 7.723292320838436 6.026130248325693 7.9144238504655595
Mg 5.198432304658735 10.88042683587213 6.040810639300776
Mg 9.049347421485226 6.505511295748919 12.226224281452813
Mg 7.066587173205968 10.71183580064909 10.52702765757867
Mg 7.387864484018643 5.083591810593599 5.002887211908941
Mg 6.547528195360311 12.612644273993261 8.19943590505678
Mg 10.51535908964938 5.856733382504577 9.473351977110516
Mg 6.836991091518133 10.282060535946403 3.4572191467686832
Mg 6.784008315601701 7.22641588184847 2.6238851596430863
Mg 7.021623257589175 4.029285505090687 2.0531546603399162
Mg 7.377774133634549 8.176857566747763 5.68756741758892
Mg 7.478770869224412 1.9657958460277716 4.341992679937429
Mg 9.55480092904772 9.606713434585256 12.255410751460161
Mg 8.720684144443295 8.279715554653345 9.74715678560682
Mg 10.2955869087216 4.930465400060428 6.459123305170417
Mg 10.224157057804424 7.937762858551744 7.14370023488802
Mg 8.789829329339053 10.602196916002915 7.849900367678812
Mg 9.95689223210239 6.943836792212586 4.219985806604128
Mg 7.854253286472554 12.244828963676246 5.491148902394376
Mg 9.222354306854584 5.978385362211021 1.4118552166470197
Mg 9.196684982494268 8.97954320521628 2.114593395090849
Mg 9.81913784784826 3.9009381978635798 3.544946376076727
Mg 10.054953251075526 1.921536402390526 5.85175300762405
Mg 9.757909073011941 9.997586660923046 4.8883303267247
