45
Energy = -44.14314781 eV
Mg 10.669775288295059 5.564450676383133 6.404095392700078
Mg 11.084505451108662 7.254061735736576 3.8678031996678204
Mg 9.895987813399541 2.388966273569421 5.829653709682023
Mg 11.623730606385061 8.447687885740294 6.475875437242741
Mg 9.269341288833786 4.859370901220257 3.8919321195251966
Mg 8.696810105164237 1.4544054723019515 8.50398807109477
Mg 7.043062120797689 1.023489209285764 6.178039011371041
Mg 10.457848198461631 3.9050450348335906 8.82493395582734
Mg 11.120930546165939 7.0195335724790136 9.075638685110519
Mg 7.211279841709133 2.700859520753613 3.718783574716798
Mg 9.615510171121509 9.787279531995406 4.621892264537018
Mg 8.143454379216697 7.405591485113261 5.980815265276217
Mg 8.330055730958321 7.569397226800309 2.7894901733426276
Mg 7.119462103743532 4.957298115546949 1.5773826684460965
Mg 10.204570999566876 5.504463042587001 11.45741065119125
Mg 6.242156718482588 5.67591523717699 4.428640676221133
Mg 5.73012895889166 2.632454277287419 8.546984225545534
Mg 7.846909475798501 3.5511799348191757 10.505002527398313
Mg 9.266617251245817 9.27223380459565 8.133886965660372
Mg 7.762556986662808 4.251343515217418 6.7784346760537755
Mg 4.851540862401415 3.002356646488652 5.693368691054767
Mg 7.987832937473321 6.346620120659351 8.97710796383693
Mg 5.4333721090922005 7.446906361710597 1.868419307953247
Mg 6.799314060068307 10.070802354534926 3.3951522742102154
Mg 5.239418888956964 5.079728976922465 10.291087364084083
Mg 5.318151143367655 5.928199778851779 7.260958359893209
Mg 4.224405402490955 4.493887693996741 2.565231541498146
Mg 6.071152146674594 8.711872594020535 8.025688065220017
Mg 5.188708478441149 12.085959233194528 8.047799643669716
Mg 7.492111778554065 5.91170981652475 12.350738539936634
Mg 9.085265960975322 8.388814912648206 11.107802971044029
Mg 7.348385478876115 10.892845527481649 6.289881026351039
Mg 3.056192830445858 9.870980179110548 7.52107561562244
Mg 7.301379315555098 10.7168684020812 9.925211701448426
Mg 5.0276099005366985 8.335611984415356 5.217793603788974
Mg 3.012088579425961 4.316200308726071 8.045658472080481
Mg 3.4246730771393525 7.372933962275561 9.356172970516687
Mg 2.7476739907348184 7.060449717997987 3.3588643901642308
Mg 3.8478391350293237 9.931225004069427 2.545037404225634
Mg 5.896452784052238 7.998827584443683 11.07183349722314
Mg 4.217042251354021 10.293403423768703 10.189641396046946
Mg 2.501168126423138 4.628446247824595 5.045098180926742
Mg 4.530609223540116 11.48469095846262 5.136222040318436
Mg 2.2862493404903397 7.119274445154066 6.541669171198738
Mg 1.9956485929271046 9.637631528033127 4.791286413696336
