40
Energy = -37.76482816 eV
Mg 9.241678737784332 4.7427871042418985 3.634184376064764
Mg 6.338453024851291 5.854610015651179 4.168624819376479
Mg 9.047601843064239 7.65056280413091 4.256109139380822
Mg 11.322294456192699 8.81563025500757 6.01223114327972
Mg 4.159400634467279 5.129916144877161 1.720955884009066
Mg 6.328932445188901 9.088838459885281 4.220952734843634
Mg 6.763292057874798 3.6463533796070595 1.919092353194637
Mg 8.936745878233994 10.7306764165927 4.528664895113956
Mg 3.8002762333745315 7.448997154163888 3.652124704181899
Mg 1.818526614757857 4.953509939361998 3.523686697862897
Mg 11.471123483651514 11.72246286828572 5.978780354644037
Mg 3.586232278158527 9.586317254530448 5.808808111165292
Mg 7.398904841521828 2.628098877888465 4.697416695837201
Mg 1.348623128082287 7.488016039333742 5.334982672663217
Mg 6.158290547682858 11.098483907594646 6.473916535936644
Mg 8.325961016605554 8.895014233773871 6.9467191906212955
Mg 8.832953015675107 12.231018249114836 7.118532821877624
Mg 4.347048397104771 3.199138111190619 3.962434080643466
Mg 10.667824159965747 10.358921986695673 8.664732757276719
Mg 5.576455992594107 7.392212097251683 6.72520716687867
Mg 11.14202581049953 5.869499272889488 5.897722726727723
Mg 7.6125905301064085 10.708899721207578 9.370570396288997
Mg 2.5900910933104306 7.762098115594767 8.095148883556726
Mg 8.219054460552323 5.689323624825396 6.7294110337935535
Mg 5.778413686081135 3.920955181404902 6.859079825094866
Mg 3.2999554774322064 5.3796701025299125 6.137174129332511
Mg 10.473781117826777 7.268079914303148 8.628706815339147
Mg 10.345894833629762 3.0006447418953703 5.804616350435434
Mg 4.853471964184769 9.667723046538853 8.819216807043844
Mg 7.203194971328834 7.359884377140661 9.316286758263214
Mg 4.545784247312628 5.527558834941751 9.077398100138806
Mg 8.236665113643081 2.279134035014891 7.6183550050183495
Mg 10.253851203860005 4.265478834305446 8.651848550057828
Mg 9.369494047337776 8.856083016625076 11.050134526675699
Mg 3.782434878101334 7.753984455478349 10.92848701750083
Mg 7.249990399396619 4.204481884695381 9.623368754617854
Mg 9.272609178204885 5.775632976158101 11.19158236731317
Mg 6.350165782684869 9.137084026096632 11.701910183029598
Mg 6.0898340610904 5.914426113588102 11.875218619394095
Mg 8.114534743460618 7.404273958902819 13.430699278546637
