48
Energy = -47.54277688 eV
Mg 12.928193603038228 6.149011451619082 11.719325399516352
Mg 13.198317288046468 6.477465393460065 8.431481623351859
Mg 12.980399690010707 8.730367926033232 10.43752471592823
Mg 11.693777668389487 9.073649495285784 7.734763168051589
Mg 12.12204011540366 4.035955692378654 9.923796608253797
Mg 10.69495597782311 10.627748134620452 10.232236147911175
Mg 9.937130257108649 11.553740550394515 7.319255017434767
Mg 12.112054984352003 6.986267462001353 5.417946118532092
Mg 8.181483376102895 12.255697633757693 9.701429524088436
Mg 10.304724008107335 6.792502060952526 9.565327830040374
Mg 11.220417084400523 4.523903252374516 7.082980154520409
Mg 10.786549600015189 9.809384385001348 4.925005018957027
Mg 10.632553852047849 8.159060188601057 12.332398592970922
Mg 7.281452699739387 12.827701376054673 6.594774004766622
Mg 9.392034840020166 7.485189541931093 3.586869198348691
Mg 8.255895450375908 9.131372147061208 8.868318665978775
Mg 9.247238859379511 12.4140866959512 4.443262528513889
Mg 8.233463190904478 10.12046895696037 11.94955200990864
Mg 9.23993590661678 3.6182953609480113 9.19503751519984
Mg 10.284373394167623 4.8019623656948 4.2163253122262745
Mg 9.358559578787148 7.208636462670665 6.720977314434713
Mg 5.66420876449009 11.169585844203608 8.473833342475993
Mg 5.690086199171906 11.771136607684458 11.402914525965782
Mg 8.921671367715447 10.22591607073551 2.5278328549440476
Mg 4.48980600279019 11.83589811641605 5.850936141308368
Mg 7.583231011748962 9.706732971490169 5.8011603987154565
Mg 10.107935366782002 5.008560462479873 12.029950890298714
Mg 3.145591397168567 10.528864240627525 10.128923963414582
Mg 5.6318873520769115 8.826194146759075 10.760817989213537
Mg 8.22300329405934 4.045820963084534 6.2785568064064
Mg 6.632445927418887 6.796852114125076 5.63241545294872
Mg 6.609661640026123 8.257184868920088 2.7078125204654158
Mg 7.813461814775772 7.045995239058652 11.919584319816037
Mg 7.387932748333431 5.078471811917584 3.345412881861932
Mg 5.379873818256315 8.283878272290407 7.753600568338165
Mg 7.250571934475323 6.083718432294468 8.833108071006707
Mg 6.412387542238116 11.426054971503083 3.557397981373147
Mg 4.473233070203602 9.06855178689904 4.692679821920173
Mg 7.225000849144065 4.065542295442539 11.392223452506785
Mg 2.7338296017899704 9.743678270590378 7.234379909347698
Mg 6.372700685887125 3.035579726014506 8.415540224810936
Mg 2.851338935179129 7.604451705547905 9.394009842661589
Mg 4.468592118677572 6.182943101388674 3.4573621319678693
Mg 5.135334306881729 4.19768131355193 5.675011045519494
Mg 4.284563544319677 5.187802840656292 8.395959141368438
Mg 4.876997975372616 6.03888622181831 11.298324128454682
Mg 3.105215925374225 6.710038508483458 6.152182302537325
Mg 4.436731066685742 3.1578423023292235 10.68814589898887
