42
Energy = -40.82736766 eV
Mg 3.01064920747175 8.730819241376922 10.360455689663537
Mg 3.9353729970537707 10.338426346678384 7.750704320884173
Mg 5.832410740753557 9.739408746481601 10.015927711742744
Mg 7.751085647272266 8.559173532837654 12.18571581241354
Mg 5.119196338992763 6.942050816028092 11.37616346699117
Mg 1.646610897685688 8.155165143961305 7.831455994472962
Mg 6.921027305857112 11.387402433283118 7.643528300474673
Mg 3.009549451355355 5.7841485554135765 9.332314931920614
Mg 8.90710006820586 9.833625790229355 9.572633150855351
Mg 7.7414593604066475 8.6169711341487 6.813478911165459
Mg 10.023325488367885 11.43129361580033 7.3006914217711145
Mg 11.898527154605736 9.421106780096052 8.684267864677686
Mg 4.962673768893256 7.44846960716264 7.8585418993247975
Mg 2.833322679903949 9.028807587986575 5.2058083408693046
Mg 7.424261759528895 7.094397426342488 9.460446966615724
Mg 5.600724157873118 10.310999898538892 5.135989543052629
Mg 8.360098475202806 5.619861184936323 11.955637115834714
Mg 2.6185071700085274 6.0544613738441795 5.90459295466378
Mg 10.55789383967865 7.854020321638612 11.256711200505155
Mg 4.7472563531962555 4.239455871991569 6.879745576179483
Mg 5.820920824702566 4.537823830052257 9.669334323057395
Mg 11.13380245310684 4.869387752498108 10.912031634607283
Mg 5.610662247832462 7.235871809682433 5.009609563208388
Mg 13.002468484786208 6.753227421135132 9.65486736393256
Mg 8.538992571563968 10.979201058029203 4.764643773982047
Mg 4.175232869174739 9.47476811980408 2.501468409018276
Mg 10.036565180322581 7.023862108637777 8.213204298565053
Mg 8.865956743124318 4.10481028197505 9.17991095171358
Mg 10.752256932949683 9.008782157642397 5.713151945699437
Mg 7.449516642798533 5.56233139769078 6.8179479034046135
Mg 6.900884386322714 2.3040502381720636 7.879724273614849
Mg 7.048842539751808 10.009816986435943 2.353468915707611
Mg 3.0042499278808483 6.820199567019705 3.0040819615481995
Mg 4.73501905974624 4.5396499047410845 3.8171793728622836
Mg 8.50769991657812 7.90498546447262 3.882055385154022
Mg 12.903592026417519 7.108587507690137 6.787362821210813
Mg 5.983916708112466 7.051822001744065 2.052922392163607
Mg 11.690287391338591 4.435486663074611 7.881207073223645
Mg 10.292526477469478 5.88827041994181 5.368376549169778
Mg 9.318647509802588 3.126701281703843 6.19123790932776
Mg 6.627089838415573 2.479117474011601 4.974363839554332
Mg 7.792025116311044 4.962121963984514 3.814639922338319
