47
Energy = -44.56496284 eV
Mg 11.521083388215038 5.319090306339203 5.5122877470532545
Mg 11.124822207711713 6.8317881632941715 2.531382957511871
Mg 6.770117173746478 11.151859635418237 4.178611939021332
Mg 9.196069089583606 9.240643506810109 3.1540026308130216
Mg 9.174438179699862 12.360235944130016 2.8979297104648025
Mg 10.478035241197984 3.918943128603471 3.1389625258682385
Mg 8.746856243709535 3.604046021475795 5.878435192483537
Mg 7.637516571403118 3.4104447838285683 2.9656830166525348
Mg 11.208490269829966 8.214690700090271 5.237774171392303
Mg 5.614724198520053 5.608809016993328 3.0442746277587602
Mg 6.527187997497494 8.199387085674127 4.4088569589553295
Mg 11.010244461348796 11.164390596301239 4.925686975196871
Mg 8.6032442056686 12.84080653647645 5.922193658894229
Mg 9.130406568942114 6.3868452071706345 7.155144909535667
Mg 5.634082951298487 2.80434764616751 5.036630024377555
Mg 9.355832452462085 8.674518245873603 9.125881850064903
Mg 6.3835242468173075 2.8807276451277324 7.935122027955752
Mg 11.612958913989255 10.24288995030794 7.659441358312146
Mg 3.7577897751809886 7.218768584554666 4.856280443086405
Mg 6.283182528907865 11.667795711873936 7.325317050071588
Mg 4.356603622472794 10.042464605185076 5.548935916579735
Mg 8.641813703554723 9.664253180401818 6.235436879673307
Mg 8.659407842085184 6.186619884385387 4.1028386311651674
Mg 1.9624311285398264 8.861382957793671 6.787219215901225
Mg 9.147490975351417 11.658043781469745 8.595361355082877
Mg 1.570649002324041 5.7448745714562905 6.265954980873253
Mg 12.041250605519972 4.211936589993884 8.24607030457063
Mg 12.040059497037987 7.27936854537083 8.000718258905888
Mg 3.1222736176766865 4.3360577872729005 4.143196954623083
Mg 6.544220104396343 8.239297006900568 7.707469161968545
Mg 7.963760069103763 7.725668147538855 11.640149483233335
Mg 4.008551805612695 6.736361590716683 7.965004455435323
Mg 12.041250605519974 7.225674434255589 8.241227077248977
Mg 4.176991671960278 10.002117249393534 8.64163802631715
Mg 6.902644121108548 10.161291642826935 10.101173646277553
Mg 3.6138953180528137 3.7352175922938473 7.2174266443187705
Mg 7.1628735761865405 5.719450619327939 9.469503604081101
Mg 10.329630328932813 6.055103914290279 10.098297467565732
Mg 6.260889006585122 5.598890179597134 6.168431226260003
Mg 9.215663610215294 3.4686005967282876 8.875405360294158
Mg 1.8306803778070708 5.158698325036545 9.343012289280106
Mg 4.9956731990043 7.7083228180319985 10.746756194614877
Mg 2.1985192808218654 8.23601254622708 9.927176603416823
Mg 4.502603226227174 4.284502580292793 10.092271402391285
Mg 6.012625980280778 5.485566703787641 12.52851386524909
Mg 7.001624460807716 2.8183872615368695 10.827739918171497
Mg 8.855178412570336 4.700216748931233 12.222130378937004
