45
Energy = -42.14521116 eV
Mg 12.21653638680844 7.282139810073326 8.328349272903074
Mg 10.852511438538016 6.9084205366816365 10.864927902613923
Mg 11.103900666538575 8.94774611115476 6.121204926309215
Mg 9.697012798320035 6.217930276625613 13.540787927747347
Mg 11.487922390207247 5.677141775909622 5.98085861715173
Mg 9.852048640999254 9.243769070815086 8.933506234019953
Mg 8.852865663951256 8.889045884551665 11.853187254265393
Mg 10.581882570273388 7.468694874344929 3.609100003456196
Mg 10.14868405828344 4.926600659091401 8.608237765821972
Mg 8.739893464969073 4.389743700508932 11.192464023644538
Mg 7.09004337912685 9.570767519206019 7.680196878186566
Mg 8.78488623996447 7.069180284524754 6.746103284646778
Mg 8.910627329786925 3.97903829702669 6.139160504893137
Mg 7.897784095970745 6.961589697618536 9.560347919707233
Mg 6.916908997558635 6.561678465256872 12.464563228528341
Mg 7.819214901513186 2.8525472572768242 8.752807323976937
Mg 7.972555728621303 11.313679678627745 10.053541560098788
Mg 8.405912917979723 9.265183479706149 4.68932497633492
Mg 10.525991676142885 4.264041404356177 3.537518254021561
Mg 5.98478295834272 9.144709626896411 10.917066714612842
Mg 9.840134142207875 5.8884388344897305 1.1477994820504052
Mg 5.087518425635217 12.055476595370692 10.745789755463436
Mg 7.987062596910262 8.118202528919305 1.856237281785734
Mg 7.8925505276482015 5.9850251938198165 4.096979819993054
Mg 4.1912963548398885 6.71165782514153 11.548781676824367
Mg 5.526776292472562 12.235121854467945 7.855008996413461
Mg 5.132967980286636 7.440468882597874 8.481016019063198
Mg 8.066476705788713 2.570903852182027 3.587671523555022
Mg 5.824178058429202 4.743154580910852 9.948593685860656
Mg 6.521226965815019 2.062053439882126 6.160862325670031
Mg 6.11832942375781 5.116779331464872 6.8551397044089954
Mg 6.553016285809184 11.459610786714046 5.265549187819803
Mg 3.5912271019919397 10.073520999132938 8.992711022651523
Mg 7.107645093239956 4.741598411467605 1.438367973367106
Mg 2.182670395160664 7.545848423447911 9.684691416901606
Mg 5.668904313365498 8.04098121939416 5.499098342062641
Mg 5.749885955647041 9.842059010977186 2.8777233157104747
Mg 3.2124308811141473 5.10416133974892 8.233001535933646
Mg 5.4607944915964755 4.004476065096238 3.9184125607860163
Mg 3.7406428521301613 10.591770334029873 5.910367862937449
Mg 3.7011926311503536 3.0369661143628006 6.099853052904966
Mg 2.618514748178379 7.970624831923297 6.789683682595851
Mg 5.244979253140733 6.7743862419935175 2.644284229634426
Mg 3.3789954403642652 5.797235208814703 4.9425419151418195
Mg 3.064792237062746 8.602813292607218 3.7397338216063165
