46
Energy = -45.02523727 eV
Mg 1.7152050790628 6.757521688799371 5.651157838075661
Mg 2.8436948629466916 7.314744749550804 2.875960557584362
Mg 2.3177055278483447 4.81525885361212 7.968009284833567
Mg 3.1930241664207797 4.582193223981093 4.286345380809107
Mg 3.504638825581062 5.9961320179349515 10.71010945407341
Mg 3.764665568091373 8.962060016094213 5.636075528205172
Mg 3.07267274460169 7.717417889630566 8.29737543762952
Mg 5.869328114864986 3.12188704506073 4.43884488613721
Mg 3.9627373227781115 2.619686187691067 6.6345166134778975
Mg 4.4317119729296 9.966834169759899 2.9518081768515803
Mg 4.569658793742625 8.871022889689211 11.014052999430548
Mg 5.53908311117698 7.813459405895568 1.2600475682147456
Mg 5.580626984273122 7.006808778781124 4.1340551992876
Mg 4.77621239294984 3.7553789702041542 9.327340717288784
Mg 5.088701076306637 10.004785046280064 8.161249571415617
Mg 5.366302601249005 4.913033936400921 1.9925453152186716
Mg 4.954621187346395 5.647570173688097 6.647913097570111
Mg 6.0722895374995645 6.891592129309289 9.084357862081257
Mg 5.941151872195438 11.174228464838189 5.347141032329478
Mg 8.734244011441708 2.1808813086621037 4.968847477965785
Mg 8.126405174099284 3.6022612912664713 2.4221836901133997
Mg 6.254102386885162 6.593094543052537 12.152285343570293
Mg 7.002198865111131 8.246627000516028 6.402103566120965
Mg 7.103075077646981 3.331318360137339 7.444439279403673
Mg 7.484210832467304 4.394982115398595 10.359880030355797
Mg 7.7932725389839685 5.405302432111134 5.3227187930827595
Mg 5.870881575625267 11.520109588201334 10.68399951778598
Mg 7.436972690237748 9.399038707811737 3.3263550780798026
Mg 10.452882068298113 4.684677157111498 4.051850379104048
Mg 7.276736924709137 12.162878447631256 7.992071775920488
Mg 8.00922074921573 9.29259832993292 9.031376296400046
Mg 7.545522367334603 9.36077884493089 12.089441246689306
Mg 8.182298860455242 6.548287739964273 2.3728601955198965
Mg 8.905492023268593 6.295270091881039 8.024001555213099
Mg 9.143765331347053 6.847089928410311 11.233219461723271
Mg 8.909184304944427 10.711479336386084 5.772431036536968
Mg 10.209740918310308 3.582813757267104 7.078493420422058
Mg 10.443515237486514 4.2417328323670285 10.123606546735585
Mg 9.708843174675076 7.812852868842423 4.716273251421027
Mg 8.741976470991286 11.98640406966741 10.886059678604834
Mg 10.256928771686274 11.619287914071789 8.416415690994294
Mg 10.549619561821748 9.549467435192234 10.650946943871457
Mg 10.722613876112595 8.883002484671279 7.432161935715757
Mg 11.796328744114549 6.984524131201065 9.538024111775718
Mg 12.885211692454043 4.394082237608388 8.48694140230771
Mg 11.684536309913348 6.2158150627528554 6.415395086490618
