41
Energy = -39.31386668 eV
Mg 8.81897084385391 2.17003805087677 10.076092606756363
Mg 8.656440636675974 3.402725872335116 7.327853568406643
Mg 5.65552137994185 4.726003417366522 6.747404256333228
Mg 6.196883924531652 3.070975790975355 9.202736572235036
Mg 8.371390262905107 5.427493942826014 5.163604400297707
Mg 7.636976095110824 4.761340950240214 11.302556865022655
Mg 10.365595065264817 4.684399016944038 9.780092452347578
Mg 10.802663022190691 5.656354442668037 6.90526892375921
Mg 8.029429143972905 5.7653117549996535 2.1181030198024122
Mg 5.267171801724455 7.027539840955832 2.590930739633801
Mg 8.012267208216585 6.177782534849661 8.497442074963505
Mg 3.576651005731385 7.020977013168191 7.4723687069804345
Mg 6.233143346703658 7.577051102968482 5.589632577847387
Mg 10.787263045105478 6.949584123286896 4.088299941051162
Mg 5.140817725265675 5.795835644302189 9.717083985759963
Mg 5.931903920980238 4.302896040650197 3.7368694504744777
Mg 3.4735514550140443 5.652000516589342 4.708686011824729
Mg 6.874108887585895 7.6917556802845395 11.322582028884772
Mg 9.779180960764679 6.988691805141142 11.839395810775125
Mg 11.508539891657222 7.413885030216346 9.284140956123954
Mg 9.089696911715468 8.271142313234693 6.606978465513932
Mg 9.02767029729303 9.13263523577084 9.597446279580344
Mg 5.694875824241436 10.261242795162003 12.267344067148455
Mg 5.691394280349319 9.797444818531307 3.5296293643275605
Mg 6.2621551580467125 8.620273014291769 8.421387955261968
Mg 3.880961145609142 8.542948970827759 10.344357455406984
Mg 8.34460106060672 8.476795846178872 3.251715477324925
Mg 12.287187029085556 8.42464740872017 6.509893371816128
Mg 3.2758972548343603 8.620548727753457 4.896099878048327
Mg 8.87861939988728 9.820602771041385 12.690149729559293
Mg 11.735790878436157 9.278983176181546 11.80572909815009
Mg 8.127297365398052 10.79815613173149 5.203730563073561
Mg 12.787959017195819 10.120867665895325 9.164148268898646
Mg 10.892698386350785 9.907127717448915 4.338274433817901
Mg 5.261637847043339 10.660474145670344 6.382574552101956
Mg 7.731495484266815 11.476265080682277 8.091959328348311
Mg 7.656845126617469 12.004938043627716 11.041574444586459
Mg 10.624994847743162 10.951965854714112 7.218950935671711
Mg 2.7672018044406173 9.848845253448188 7.858536065490914
Mg 4.981764304869645 11.298505836696433 9.456025660034305
Mg 10.501331523530755 11.676729725010366 10.29308853552065
