49
Energy = -49.21453302 eV
Mg 6.218932368573164 8.031322391942785 1.2713980019954536
Mg 8.81016762782101 6.067310534621234 1.360955202451859
Mg 5.996570880569495 5.25961301271952 0.10613727604310445
Mg 7.720787437949791 3.2741940406982084 1.3435123524207397
Mg 8.899897452850869 8.850090027598258 2.391954361241129
Mg 3.807683436778601 9.210420757648013 2.7005268995385068
Mg 3.656427756572021 6.340718330592036 1.9899276804522277
Mg 6.4253385863117805 5.59087039066182 3.259598794740928
Mg 4.656759132421448 3.428657616156034 2.1865291501903332
Mg 10.676369625815491 7.042832351897443 3.9467712796500463
Mg 6.553704498839441 9.460610054637565 4.049207160786747
Mg 9.32972306380974 4.293983084893626 3.8223837019831866
Mg 6.930764023032895 2.3513699756130406 4.131903902974086
Mg 9.283572870076314 9.531028911524816 5.363188555895423
Mg 1.7991373517625822 7.767097185032222 4.516095517429391
Mg 4.092008086054927 10.3014944955382 5.474186621846829
Mg 4.664883301055903 7.2081895718624605 5.183845672675799
Mg 10.688376683227649 5.427452567544223 6.485667813387286
Mg 2.781519965860647 4.7503848761343646 4.461620316068985
Mg 8.552200876898436 3.17451503716294 6.5620820114890135
Mg 5.605480882420955 4.474600612078829 6.02188900201427
Mg 7.872460611447913 6.664655395721792 5.578280799241849
Mg 7.004332012159025 11.122022666597505 6.6457566676188184
Mg 3.9558326375059885 1.8948641039527991 4.694052165344984
Mg 9.773769677351405 10.738132834748177 8.114675435731822
Mg 6.042221080056801 8.378527227418394 7.566944516067183
Mg 2.847355219286063 3.185333150850642 7.120834318121102
Mg 5.796960373462779 1.6856867838719878 7.108986035135602
Mg 7.216038815833601 5.385940502334752 8.42890392726314
Mg 1.3181802676760206 5.930973129345526 6.97313329904342
Mg 4.4152068634429655 11.023937262661715 8.30927093939445
Mg 4.184054169229464 6.109356935885375 8.178428849609952
Mg 9.004512905126772 7.766068420214371 8.136351383566337
Mg 10.112272494155082 4.022064219634304 9.058213455522068
Mg 11.70654884778734 8.358435451542352 6.648520355215482
Mg 2.6397431332094543 8.686641280985885 7.440212426732719
Mg 7.082240457294443 10.407710068137463 9.706249563338094
Mg 12.32838559500691 9.613698958115659 9.28649219825437
Mg 7.605307529120996 2.416409188279816 9.365468911718107
Mg 6.7639644007474375 7.54095555839827 10.726426938468274
Mg 4.761012328025172 3.3421790719490234 9.490596800521576
Mg 1.817896165741756 4.3347203766293525 9.679467701990427
Mg 1.59281880776 7.199842847861798 9.844427456332912
Mg 4.124888010641331 8.821984129750307 10.216561162937454
Mg 9.360981060717963 6.065604141295159 11.048896254942077
Mg 4.036637077336864 5.898678663901214 11.27774032757394
Mg 9.712342790951928 9.055064670608013 10.745844916399575
Mg 11.666271561856318 6.680011041704475 9.226663689032517
Mg 6.790793919898025 4.517080812578159 11.436552951138333
