40
Energy = -38.20065462 eV
Mg 2.687970215792518 7.956400173249496 8.547181953597661
Mg 7.273523499081636 8.584845817742893 10.391750613586643
Mg 4.933363071131341 6.605340068341321 10.26005080890521
Mg 3.2160976369763983 4.901394278343575 8.468576168823283
Mg 4.446700403542034 9.613732648936924 10.393246051256687
Mg 2.8128574375171773 6.543035823855752 5.917879238140249
Mg 7.683604949387301 5.7887856665485575 11.609273280016936
Mg 10.115399794907592 7.506209432133075 9.95874557534757
Mg 5.77828817489301 3.8070450324276894 9.609529370681127
Mg 3.0659279493515625 10.930068100372225 8.192018066234436
Mg 8.629366023122575 9.122564505562266 7.787731742191601
Mg 5.627165863991598 7.830478501911405 7.454159940002094
Mg 7.82856929454763 6.01033696867902 8.517433312404343
Mg 2.5038610955695177 3.5556192484322096 5.850117906464594
Mg 5.59924279742606 4.97811720461341 6.5328166168554445
Mg 6.084125366709906 10.808859996397901 8.144709095428423
Mg 10.597454945013867 5.067506895823347 11.470402613779248
Mg 8.728088590055297 3.1374845579527517 10.273904618628887
Mg 6.864739513990434 1.072209872695512 9.018687544246939
Mg 3.842662048704623 9.456828698822136 5.6609539329016005
Mg 6.660205967038327 7.484867560843166 0.7840472268036848
Mg 10.910448467717803 7.415001731397523 3.848091588102525
Mg 8.621292921582757 5.943954075005477 2.6383992014363913
Mg 5.689933353298792 4.848334940691485 1.9820393836448145
Mg 8.341186296254396 8.8985529568044 2.8837722784837676
Mg 3.818238208672922 7.043273874367618 1.0171324217913975
Mg 10.192312915333565 4.829409217825457 5.396677471838848
Mg 10.997044592740657 7.38810189230414 6.912964227128842
Mg 7.447960866699455 3.8864000051801 4.39645908892419
Mg 5.09746465491618 9.44831914643261 2.571516698264993
Mg 9.970540012633059 9.783625420622563 5.256115180062812
Mg 5.45550509850646 6.9383589380813175 4.214809900005263
Mg 8.078607132305018 6.973134344087394 5.602544073966079
Mg 2.8199836495866464 5.120620107518237 3.1337310883102933
Mg 4.675819631374823 2.844829506376462 4.078343447711305
Mg 6.852473854325261 9.846737514286435 5.295717241859954
Mg 10.693707182178306 4.7570169645341185 8.470739345402276
Mg 8.189333154578948 3.2110227686006305 7.205375971371871
Mg 4.9197383848255765 2.0801475435890935 7.0598321137344655
Mg 2.365990867082269 8.098223881973787 3.3093194850253593
