40
Energy = -37.6059356 eV
Mg 5.522003933560256 2.05160445927929 2.4964966587495003
Mg 5.7868429370227705 5.112043814344478 2.213722790669366
Mg 7.925266639790903 3.121835976071059 3.825052255716617
Mg 3.692702898576116 6.846964606624145 3.8277289678415687
Mg 8.639869379274016 6.003956913388779 2.9638716726118477
Mg 6.390457733719167 8.054225169851208 3.228856290556594
Mg 3.425421950473799 3.8274894688743046 3.6668627594712304
Mg 9.304469636669086 8.801020583774065 4.097010412712486
Mg 10.793996972730364 3.7969545736179167 3.3884805072359687
Mg 11.559609023935009 6.608655421417926 4.335406111333466
Mg 4.160505694150142 9.792989052709007 4.662345244507754
Mg 7.014314884649288 10.795159070815854 4.608014043273999
Mg 5.342869197150382 2.2641811657555833 5.5198329760113385
Mg 1.1093313054430305 5.594815541046336 5.031836822646925
Mg 6.149060630049027 5.306596821510359 5.199607375761352
Mg 1.3826495250890072 8.522643874806208 5.011118546843575
Mg 11.448333658566515 3.6846749652538318 6.196160818198092
Mg 8.758333307269696 10.436216983970597 7.077044846338908
Mg 9.123188553873176 5.811911148846469 5.957348902901846
Mg 7.2188736541338026 8.050568778268639 6.163849921900795
Mg 11.28996520497565 8.97344324651878 6.266326304589299
Mg 3.494444306318609 4.538119608658343 6.603714455943845
Mg 4.44146041076222 7.517200897874357 6.792059532634073
Mg 1.5581223540985223 7.14200257009584 7.668115272886203
Mg 5.53142738699438 10.714260885777955 7.223246436643387
Mg 7.964205725597391 3.1581822658859733 6.935228789861161
Mg 2.290301570364892 10.244082004088458 7.197014857733385
Mg 12.19219037501522 6.370722944505668 7.302623098802955
Mg 6.736602211349788 5.747005110083667 8.182360472056706
Mg 6.786909337053226 8.746672760861976 9.14865729951519
Mg 5.251971601030402 2.95707829784186 8.550219356248276
Mg 10.003965593770998 4.75636466756291 8.72375067512005
Mg 3.702257892352845 8.829592884348076 9.462604110029483
Mg 3.826038120412383 5.652728525559279 9.33879587230615
Mg 9.514118176448605 7.7440712707338575 8.41786844323004
Mg 3.6376045070100624 12.026590939622439 9.329880976382128
Mg 7.886262594443054 3.0870976988099468 10.012030086751835
Mg 5.479696387772233 7.175840859974709 11.343772525788655
Mg 5.627313423823776 4.228576811353802 11.371818870687834
Mg 8.20511032128354 6.073926376619724 10.827333654509447
