44
Energy = -30.87336313 eV
Mg 8.108304027482419 8.136010092809258 1.3390279749913965
Mg 5.9014106412459695 6.250364316549145 0.6276037361854072
Mg 9.67446550621067 7.5244274989878575 3.813327922925272
Mg 8.417434876935749 5.172184932966422 2.2555959736291737
Mg 5.233969962654374 8.912477917652605 1.755333185162666
Mg 9.699797685691014 9.818178698393407 6.035503365938813
Mg 7.409587119028877 9.5872828192966 3.8590189885457336
Mg 11.6707168568001 9.451976797442136 8.211715340279383
Mg 10.866352423865429 7.014296514862266 6.703420352026207
Mg 11.334453105275397 6.6333483841461085 9.819235051842446
Mg 9.546481872175342 4.794929820976901 5.06930779753647
Mg 5.680913359675837 3.8221491806930286 2.278970060139891
Mg 6.301311593836665 6.579430869685714 3.8833702117795976
Mg 8.985741263780293 11.070064189436486 8.708717219683237
Mg 4.5386748328585815 9.056950298808665 4.679902598962457
Mg 9.160685120153166 4.8866951320218845 8.06545992156098
Mg 11.446638217740933 9.620684786345057 11.078402014905878
Mg 7.816133364164291 2.6094458464762607 3.975386528032072
Mg 7.77399667196641 7.344176374630535 6.373758004343204
Mg 3.415667358055816 6.503768809797649 2.5076079168714167
Mg 6.604067138058376 10.158001450920526 6.76985473280607
Mg 8.51607422637719 10.110106376623586 11.628095564997764
Mg 1.7761133633563357 4.600160115038615 6.836480624390373
Mg 2.0395902699381954 2.212390059496313 4.90141694534108
Mg 3.8268599884551224 4.894946902555821 9.046055910787343
Mg 4.1820976305838915 2.5218537377868007 7.211055500951379
Mg 1.0161344470493936 4.848596475807697 3.8999039897119303
Mg 4.036587806603562 7.759366174286453 10.24230445713364
Mg 1.8288380582370272 7.215156991128231 8.360342210971124
Mg 6.785958256595561 7.561614819416324 11.819660071283627
Mg 6.467062699054876 6.376775630710408 9.041267168710373
Mg 8.576545571208499 5.193066600889308 10.977088751761976
Mg 6.652058377965312 4.474361286247596 6.206864671069371
Mg 4.969078805055805 1.672988201002755 4.332615400266477
Mg 4.043075581127175 4.606934365321077 4.794261024227021
Mg 6.221689439806062 9.764086790025177 9.672775124490384
Mg 2.0940718132475538 7.281271628844681 5.298494014136395
Mg 6.563920920514345 3.304915612085489 9.148714029359247
Mg 9.756075571728575 7.526857341170225 12.349557047086492
Mg 7.004150629888917 1.444801018842369 6.737986112098401
Mg 4.701352826037653 6.783775407636048 6.735261802445983
Mg 2.7617985466251684 3.3114184957139425 2.1132744963635024
Mg 3.7235876427037238 9.502692749434594 7.722489302997113
Mg 8.89205966443517 8.106603621288972 9.135102015522762
