47
Energy = -46.09904106 eV
Mg 9.007012822705201 4.365088237475934 3.657358113420151
Mg 6.276069636415199 5.404814713139932 2.295732610843905
Mg 6.4078870382956765 4.804805395967142 8.45569607192709
Mg 10.558094337344114 7.222425058202878 2.7620423068205007
Mg 8.14821560009153 7.060382452173941 7.170829608418501
Mg 9.06412544290474 4.167881469899988 6.801208414691056
Mg 4.8610468880564435 7.5142290097061535 4.115765346989727
Mg 4.746343812694679 2.7023695206077356 6.766981283891823
Mg 3.247461096877362 9.525315075618387 5.917611080676214
Mg 10.423156590811926 6.726863072856733 2.265041712602189
Mg 0.573928550033978 4.487756616617763 7.151054355528932
Mg 1.9184626509696194 2.339375474952524 5.232548253772241
Mg 1.6914633733450977 7.488502301770847 4.162659504910854
Mg 4.678564672909431 7.792843467985708 0.8808126925159904
Mg 9.654464676330766 9.601685898682224 2.4562236821862182
Mg 0.29548756621256217 5.147417014418843 0.9662237283069515
Mg 4.59282313413732 3.3299966162170924 0.6089002454578554
Mg 1.44994405861329 7.9198485900095825 1.004989823067744
Mg 6.33759275302084 5.096346782251712 5.35641445602783
Mg 7.937786340218769 7.645498502020724 0.7133800573311361
Mg 2.9587114362640246 5.643011175183772 10.994281030309311
Mg 3.1768418496526065 5.523342862046032 2.4604868528452233
Mg 1.6818240698914824 7.347980360254989 7.3618690527590545
Mg 10.656309723354262 6.796313735809468 5.849887697389187
Mg 7.277812288007887 2.457006275916013 2.0193917097652814
Mg 7.904611695676574 7.35464906647272 3.97023233774588
Mg 10.55809433734411 6.395466601183413 5.365102114464408
Mg 6.623537936298219 9.363380542056692 5.978189097237
Mg 0.3308234944871455 4.693110817446199 4.024736119448838
Mg 8.203770363248573 11.383129150761139 4.289728188230962
Mg 0.12313862515715313 9.56715477723072 5.806677688946831
Mg 6.4701224209525146 9.652426739213848 2.4525947601335076
Mg 9.809289191062234 9.256237519096135 5.558559904105522
Mg 4.917518330867551 7.2392848364409605 7.329598780532225
Mg 0.1276649517527244 9.987681083219494 2.841651105826058
Mg 6.04019841578471 5.6564280836686 10.768938811298526
Mg 3.309042444802032 4.8997983600473844 8.58974986151714
Mg 5.085782352784695 11.461422601552155 4.441502358510222
Mg 7.3803702143272 2.1539774203928017 5.036111019106629
Mg 7.464921907420781 2.010720483983411 8.067569338289577
Mg 1.8408761460990286 2.8156478333918606 2.180271356262873
Mg 8.89320025501275 4.761845129495491 0.5289467533461388
Mg 3.1776568042057414 9.816274999757953 2.7212348699589777
Mg 2.1132116314480234 2.1309524052398365 8.225490115856076
Mg 3.206689830394723 5.201616324018268 5.513976917762599
Mg 4.6842189737211815 2.9521552796766573 3.6681827916247722
Mg 7.195136123436615 2.8996082617836954 10.595762647695532
