43
Energy = -40.27217014 eV
Mg 7.33985558881646 11.763387597966812 11.213407163805938
Mg 11.73831367786578 11.102065866697023 9.350608513210394
Mg 8.87977680565802 12.029001960662725 8.68647002287144
Mg 5.745636693740934 11.766851629002055 8.418887142813723
Mg 4.777115018231385 10.382743841191054 11.05004839628271
Mg 9.592705631037632 9.767883093550324 10.844659523142985
Mg 10.007949168150459 9.459316723167104 7.5032416239702515
Mg 7.1325683794352335 8.54844208488956 12.025314387562723
Mg 7.199384839591386 9.161034869819947 8.90535117675381
Mg 7.7228329716499875 10.860516407689678 6.135796738801642
Mg 4.63675641391106 10.489133137893841 5.978140431622616
Mg 11.874677463802234 8.005013343289562 9.332935137480849
Mg 4.137925569344899 8.914842953318402 8.54943440018385
Mg 4.261044276152706 7.5569770433318855 11.33980995335415
Mg 8.94587736225942 6.875213154551198 10.299230495424494
Mg 9.358031684529259 8.524329498854732 4.788200158776942
Mg 3.6992478732615592 8.9906891132568 3.7131650778822745
Mg 8.706268130267235 6.628494892651387 7.257101865417258
Mg 11.629720212148488 7.09593123282165 6.378617783628038
Mg 6.797711108386476 9.792509325776809 3.5168885129826113
Mg 6.479132110324886 5.486274273609171 11.526225792725587
Mg 10.86195401694465 5.104442671064648 8.856371892499668
Mg 6.193779361112637 7.911595433084467 5.8762418232094635
Mg 5.881665510158154 6.387318003312926 8.519236718621459
Mg 12.009058469455592 4.12614818266171 6.324487542843756
Mg 3.4273534580828384 4.78562263426654 11.819048390335944
Mg 2.8367903360070463 6.151565446557133 9.015193359087192
Mg 2.896877470518403 7.575196177835534 6.282131959353696
Mg 7.550084258110981 6.804648496614957 3.1512272231993066
Mg 5.21747202541257 7.770259751302886 1.5602774757146607
Mg 9.882954659101722 5.402090774370025 4.542381729826864
Mg 7.951533501993788 4.191824168364211 9.243935685970506
Mg 4.363238584890803 6.08641007953989 4.1090141466127825
Mg 6.782441739130164 4.995308635286867 5.526179998577019
Mg 4.903919668345942 3.6899237098364193 9.478734844706764
Mg 9.123398880970779 3.2618350168290813 6.636111477729848
Mg 3.8680217045012295 4.628505965334784 6.731376085560322
Mg 7.093943157703123 5.928866890789066 0.22153530588662979
Mg 5.699126062998214 4.245793705915749 2.245741708259172
Mg 8.764087450410024 4.290832341821359 2.0036324503410956
Mg 6.167831359800911 2.421304267433731 7.029376303021397
Mg 4.5293142344487105 2.7924121562560784 4.500906956380712
Mg 7.567916002259612 2.394084380575142 4.185480872270212
