41
Energy = -38.32597458 eV
Mg 9.12897155389162 6.561737347166834 2.393045136107394
Mg 3.4657036035351187 4.723034451286749 2.2866203934186244
Mg 6.299709374758689 5.663033440292291 2.0694413624347066
Mg 3.8034879876685057 7.770184909862512 2.621472207750724
Mg 6.7559236563623015 8.252841118142625 3.8120714678646372
Mg 8.677675771808744 3.599993681225445 2.956098984232545
Mg 10.975163327896553 5.486617419043626 4.5734643450260535
Mg 4.588863982482252 10.550363144517675 4.004632914338986
Mg 1.4927025773212248 6.054739205086352 3.9225896027215783
Mg 5.757133383585438 3.384343901968883 3.9762832162698936
Mg 9.724264468466899 8.198482606608355 4.9473852101121985
Mg 2.585539060711723 8.522453281960795 5.2962755307085185
Mg 7.88988327387411 10.58475738372456 5.445623335397723
Mg 4.7604112996721195 6.1161068245498775 5.0230156329897255
Mg 7.788791506991894 5.643846771279961 5.0602806197547565
Mg 7.921508999154743 2.1070132866838747 5.885647081255388
Mg 2.79228364834866 3.6071536221774583 5.119465571134526
Mg 10.739264863886183 2.5262233136649237 5.005690728845663
Mg 5.605460206422693 12.370354731990284 6.287170231106227
Mg 2.9359411974772396 11.235380909939893 6.770471912637002
Mg 10.054231129727915 9.851145623235478 7.552833606490551
Mg 9.66230397095558 4.557997722455511 7.236377542037356
Mg 11.440402533440944 7.094722764214072 7.209732847772375
Mg 4.986278540318393 6.610252766145896 7.863873823076865
Mg 6.530403382760377 4.296844125024878 7.378649269647172
Mg 5.463004539524101 9.153525684201327 6.583453537464197
Mg 7.936808824221585 7.445080129819874 7.534347976803936
Mg 4.862340948006585 1.702823513849017 6.269137171406025
Mg 3.6125286335376665 3.6369109768674446 8.223712639581139
Mg 2.1150137914579825 5.977411698932233 6.924948817795683
Mg 6.389212329197131 1.505805084138116 8.736429870938863
Mg 7.33128933108297 10.99019334227656 8.40424428481569
Mg 8.309338327470781 3.554816130039909 9.806357928292128
Mg 11.526790040643368 8.605754439024757 9.810789027311591
Mg 2.782045689484251 8.657120232096418 8.360966165583733
Mg 9.922644361425807 6.150735581930989 9.8713129281188
Mg 5.569545891419036 8.932370741095228 9.699106118011763
Mg 6.887236837740213 6.252391966004199 10.29949735725283
Mg 5.360943301733464 3.6136120991604668 10.712194915413022
Mg 3.516789910271447 6.067959242988593 10.27635991222866
Mg 8.561748631119398 8.893449475183289 10.298513465707293
