46
Energy = -45.03306936 eV
Mg 12.212170449462153 8.93349284160953 6.780696502938518
Mg 11.260930145578802 10.039814933432396 4.107572873327864
Mg 10.81066661405897 6.327163362517763 6.715805492577903
Mg 10.423588484192818 7.000332509210362 3.5272914884037427
Mg 11.51340544644317 4.350275103020342 4.439379403267611
Mg 9.820948091296497 3.467154993585841 6.713730199235195
Mg 10.309565310583816 11.31400368490953 6.832749484392228
Mg 11.579512980446614 7.418418371730697 9.745325323747219
Mg 12.024384539519698 10.46591373436714 9.315298924090461
Mg 8.878192327915393 9.535638083860137 2.353493735286018
Mg 9.03890354130644 5.4769939939567065 9.001484507032732
Mg 9.071517296245979 8.693948468885576 5.61911961321816
Mg 7.726521886162781 5.934426195746159 6.196897090771643
Mg 7.3320980807138225 7.096763103608395 3.2601173384587163
Mg 8.670051442101206 4.315911431099389 3.7286147049295644
Mg 9.340603632623184 11.811625763779313 9.649388388329708
Mg 10.21955017503859 9.685581576551211 11.524989624489898
Mg 7.278683728593636 11.012947698447242 7.578777130240266
Mg 8.209426284508 11.464583422964878 4.604158806369094
Mg 8.066954341029417 2.5370140429898953 9.012354466007244
Mg 9.273225495036781 8.761574896447843 8.531009342992748
Mg 8.632194447677394 7.281286273832441 11.366766669918668
Mg 6.197890900214111 8.814403541826294 5.663693250941972
Mg 5.375142198798746 11.908795007460053 5.42906584215829
Mg 6.566866540264719 7.517896242704941 8.574779885506528
Mg 7.088864079353235 4.652485285701101 11.213776799873067
Mg 7.083227456346987 2.6479570816662603 5.863934217430112
Mg 5.638363695298564 1.0552631138347452 7.9579257200844165
Mg 5.9536555263383155 10.153731212174993 2.936043583524558
Mg 7.075478708063887 9.872985384120978 10.510004194330318
Mg 4.307260912290407 7.334251503726824 3.3614045296719093
Mg 5.622093937961745 7.316963816279188 11.583408565244941
Mg 5.797810778413561 4.438476427179251 8.321623126145731
Mg 5.643458623064552 2.1047095418119386 10.748275420409728
Mg 4.63880290838922 6.4115323835890585 6.378521061901884
Mg 4.415201946931362 9.870177737360828 7.871454948281325
Mg 3.355151911168611 9.832046381048638 4.825532861640039
Mg 5.566971870503633 4.590675608051146 4.049273692840754
Mg 3.9875702801958117 4.7526650097136605 10.839209834086173
Mg 4.043052114187473 2.9731571532334176 6.176359507237615
Mg 3.53891556703823 7.3879228763998395 9.409344750851556
Mg 1.4000554447503921 7.691533616240876 3.8769354063297237
Mg 2.4228628182277525 5.093233491682418 4.737731799395493
Mg 3.2326906252134178 2.3799000288080294 9.053219629834635
Mg 2.4151316167369936 4.9951621476046695 7.907794507529369
Mg 2.0976900745106746 7.923865433093492 6.812809028315408
