47
Energy = -43.7690016 eV
Mg 8.315988309592404 2.0930047317256997 7.423256672508872
Mg 10.50195265007138 4.006858859762493 2.8635688258549896
Mg 10.322494393240039 3.5631298581890904 5.854972360997774
Mg 7.958147598209914 2.005844626514795 10.468218952374992
Mg 7.5318447221697316 4.119018236089018 2.4123352833400307
Mg 5.609594856120764 2.162333969494443 8.478203711420186
Mg 10.346781662018548 3.3947245563795265 9.17283176456242
Mg 7.17322340036603 4.036548478102918 5.451669601687731
Mg 4.778305524984105 4.035953827968124 3.366877179531945
Mg 11.666296978266564 6.619133914628627 2.1713315670712356
Mg 12.206215569259188 6.0763648534187595 5.065420290059239
Mg 4.241190623700423 3.4197821184429658 6.306898305006961
Mg 11.944162413315379 5.514953128040482 7.962530624792193
Mg 2.004108892469756 4.207525994259648 4.54441836927799
Mg 5.5154699402271765 4.098483956010786 10.705091095037893
Mg 8.725058992716956 6.741894411799352 1.5616296173306938
Mg 6.004270778381099 5.461209871353758 7.998416660545388
Mg 9.220372699707944 6.264682342911826 4.532735310945563
Mg 8.241820421049725 5.203660993311996 10.489528346413083
Mg 6.35782794181494 6.61251295303889 3.7018381838744108
Mg 3.3186671179883187 6.8508975739325555 3.966647082092323
Mg 3.114919846605559 6.223531868183256 6.909939457680853
Mg 8.890110561602896 5.600286931576261 7.565496170081122
Mg 3.774521635819258 6.414537242859764 9.844251756120023
Mg 10.59552920318774 8.103951646750211 6.82697981056001
Mg 7.6029267679615264 8.016702683158574 6.4033845370018625
Mg 10.316785667025954 7.5179163339814785 9.78978190064636
Mg 6.021014518352807 6.66934094321136 12.13963347238154
Mg 8.962753086626135 7.3638427025140185 12.434318487141526
Mg 10.908812928557923 8.892675425272008 3.9253951932164504
Mg 5.043826713242833 8.409382843846425 7.755833504396273
Mg 7.35652362157715 8.182143127361797 9.774185491235048
Mg 7.952543726771447 9.143607579732421 3.2735547154795106
Mg 5.260477674606631 9.123248520254558 4.674069215054964
Mg 2.466221541881267 9.070254485556095 5.702126143297322
Mg 9.311011750629408 10.756187958992639 5.593185861752306
Mg 2.1939969313722343 8.780232586505168 8.801565856628036
Mg 9.344456874137418 10.24666212393159 8.580402701303305
Mg 4.616428100517573 9.106361039269368 10.798317957600114
Mg 9.460309592649654 10.25060917247406 11.559750888242124
Mg 6.880774881793417 9.533832554486105 12.781605528938375
Mg 6.738124022685166 10.875850379606296 7.173141342687748
Mg 6.78061903782258 11.77964510910439 4.205514806161728
Mg 4.177249019324916 11.702055444885444 5.720784113267754
Mg 6.800122195925748 11.207425860019214 10.234516234735182
Mg 4.171046468063564 11.29152823133654 8.762533283625487
Mg 1.5145064524902814 11.470616566010525 7.255736735463961
