47
Energy = -45.99092681 eV
Mg 7.613598813959308 4.311300370596039 2.851377031148483
Mg 6.825564687303704 6.945447914805135 1.684045097627618
Mg 9.608570493904628 4.273562808138538 5.041732372736631
Mg 6.039285151446481 9.487799998240588 0.4016859775606113
Mg 4.0467730799482435 8.124667176763115 2.27383212325732
Mg 6.429912455072728 2.79960678206981 5.137664417754248
Mg 11.822269909289782 3.9700209666280037 7.281253363495284
Mg 8.32278960847489 9.637188808960627 2.427843337075403
Mg 9.00557082111087 6.973829863726095 3.8037805113184313
Mg 4.873793840055488 5.27807336243302 3.4571229531487764
Mg 2.58322805096198 6.789026866415151 4.7158389275876145
Mg 4.0616899704335205 4.568351026939546 6.299614252457564
Mg 3.4097179444695915 9.734994111366161 4.803679810490302
Mg 8.90075058339199 2.0763707924725483 6.849412854824725
Mg 5.564079302256524 10.941833972163046 2.9217277003345954
Mg 10.443886753319253 9.548445973557895 4.810907369562866
Mg 11.147994267080168 6.78989837256967 6.0497341361690795
Mg 4.208013464944744 5.697051144824024 9.452781863414154
Mg 6.903836640708207 5.817049012813898 5.863708079940881
Mg 1.738751592092648 6.012071356025634 7.575202696524893
Mg 6.447637203335585 3.8390150660082587 8.064339512042054
Mg 6.228999435194371 8.417183642488828 4.547166246405048
Mg 1.286772333899472 8.743240412082272 6.708007667736434
Mg 9.184740033230293 5.27500887311506 7.926858865406584
Mg 5.491100811911495 3.1200753926677116 10.848075992084919
Mg 7.972548911409434 11.240418033252215 5.013506058518158
Mg 2.2995990042614283 8.258642107033946 9.450725334856806
Mg 7.618224396106237 1.4373394940567823 9.494410456763148
Mg 8.438010686499778 8.160835337575552 6.7521486236592265
Mg 3.4308982904019354 10.612637360836276 7.74011843612701
Mg 4.657301853136245 7.739063237009626 7.085057359833545
Mg 10.495623962792493 2.3438274379815907 9.353621805665213
Mg 5.11924159435464 12.093477455714135 5.677155429682555
Mg 13.12848953639426 6.621160394915465 8.343513385803709
Mg 6.238842478928129 5.714798030168184 12.085838828690209
Mg 7.00056069338811 6.915662837359583 9.157020758546462
Mg 6.617150493537113 10.402174157463785 7.6089031314971
Mg 12.420395836322937 9.374853951214451 7.219346597547522
Mg 8.425914556017512 4.201005077164539 10.703799338152209
Mg 11.309958431033042 5.206103436178958 10.2501990412813
Mg 3.9311867223251995 7.527800220223841 12.03640687190232
Mg 5.129256209709671 9.329627884542022 9.983222767950677
Mg 9.791111682913568 10.77018987288013 7.689650358457453
Mg 10.494710333954787 7.985004728443707 9.09741974803591
Mg 6.705749632544492 8.646203574180623 12.472859731391663
Mg 8.295341873718236 9.686416428507213 10.15125062667068
Mg 9.121651410411062 7.054017782425406 11.610539439555511
