48
Energy = -47.58196548 eV
Mg 13.291342400020582 7.06088906371306 5.635712133897098
Mg 10.664971145410808 8.321813672014917 4.836496342812413
Mg 13.375548745191837 6.225237364316433 8.514017930152306
Mg 11.256452915741272 5.317381149307853 3.9936557055294095
Mg 8.41973539664349 10.008825314535454 3.7951547872762017
Mg 13.142506571826113 4.235684586249573 6.23558870782286
Mg 11.714290521230014 8.62488472737322 7.79177805035746
Mg 8.485879341293703 6.682667238363646 3.466240970943467
Mg 7.477723388425305 12.751806812137742 5.595636392476791
Mg 10.431792029160604 6.008347785992501 6.928104667702764
Mg 11.467411371193844 3.882096436291789 8.860087892867865
Mg 10.503170955033546 2.9295314102147727 5.867594668844295
Mg 5.859844979413291 8.47249901711799 3.5962087554115416
Mg 9.35963598967778 10.372070652543682 6.6701311193181905
Mg 5.8909738261894145 11.492299408215535 3.165862250472487
Mg 8.780735323937574 3.562682674624323 3.2997981124115965
Mg 7.751354427518539 7.688874249032033 6.321835190508972
Mg 7.934046310999935 4.618467935069661 6.012874960393502
Mg 10.886309755347668 6.6129818571874335 10.231054816368445
Mg 4.379350478639307 12.837613103199864 5.210966520772968
Mg 5.364286186186643 13.08263007018357 7.958947213136109
Mg 5.603120703162052 5.612765195964037 4.323466635103228
Mg 7.664207160091724 11.536771479887024 8.862321235550755
Mg 6.2209396809010835 10.236292752027873 6.28105671495499
Mg 9.16606600951743 8.959719229296187 9.385993979747456
Mg 4.6225699201024515 7.791985843205287 6.468513586281521
Mg 2.9751384092876125 7.203480119177556 3.781746946315181
Mg 6.21097220296324 8.600821268384811 8.905699636039655
Mg 5.5286927071236285 5.2927013895660355 7.520719545064363
Mg 3.403001506609323 10.102433932204615 4.476731090977455
Mg 5.023458650059478 2.873064725454261 5.372351731447518
Mg 4.873720842885446 11.155833378642095 10.306695057871615
Mg 3.5048741884932353 10.691654804508246 7.496614815953308
Mg 7.745211776090823 7.176355939969869 11.612532655041878
Mg 7.757141469125101 1.5921408842533258 5.375821702883817
Mg 8.058599329222787 6.0175487252301005 8.865537841102103
Mg 7.493611792552066 10.217146281170333 11.6136802934491
Mg 6.055891231023847 1.593849013936602 7.8431552782846685
Mg 2.4030883562435377 5.996863787853049 8.53824559215205
Mg 9.230691195354156 4.229321981947836 11.06426692446113
Mg 8.737179935817402 2.7801579011402673 8.340242078898967
Mg 2.791727956345491 5.002056790929059 5.774709254697444
Mg 1.7751906131260171 8.150364905645604 6.487503265856889
Mg 3.5955505332659565 3.2786419116074397 8.36783161407764
Mg 3.1371165449412715 8.635368178192003 9.6349129469717
Mg 4.9004627455263465 6.204550761405061 10.372150833745085
Mg 5.059478206850263 8.696969479872836 12.05537479539673
Mg 6.354981325063312 3.5095465466322207 10.085394134010551
