48
Energy = -47.3951587 eV
Mg 9.710414340407944 6.875972497224 0.1415078707666144
Mg 6.893909302557661 6.238595665729801 13.024267925011108
Mg 8.798169537335863 3.947479327524941 0.9629375716866418
Mg 5.568050799544368 4.2555998172703235 1.6194252367779598
Mg 7.67216445118528 8.825954300844675 1.4194944427913587
Mg 11.214361426217316 5.485790122055851 2.1843658564905075
Mg 5.471042288963847 10.168179208093088 2.909922160137461
Mg 5.0137955100066 7.222538721202777 2.2101995693480814
Mg 10.121708896052969 8.193769907521045 3.1240782139959236
Mg 7.9969422577449665 5.929842424950276 2.8917291343227163
Mg 3.88445647090192 3.0980710876718676 3.834698277243645
Mg 2.542461268081516 5.834963589589352 3.993046616896642
Mg 7.058075814323242 2.9508491287623015 3.833824322501243
Mg 9.975417340195952 3.5747004881600195 4.1411001028204035
Mg 3.907675164011904 8.338618884249668 4.973895716046629
Mg 8.349707045001027 10.684015429428085 4.0484250258785615
Mg 9.650913029023313 8.642572226318482 6.19157771869528
Mg 5.70533698091454 10.670892447700968 5.966444027419398
Mg 11.301733924752723 6.260788507739201 5.136130081371706
Mg 7.009568572473854 8.129201908948893 4.545523124427159
Mg 5.557083788983158 5.500900265633484 4.726870852555629
Mg 2.40010503292568 3.937198509212662 6.3544569299012155
Mg 5.347088357388956 2.9730175254651754 6.516040920682923
Mg 8.386524852323722 5.65954770025419 5.869402586158878
Mg 8.418906492029738 11.147241558114771 7.071241485904514
Mg 8.357524245480214 2.5920724815546863 6.672274580631156
Mg 10.943099730111536 3.9599928245090323 7.1144159872778
Mg 3.7569856738962 9.188334232222788 7.865670490795005
Mg 1.5879334565948084 7.097057648002454 6.801332236720889
Mg 4.302579753635381 6.11367840618983 7.314047713250671
Mg 4.075899112000705 3.509171388333827 9.241433748395483
Mg 9.922103490935788 6.510128374544779 8.369965889757149
Mg 1.5656319986022957 5.085618849205215 9.042347919785772
Mg 6.795481646281162 8.00244193614611 7.48064495048514
Mg 6.722717864283358 2.0338791208024127 9.150792072232981
Mg 8.826672773902413 9.175335875044507 9.44989947332375
Mg 6.889181354967532 5.061541898740149 8.34621245079909
Mg 9.25433170475665 3.765631655776166 9.60921634189356
Mg 3.87223001498867 10.129206111118787 10.777644715702483
Mg 6.207969025332195 10.7268658754 9.066962390972964
Mg 2.082323120634487 7.813923278073479 10.029555064663114
Mg 3.34241512358554 5.329085378758342 11.63704650185214
Mg 6.346637877666129 4.092625403601879 11.275353134382986
Mg 5.210955700408187 7.1767605286708 9.994927859481221
Mg 8.179660756118642 6.562644198226626 10.894123923848065
Mg 6.644635804463995 9.20026658537556 11.738717651598964
Mg 3.5169183151256993 8.094894221321752 12.812575698758568
Mg 5.894152155117736 6.486196120951393 13.024267925011106
