48
Energy = -47.96121151 eV
Mg 10.925906869948388 8.647052304644303 10.195024876270226
Mg 12.276492798781153 8.983027653242452 7.574674968407511
Mg 9.963532141824631 10.984622643652097 7.9003005336476475
Mg 9.207467911850808 8.06163192459467 12.562252073901053
Mg 8.246805518022011 9.907324598065603 10.244542999253229
Mg 11.008881708241942 9.687175949752179 4.964673308808046
Mg 11.506147508838556 6.0991483432008415 8.521617919194082
Mg 11.926180961676593 6.685359181100123 5.597671268430811
Mg 8.078843304452834 10.349547921610165 5.46583980698345
Mg 6.891227863308244 11.58323439342224 8.034375972962863
Mg 11.194591877710868 3.7821286881384455 6.456826935395427
Mg 9.187232012991267 8.144941762256092 7.385937959179175
Mg 6.271251217510444 8.177543649232415 11.950357241750385
Mg 10.647397623696166 5.705309811870774 11.512270696889304
Mg 11.639768036399044 7.602949219207662 2.7109197244133454
Mg 5.339177254111027 10.7109444033845 10.549026773477587
Mg 9.095692782789895 9.432461610219107 2.5021842990264798
Mg 4.9938662513613306 10.400894471904687 5.802068221200137
Mg 9.827130708503981 3.764542850827907 9.252275454265462
Mg 3.4069496468115386 10.522691921086873 8.277110300498347
Mg 10.678499050637749 4.661678027137741 3.5368695661136
Mg 9.129977594261188 7.19998340467482 4.494123066068564
Mg 7.736824959763928 5.458293975849703 12.635477274084968
Mg 8.452641361445393 5.223303485699411 6.763123100041175
Mg 7.085954190204043 3.6073819733915964 10.298110065328073
Mg 6.389889616131792 7.3746294420193195 5.468226169570103
Mg 4.952260648551162 5.435603200215345 11.091519302876328
Mg 3.7808312176929744 8.080777873027268 10.176770185273861
Mg 9.308034220727356 6.44506433444646 1.403487889405169
Mg 1.7557857789402622 9.34307549825525 5.802419761925229
Mg 8.188995360822233 6.567083039428555 9.731274527670328
Mg 6.282277716121835 10.31521306630441 3.1094912402759025
Mg 6.249955574267134 8.647096846710504 8.282929491452018
Mg 3.740590835223195 7.485744893157876 6.867299290442448
Mg 8.778846837592976 2.6815881483503214 4.965205440767068
Mg 6.556101021704673 7.467737245997001 2.202113183643108
Mg 7.492679364668671 4.814236297004427 3.3177929987646864
Mg 4.600176901118256 3.030690638356139 8.516507481431507
Mg 2.6014860013204566 5.513213032175895 9.041252011333142
Mg 7.594731788338148 2.358683890145288 7.7314568737513
Mg 1.2098091827771045 8.427904979970682 8.67731148108214
Mg 4.540774572807853 5.518311264389877 3.698414439571245
Mg 3.9314093779992962 8.543530422158069 3.634245139308438
Mg 5.790675517009603 5.635276172169438 8.049289731286523
Mg 1.7802250915335966 6.6293301566130305 4.288814512387141
Mg 3.0272504007952814 4.460378507319685 6.224852300100408
Mg 5.889521583704076 3.5938885032884733 5.630267767728488
Mg 0.5401465278724679 6.2837776313647655 6.853653359527844
