48
Energy = -46.84142227 eV
Mg 6.842346540165417 9.101893818155522 0.6115123466347749
Mg 7.840646112016806 6.102310202547508 0.649065765291686
Mg 9.687943420083966 9.000563982436894 0.8172672236742846
Mg 4.91712013586909 6.93809118426604 1.6455863156785984
Mg 10.720201315459969 6.472366146217075 1.726736981540842
Mg 9.145991595805436 4.343892072588019 2.9233056912773057
Mg 5.461061354673199 9.58458677599495 3.246644635191703
Mg 2.8024575028983283 8.074843731023092 3.4434588647190565
Mg 8.31609809555823 10.636241934899322 3.0116014153889443
Mg 6.093051380200749 4.5598716187052055 2.9728497984106004
Mg 7.901381611336654 7.447548896314509 3.256637339559164
Mg 3.0010754594094893 5.118532296083956 3.764873036170694
Mg 10.64961728632643 8.81206869727655 3.8303811998495276
Mg 11.174732450427326 5.918211496810019 4.707591259919293
Mg 5.342480978946466 6.808855704037551 4.913325320032909
Mg 7.483521410081101 2.7948225965231557 4.9110902497583
Mg 4.435307504030605 2.6279215129733626 4.797915295949736
Mg 6.558999243990057 11.736995358478008 5.252259997007285
Mg 8.140709682123124 5.684995216118282 5.690030509561605
Mg 4.062483938637167 9.581012417147198 5.818589711797766
Mg 10.375152993687534 3.104326581122108 5.58138726768647
Mg 2.606296947760772 7.013280422535274 6.380462133795007
Mg 9.661663904791972 10.829224020187286 5.911566560908551
Mg 7.327790024875698 8.835306393288812 5.882032299069566
Mg 5.624192765065441 4.439266227818069 7.019097138184493
Mg 6.353406902870367 0.8898677594497585 6.833668837835042
Mg 5.537825320298221 7.535131057669207 7.969883347544061
Mg 5.485811314874007 10.942681790770846 7.907514421270966
Mg 10.829534738047082 5.057282550379268 7.67509713533073
Mg 2.4881145223368515 4.059790588284915 6.785014595361318
Mg 10.17965523968881 7.927582608692386 6.764130616610112
Mg 3.5647456868711225 1.299114084798171 7.438103131174166
Mg 3.1658371470304094 9.113120281684347 8.875804112288098
Mg 8.403667144825677 3.1402545579476593 7.949101994659604
Mg 8.175379916219658 6.156703409583851 8.620182297379667
Mg 8.240038080010985 9.322683112104608 8.786150359672382
Mg 8.097169839781767 12.257879285725155 7.945817042564409
Mg 2.447154691778554 6.143050046093992 9.23467455301943
Mg 5.318234778728892 5.208679416267478 9.907043893692013
Mg 5.959501541681197 2.0926108807803976 9.47938115068954
Mg 5.813233596332097 9.912947411223524 10.62298142204531
Mg 3.0224153377321192 3.125611567308307 9.716121197761721
Mg 7.272744347561892 7.393488452288049 11.171227800666435
Mg 7.82426676295594 4.096497747883635 11.004924231871138
Mg 4.096052684311671 7.663047236683685 11.384774319983498
Mg 2.976989077951227 4.9368837280054825 12.175413419751358
Mg 5.025160163084158 2.8291948328190073 12.203222193865884
Mg 5.791745391279254 5.569876170479159 13.02550744837633
