40
Energy = -37.94315948 eV
Mg 2.8399612694909924 9.24913663134919 8.939752451171916
Mg 4.538729045730784 5.763644144309454 5.357617548260726
Mg 7.645875825653282 11.095991192298005 5.765910809023585
Mg 3.912907563111287 8.232263025151765 3.064516992845323
Mg 3.1100436303036028 4.455499789644203 9.759358860380138
Mg 7.291103531036397 4.930217003778642 5.356087605373366
Mg 8.081904783762202 2.612410347265348 7.316757772008274
Mg 1.7224396077351023 6.072884186440212 4.428260069586785
Mg 6.753974062322748 8.09661996934307 5.575466009345097
Mg 11.335770789085537 6.388936079373456 7.466227686133244
Mg 8.269302637244952 6.352904234640481 7.832420288787995
Mg 5.242681758224992 7.2382905769276675 8.070147861285381
Mg 8.149681096061856 4.302822584264895 10.135258410057043
Mg 3.3064294904200575 8.596268728002464 5.967089244720988
Mg 8.146294084276846 7.392508514155102 11.069853745686245
Mg 10.738670102526601 5.867307979574228 10.519197520742113
Mg 2.7942082531740744 3.613184176113699 6.887281525908748
Mg 5.214511711737886 10.370873283696984 7.533950600278784
Mg 8.079089830830293 2.112694143108267 4.250743616780269
Mg 6.775487461987241 9.559856334503237 2.6511161902921896
Mg 5.374541386113593 8.939034020994251 10.62621181593135
Mg 5.759276795929884 3.52501579441402 2.828751653263764
Mg 9.45265799263341 9.752967888486241 3.8233823085075964
Mg 9.62109991582591 6.846739388244933 4.806439992060968
Mg 5.349208743191578 2.4249288792197627 5.64622545071636
Mg 7.704428790092799 9.294707649321351 8.676967954486898
Mg 5.599118920310448 5.814938948426903 10.89848017691251
Mg 4.9087533584950265 10.77634884179811 4.5791802508184505
Mg 6.306416896384249 6.4595530624884265 2.704814003276516
Mg 3.4724132400586156 5.480985583715032 2.070544775501917
Mg 8.992083004772187 7.466743763990297 1.86481587721418
Mg 2.924870827906305 3.274258686140683 3.8968821105536398
Mg 5.684316909497827 4.263543665596846 8.082612984894254
Mg 10.595429657993302 3.646733034757772 8.543704306423633
Mg 2.1156365754353224 6.462018279367186 7.713508248450476
Mg 8.773748564863503 4.55414514790091 2.599598044590456
Mg 2.9364429657291984 7.141271519414383 10.925696625642374
Mg 9.878232612243679 9.151025282959415 6.696853781567185
Mg 10.558806490329415 8.567478401405463 9.59471516155397
Mg 10.196603076413199 4.006402496353517 5.626752927899878
