49
Energy = -48.0935878 eV
Mg 4.26695817177378 5.667696281673043 1.7805402238366066
Mg 1.6793209108610292 4.177233559741416 2.336956249437099
Mg 6.943920060580906 7.227728980207909 1.4015188774079608
Mg 7.55523033677054 9.51232296928841 3.1386055288220884
Mg 4.843604542111177 8.332515805810724 3.424122369321825
Mg 6.993539123572251 4.248765905480996 1.5232797058159881
Mg 9.141758906196227 6.266427112858512 3.1759719364898684
Mg 2.2101436886507786 6.814344650387413 3.750469807457244
Mg 4.373882862225314 2.6533477818689724 2.512960162232715
Mg 10.380392136842646 8.955952645010537 3.884816556811873
Mg 8.799382900870445 10.845000194626286 5.63405369485832
Mg 5.7631486020553515 10.15398329025563 5.735194632826597
Mg 1.8875008729487623 1.852573307576019 4.168725029522722
Mg 0.539946140933199 4.4914397910184185 5.095710496323972
Mg 6.259442383581885 5.664988295638262 4.185649455304351
Mg 8.827808486627042 4.386185721052397 5.6424216773372935
Mg 3.7229850102448747 4.381355724232952 5.062061291784651
Mg 2.6923673622670004 9.549909105668318 5.481114883899076
Mg 7.72662090600641 7.73716236077506 5.68827497609719
Mg 6.935318699153115 2.669960140498938 4.049371470628776
Mg 12.82810545797504 7.916121590006779 8.0082464070744
Mg 0.26787233959455425 7.601980963109289 5.783488564131853
Mg 4.580296918065047 1.3626651051741803 5.3809994993742425
Mg 11.755332402096467 10.142570238959895 6.287836296258805
Mg 10.763700511098756 6.798732980914703 5.98470682582672
Mg 2.2040651357323546 2.673350171113456 7.0890061842004615
Mg 4.437190932280238 7.2162771898550515 6.320102156030922
Mg 4.706596270543572 1.5376234104831772 8.313356388802891
Mg 5.9499844202950865 4.667526918728073 7.14365038372838
Mg 9.570472463900163 8.816356090739784 8.0516074385487
Mg 11.47832461490956 5.414800830458982 8.760015203310715
Mg 7.3947730697609355 1.8237668085536347 6.8842174812956065
Mg 1.9478177841845132 5.716284588037246 7.490665682026329
Mg 10.136258916653988 12.045458394361125 8.085572344552526
Mg 9.669160475562721 3.0593416772871924 8.396657564272456
Mg 12.313469799498362 10.453997725166 9.336925099528091
Mg 1.5137675377854358 8.778090626601825 8.17947125190928
Mg 7.254505159537523 10.994447159393527 8.44518662568586
Mg 4.148818057854772 10.148140289721848 8.266735153230233
Mg 8.489092746717828 5.985052246206943 8.183286279424639
Mg 3.7070890920242774 7.284232007333817 9.485510205809756
Mg 11.22104849224804 7.8259280319475995 10.644715597324057
Mg 3.8422391166915917 4.17956096341841 9.361434587039374
Mg 7.013727675198959 3.0411352466700095 9.723759272154265
Mg 9.659730162830694 10.582442734138997 10.660614386964333
Mg 9.310169835201075 5.032102679016554 10.880920806409403
Mg 6.386938945628998 8.110227622745834 8.431673079510992
Mg 6.19310704919952 5.776127697569094 10.436665033609165
Mg 8.244348329688473 7.958040205647659 10.842430992779668
