42
Energy = -38.75644271 eV
Mg 4.805329894263891 7.9878546918799005 1.9390881417497507
Mg 4.473391204988933 4.999132601014323 2.431370569601969
Mg 7.366398907236426 9.380465992356072 2.840064878772381
Mg 4.5127438200549195 9.821134682571833 4.381006833841687
Mg 6.429694575912191 12.03305891168986 4.116662792646616
Mg 6.96409012618755 6.325980125632663 3.477656644594525
Mg 4.181763029094088 6.892767856855841 4.860991305527831
Mg 6.524198441251122 3.235073321384727 3.953737037743821
Mg 3.768812753582684 3.90798842390368 5.172720287845274
Mg 9.594243852299323 7.689764018585985 4.2121222508752
Mg 6.873828086205158 8.35353966429888 5.869201050860919
Mg 9.041604388705112 10.545449155734103 4.99224027982126
Mg 3.860484829388595 8.613600604242952 7.30149937900081
Mg 5.550275178236626 10.984985509738994 6.94928660082425
Mg 7.850502111893553 12.864118569121967 6.673457258732148
Mg 9.028071296884267 4.6617791663695725 4.810262763994672
Mg 6.435479124260729 5.348712950374539 6.417396597685356
Mg 3.6585667866014173 5.677078257832046 7.595634496654072
Mg 5.000075393058515 1.259241421748704 5.891857393222708
Mg 2.2996101015875574 2.64036020785189 7.441382032717434
Mg 11.621182259222792 5.975075033122678 5.588798780396139
Mg 5.186282834634391 3.137109451863247 8.347524396903674
Mg 11.169337897912065 9.094736079539754 6.592613759140318
Mg 4.736127223315143 10.099474618305168 9.860833394257924
Mg 7.627067203496114 2.3588444226111087 6.729984430192048
Mg 10.614136612069355 11.90821150361283 7.192891301959513
Mg 6.445321127776568 7.513920117923465 8.869634534920312
Mg 10.138603252368993 3.631651429087335 7.423133577466623
Mg 9.14521108897569 6.746511617738987 7.390040158633724
Mg 3.433116170742489 7.358486089733149 10.060000453631925
Mg 12.411611248686029 7.231238326731054 8.397085181772209
Mg 8.373291296963167 9.960879510233344 7.999931228546796
Mg 2.783029400276851 4.250733422631463 10.11296203662124
Mg 7.739870517081737 4.506935321688856 9.080908488199524
Mg 6.806903649751216 12.232478394337075 9.412836268140614
Mg 5.512896868025853 8.11537580235327 12.149599446615287
Mg 10.504773286268312 5.375109342202723 9.857278677301785
Mg 12.923844039481262 4.421523086504008 7.842901592890527
Mg 7.747905101319905 9.709516607685499 10.942295539537405
Mg 10.143751160034286 8.41758522572538 9.873284904347381
Mg 5.485925120990128 5.197753787462579 10.888711020977905
Mg 8.10592948100058 6.526549230206854 11.303617897622404
