46
Energy = -44.99578725 eV
Mg 5.754280435316618 7.599915835181262 1.3510742645913827
Mg 6.11107609049339 5.057812556987709 3.0359269244624074
Mg 8.46156631767161 7.013390388707986 2.4005158066160783
Mg 7.360984714733212 9.971009908007748 2.3275790059466757
Mg 3.463258144114224 6.433106153283665 3.0534410786095503
Mg 4.06989719285536 9.58254296447732 2.779695403531071
Mg 9.07482668927645 4.056430566202638 3.2786901427809485
Mg 11.067576274379702 6.3220906604881755 3.5713647299707363
Mg 3.7295235842489407 3.572735950888101 4.355851513153905
Mg 5.591521667733845 11.718263721805437 4.164562707302061
Mg 10.058362429768762 9.1331159569111 3.84436890657724
Mg 6.585896030648916 2.469089070574525 4.523690415916371
Mg 6.333040822904042 8.109324971369793 4.50001602572694
Mg 1.7694909315683922 8.365364134050909 4.499625206531284
Mg 4.514092064557774 6.183967498350921 6.007817761939347
Mg 8.184873539070336 10.997451248698292 5.247519436408047
Mg 7.65128397377495 5.479224591679114 5.740695999800682
Mg 9.348830031174137 2.1129006430982122 5.529435285545354
Mg 3.422824321691526 10.497195693262228 5.720162451925176
Mg 10.73299785218088 4.726078927730034 6.035865302246254
Mg 1.4978327920437897 5.582435870979028 5.50440440068503
Mg 11.649183022986737 7.683742947389675 6.1632279202943225
Mg 4.330164917415941 1.1416761978308272 6.265920061660645
Mg 10.960191020062684 10.615237360506603 6.324514731493042
Mg 7.192486456243024 1.1126327470304878 7.327083407235337
Mg 2.1266470666784456 3.0138605093376785 6.7951411365010275
Mg 8.505966586139458 8.312376477727762 6.760570014716179
Mg 5.957525181912395 11.781414239114866 7.231569351234918
Mg 5.354582332957247 8.814552823424934 7.274799131640829
Mg 5.449172007624278 3.742501957425426 7.405985970780813
Mg 2.212564106558147 8.029125270684553 7.377356247958979
Mg 11.102139643980134 9.11987045571109 8.780441888697856
Mg 9.990587041004721 6.272901180988404 8.556325727114064
Mg 2.575699305753445 5.3280870318626 8.590112325242051
Mg 5.020768047171072 11.781414239114866 9.016666936761085
Mg 6.661576706128802 6.438792130235273 8.507500892472823
Mg 8.611716814101788 3.639509908717098 8.146135294912423
Mg 3.491712485854109 2.463548049162433 9.376147909418977
Mg 8.688188536520212 10.965114190040719 8.44949686556514
Mg 6.172916559876564 9.872416811141935 9.904612711493339
Mg 3.8748228573686943 7.702189315871674 9.869243980816927
Mg 8.687409553190525 8.288677061170418 10.323935512084757
Mg 4.864875958080994 4.904272488470799 10.654486271688489
Mg 6.580903667785988 2.431426023288453 10.039917941146118
Mg 8.067337478422937 5.092974648834542 10.841514028743607
Mg 6.212857572394207 7.408133712896257 11.671021796478415
