43
Energy = -40.2761811 eV
Mg 12.021401922956633 8.908748304973239 6.163983559156132
Mg 13.035451568970009 6.737187912656749 8.060770968936257
Mg 12.396346037712513 11.769640444543414 7.397853366403323
Mg 11.62600122082872 9.280662960312435 9.109989511342706
Mg 11.720115699392368 4.049071104053998 8.195497584292093
Mg 10.730197031933884 6.13164050731474 6.122309069168585
Mg 9.651851054291292 8.308270451626575 4.411392513671794
Mg 10.472727525418845 11.274465381777475 5.079857823215976
Mg 9.682771432026545 3.25689378064529 5.991169953709638
Mg 8.905774159602927 8.37463437318392 7.439092655334321
Mg 9.54372161689538 11.398565609915602 8.07967116732245
Mg 10.316252707890218 6.505201760198379 9.358312768260316
Mg 9.052945742498036 9.103152258672935 10.501772150768517
Mg 9.132015212398285 3.748111955784889 9.763591697615066
Mg 8.694009519049901 5.367055220583658 3.960903499242364
Mg 8.017460220147308 5.439618182059829 7.36700939134786
Mg 8.563425576548514 10.68615012390092 2.8370110665851875
Mg 6.784470166645976 7.661804855094587 5.29447644673787
Mg 7.734925092302753 7.694307564712287 2.2799808248691145
Mg 7.590716973967211 10.597151856082752 5.810558972522271
Mg 6.754197482938782 3.2266060475165403 5.13119989977144
Mg 7.556771806407093 2.115884413522868 7.920037343256037
Mg 4.8543166507319695 7.847448765588473 1.6539619690239404
Mg 5.689639751040198 10.015293963035816 3.586419082472095
Mg 7.774261784192603 6.286977420572572 10.950435971899072
Mg 6.821279710601012 10.4671631855896 8.793568922103622
Mg 6.064098642062423 7.456480928641664 8.521323772564243
Mg 6.122224768593554 4.3000174041609 9.50405631505682
Mg 4.734940399219143 9.974566629680261 6.523472946638309
Mg 4.661187634749939 2.506592102938373 7.370437148431135
Mg 3.7791723983179226 3.3373458691787525 4.607197279495054
Mg 5.017383886183453 5.471634909536142 6.422902817700436
Mg 5.631079308898615 5.468043593041114 3.3611502775972344
Mg 6.344854244402829 9.057302942456005 11.629250928882461
Mg 3.825839537258065 7.771918319637585 4.507448619411263
Mg 4.7652400491963025 6.527874041127491 11.15365753998346
Mg 4.058164255678942 9.566482808567898 9.63411356847687
Mg 3.29678442830346 4.800707440458429 8.880834989477071
Mg 3.1103926375681406 7.659015142136317 7.439843641240991
Mg 1.5946709353244102 3.0183706178645133 6.974150644056589
Mg 1.93325148032148 5.6822127687421204 5.412404820545398
Mg 2.0361462141809117 7.398962329357788 10.3044765212886
Mg 0.6982227532760126 5.9161394481532765 8.11386900502391
