45
Energy = -43.8773014 eV
Mg 9.83549418516744 2.424109283225486 5.0451149748252355
Mg 10.504592605992169 4.696757606267707 6.892159913442138
Mg 8.094931039304942 7.613757286528515 5.283104370824062
Mg 11.361783695525492 7.140083822534935 5.4936713921381335
Mg 9.449729271583656 5.254585490187021 3.896869684037946
Mg 7.552563836389544 2.943691984256864 3.199973551307099
Mg 8.77780945765436 2.3870417721107433 7.995242394288122
Mg 11.708316387083517 7.0548984650934585 8.586874140111073
Mg 9.717875313484878 4.538206232395679 9.841625490460698
Mg 7.15517677379321 1.334143098488306 5.625324246343187
Mg 10.19540846902785 9.331848099203105 3.7160681500191126
Mg 7.487424352431304 10.54468896662699 3.089928104408702
Mg 8.689385180464447 6.922639605019545 8.13363398508489
Mg 7.386154768910222 4.686463574253701 6.325208588072541
Mg 8.065626894709018 7.754527398353396 2.1939316598882237
Mg 10.19157584154665 9.42982690716717 6.986727515137162
Mg 6.259605727309132 5.566162014082369 3.5651197627618374
Mg 8.563134357967165 4.776797608544609 12.651604672855626
Mg 10.789676699120585 6.74127221529737 11.528846378067891
Mg 7.338235582797473 2.7054223821745356 10.807293425574173
Mg 5.759622235344877 2.2840917926074007 8.026356360630876
Mg 4.921615279233103 3.308185299522747 5.118651231077766
Mg 7.802535329274904 7.281516003346674 11.130328839749696
Mg 9.218439340591061 11.738846884983404 5.31916459706054
Mg 4.495492851742001 11.204812024346262 3.5121559661032835
Mg 5.602971648961012 5.1877860070857125 12.118553611105908
Mg 5.387633195040895 8.377729698051292 3.6470062334323936
Mg 4.284214480664354 2.9632868075569485 10.54378634886978
Mg 3.8820947181450434 4.628038130880135 7.732412121869316
Mg 6.582209069080744 10.127494575658604 6.079356506819245
Mg 6.539291920800378 5.138704089269895 9.200042198998263
Mg 3.614751556864764 6.137335649874132 5.106696283828315
Mg 10.073186564681231 9.205358381464617 10.0390373568971
Mg 5.693036960324574 7.257481405241338 7.1105371339917225
Mg 9.16059219995855 11.752369133624581 8.579411193870481
Mg 6.454021491844256 12.980280998136752 4.925007005757362
Mg 7.146887102680314 9.431191990503516 9.034373014445219
Mg 8.371309756062109 14.110520903967185 7.004236325956509
Mg 3.8862423911474733 12.144626328323252 6.269321923899981
Mg 2.889431418702304 5.528394811856136 10.503150196100192
Mg 2.6119310838236673 7.327985313575976 7.9995823245797855
Mg 3.196058569758331 9.188276094127772 5.596980035123129
Mg 6.184640500870837 12.366237717698539 8.169642324583444
Mg 4.935575236965497 7.6236097454568705 10.177882751399526
Mg 4.199070773769591 9.961366723863982 8.337334236458346
