41
Energy = -37.23095835 eV
Mg 5.607891979700715 9.865985650713393 3.2207547083463783
Mg 10.522004768919066 7.833595084225623 3.254967540226292
Mg 11.375246773611357 10.559795139281409 4.351114294878832
Mg 13.456296378258537 8.460369618096138 4.123373308123074
Mg 7.670043738160139 7.391640063537097 2.8761025131164795
Mg 8.537110852881774 10.2310415817228 3.6835040014648
Mg 4.593196113321718 7.0355771237224305 2.644068950769295
Mg 3.8908270126945754 10.499675564253032 5.599731562800646
Mg 9.32977299490477 5.19052421216658 4.528393137402257
Mg 6.494509758772491 4.879689295803453 3.979754416398925
Mg 8.819991792454863 8.035970397452486 5.902840834178488
Mg 12.182204217650296 6.0538640456974635 5.099408952998911
Mg 9.76718645786719 10.947102368715031 6.737201816535288
Mg 3.6543816090209975 5.043468834905361 4.739749338836276
Mg 11.875718654116136 8.613471226091459 6.750237119356435
Mg 5.6164584375976725 7.662175864140562 5.510802263169167
Mg 6.8223152353342265 10.505822749530017 6.140582627542161
Mg 2.564088370030718 7.969584368236067 4.849380162668381
Mg 8.772227037905154 2.934388539645158 6.997316579277543
Mg 4.980808097853065 11.062465198720943 8.434434485846317
Mg 11.4221021124811 3.427545469959711 5.998007678285321
Mg 7.942346065744862 11.057655372202658 9.00031078049768
Mg 7.367624051195616 5.613192764391619 6.950054677769187
Mg 3.5855786231791975 8.468605546036258 7.824202876264106
Mg 6.662932524032005 8.259616256159168 8.394036222483251
Mg 10.463966003646181 5.886648634967326 7.565193118923577
Mg 5.696782010744601 3.093414636743228 6.232305967255156
Mg 9.949041487463585 8.699585194613478 8.918820249927553
Mg 4.638271321760589 5.415595168221192 8.085608980045105
Mg 1.841016323045574 6.179597153505899 7.108257730395394
Mg 2.612397317175378 3.3537741724905135 6.852186875767135
Mg 6.9558656137789985 1.0442595799009018 8.170684695129761
Mg 6.348605553936642 11.444290605566263 11.463756571782412
Mg 8.649497012090924 6.172769639990342 9.803919227733614
Mg 4.69535398128845 9.101643993165887 10.68720572656323
Mg 7.873007000538445 8.799241041150719 11.259607197030062
Mg 6.915576277004503 3.786645773840177 9.493235020957597
Mg 6.0313645412290855 6.345245795365455 11.146543016334405
Mg 2.9859832871431204 6.765730415355554 10.238316277798624
Mg 4.32921792604397 2.1173841788136962 8.876105706397256
Mg 4.169618707076894 4.150363918515398 10.973577069962996
