51
Energy = -48.3508866 eV
Mg 11.315380130594026 6.516915348360552 4.151339624712699
Mg 10.404288284720803 9.328794085373328 4.954366837651181
Mg 7.748200468827855 10.710866316369222 4.417624122127509
Mg 8.369436385707996 7.405756408692596 3.7868165116862174
Mg 5.454270144616054 11.810540766790034 2.964329977864162
Mg 5.8855884488780275 8.81987153429969 2.8290003791572134
Mg 12.266199493112996 10.856956461079555 6.830123562740037
Mg 6.416456189454695 5.880644869284033 2.148198350910521
Mg 12.629293365855084 7.772129987579953 6.488383995029001
Mg 10.13769277624481 3.9276766332402246 4.56402331343168
Mg 13.066016338741282 9.164058835082805 9.225043477491226
Mg 7.148454037801217 4.151090501341306 4.485968359651647
Mg 8.710601671745696 1.4486396777289543 5.061561184333479
Mg 3.2664678765373165 10.174630393201047 1.8887209651432553
Mg 9.047307286188005 11.326750942375666 7.069459153244018
Mg 11.906291651985303 4.822978259191595 6.827401802579381
Mg 9.098381247902893 6.160296899735517 6.414357027688999
Mg 10.828586889353325 2.0797551939316476 7.130978436059657
Mg 7.470908104158527 8.659096527229186 6.660942886716311
Mg 3.9534788176156863 7.257773665125856 1.0762427487371624
Mg 4.6755259355904535 10.123822356309244 5.4173034060026914
Mg 10.189031118087074 8.660909728461034 7.968088451729579
Mg 5.596319806804892 6.715833606974299 5.120444362029687
Mg 10.91847422879877 11.357584779220982 9.529245091778016
Mg 11.721987193891241 6.417207981440007 9.31791962638737
Mg 2.895072131490283 8.08816351162402 3.900519795548341
Mg 9.564886547752023 4.377436850615011 8.7587489601975
Mg 3.5605609822510425 5.211124324735453 3.22928257006909
Mg 5.959749159988364 1.3315152304307905 5.870914698019256
Mg 10.556151443822262 8.60926235783717 11.002222906059133
Mg 4.9304574332894795 7.581122917085881 7.914276338557099
Mg 7.746524780061723 6.831845124570062 9.37557149952844
Mg 8.07985289267336 9.86308082569575 9.784701600788615
Mg 5.670937950964297 10.545282830802247 8.318386692635102
Mg 2.967500405619475 11.529554053334945 7.658667887799842
Mg 6.480744895180384 4.809002915827994 7.435039992025365
Mg 9.46963147975515 5.548940379097345 11.477510875190596
Mg 2.074145163540078 8.911404193741122 6.6321944398994335
Mg 7.957363835746908 2.01092687576132 8.043885133080016
Mg 2.722232740189863 6.074090269852077 6.0631149890598
Mg 4.143659703188503 3.527737808519854 5.56802518194888
Mg 7.291896217254463 3.571507101241887 10.532021091506653
Mg 5.012466263542388 2.3143396785278894 8.608958146448979
Mg 5.5397634518436405 8.249138133380994 10.98960386312627
Mg 8.083330728274973 8.091164056209704 12.465385418780617
Mg 3.2221457447174955 9.513716924463337 9.94169373714527
Mg 4.837151613906691 5.406941051552415 10.033829333688884
Mg 0.49393446414671605 9.616574466777896 9.03389969089482
Mg 2.0621153211006167 6.840916957974782 8.918998149144038
Mg 2.6861202331692704 4.025669882515213 8.257509344590947
Mg 6.449363500711395 5.605239765944921 12.618146134521766
