5
Energy = -1.14531584 eV
Mg 8.138343313554675 4.33875959833026 5.9379120272663775
Mg 8.138343313554675 7.5370644562024935 5.9379120272663775
Mg 5.097447091700346 8.524578440000003 5.9379120272663775
Mg 3.2179793244093324 5.9379120272663775 5.9379120272663775
Mg 5.097447091700346 3.351245614532753 5.9379120272663775
