52
Energy = -52.22628686 eV
Mg 9.288154849529409 6.872210277913884 12.716520114864007
Mg 8.663114999096516 8.8628280130826 2.311996644797757
Mg 1.9022801220193346 7.579964609811563 10.015700705044992
Mg 1.748109661249097 10.493815872647676 6.045561572398374
Mg 11.888460157650284 6.977021837289839 8.457076766959883
Mg 4.305992786647576 5.661239571956115 9.480641106768076
Mg 7.117058107418635 6.133380901232237 1.940228408171945
Mg 2.8566194249648955 4.188983759416427 4.801223212466974
Mg 2.1212191515403704 7.434857738246203 5.212136207533803
Mg 8.635533455843904 1.7781729723360142 9.483113435632509
Mg 6.736159113330474 7.577147306873422 8.065679713116507
Mg 9.496128282268664 8.968958923246293 8.142193449989415
Mg 8.829051924330608 11.432329076231877 9.722850636162505
Mg 5.244264115465463 3.8261097657280843 2.7578467208275703
Mg 11.93614344836081 9.404377194163105 6.3463543715735025
Mg 6.824327610592536 10.965575878329176 3.8275288158097758
Mg 11.446278407291281 8.681025165683716 3.454808511429985
Mg 7.704411112409186 8.904473962829195 10.954759570137472
Mg 5.763060721481958 8.879164904306993 1.8936330814947084
Mg 5.926956397129824 3.1408975947285342 10.488898359282278
Mg 10.623250538200717 3.941104519080642 8.561752414380148
Mg 7.741764893679665 11.152430209534376 6.6987247835459724
Mg 5.899911305225495 10.54385473513667 8.997908832731566
Mg 8.847750303092841 8.442967776568748 5.286640153702184
Mg 9.965778284734789 11.171293610233242 4.4867110711426195
Mg 3.6091092258945157 9.791847616095113 3.7943068629631274
Mg 6.574738319059106 6.066288869756613 11.383865252159861
Mg 4.314017725073865 6.618338409871115 3.345083952108221
Mg 10.676183319700542 11.902823058741543 7.3927572129055426
Mg 11.585463069013354 5.736744430472582 11.193506629734795
Mg 5.818398155019973 8.481362097858574 5.313275337994554
Mg 2.581704344221317 10.491654972175951 9.013870801673233
Mg 4.671134854774628 11.158342120861805 6.343126012749527
Mg 6.131289473418562 1.252312798745582 8.049995589647587
Mg 7.15426754015382 5.779310434556111 4.943004551639514
Mg 1.8453399106167372 5.615295676816857 7.602537007211578
Mg 5.784190813385498 2.8624594516589923 5.520943285690387
Mg 8.925264819477048 4.008141918249226 11.422882383037692
Mg 10.851453131473718 3.7468594748248703 5.163986386776221
Mg 7.120829251903651 4.468541759929627 8.041696003477403
Mg 4.697019670461452 5.772150652829492 6.447124376466628
Mg 9.461597500199547 5.974944138233151 6.739882567159932
Mg 3.839443694278947 8.327620989195758 7.570426468011805
Mg 12.073112055500257 6.506826039824385 5.448971320949106
Mg 8.695790881587369 2.2733705926929972 6.503744235613568
Mg 9.887270876268024 6.029066019415205 3.348753957437176
Mg 3.842961108531838 3.1457834333485692 7.869345165665294
Mg 4.706225519207846 8.439510135114704 10.642990265071072
Mg 0.4720415586242169 8.406609967730747 7.633289741488253
Mg 10.84174665788125 8.758338491599387 10.873970327735957
Mg 9.023583533253012 6.4055160422093955 9.606963203261316
Mg 8.2807481739398 3.358336482636526 3.597542153653521
