52
Energy = -50.29628264 eV
Mg 5.64926207636102 12.856390705533672 6.554262759378528
Mg 4.631139359924909 10.299729640898171 4.9094429155376
Mg 7.423912089068699 11.292108093559996 4.705480406653843
Mg 6.27763137227683 9.24304921106754 2.5141892316432313
Mg 1.883514163501869 9.1933116769044 5.688754267594431
Mg 0.4187017781994296 10.612427131526028 7.936594516291699
Mg 3.2330342064131745 11.447787664836518 7.304618252629385
Mg 5.281876918296548 11.710149627303029 9.64294851436947
Mg 3.732351667285812 7.639693766525603 3.8000857825558594
Mg 8.459203450583178 12.361193664601174 7.506972836311409
Mg 9.262282367440314 9.20209501310221 3.625905185706919
Mg 6.320274846261582 9.953787326145049 7.428220409892637
Mg 0.9582607882961588 7.6337439304616455 8.267040682534548
Mg 8.241666425005588 6.643945865594297 2.6900148018820076
Mg 6.6511731748714915 7.913319601463575 5.2253819765128355
Mg 3.9981430378798204 7.943064524372786 7.409916261917521
Mg 10.405848898554831 11.411632537509812 5.333154561193119
Mg 1.8126855019274126 6.072093987491705 5.890806311280844
Mg 5.588481788970335 5.527215291909578 2.752594998380738
Mg 8.0155192848885 10.579102524401419 9.917539481207342
Mg 2.675903662008308 9.861743083913224 9.863075550094027
Mg 5.511992266346136 8.69484961731557 10.133982769409092
Mg 2.7884061746503184 4.580765990363538 3.4515614978790086
Mg 9.221283484054556 9.185733687139784 7.276380240189772
Mg 4.8274329329262535 5.481330707160375 5.791126374614938
Mg 11.807070121101068 8.662988379221497 5.237604102310044
Mg 9.303641738006446 6.679282985287698 5.693411955926577
Mg 2.871532364787076 3.116004990309747 6.166188721462528
Mg 6.547417606705995 6.523146704733535 8.174413208620662
Mg 3.104630349039013 6.811008586443625 10.192041283404006
Mg 11.23521775138303 6.7664180412704376 2.987519420232875
Mg 5.424451760794747 2.9571060911356852 4.301493593984976
Mg 10.738314272628031 9.43056301314967 10.02175701369507
Mg 7.511424066089564 4.2704912328065 6.314214733500194
Mg 4.142991125396984 4.483061794859624 8.656478498414344
Mg 9.716846827445035 4.228017348057229 3.984902508928476
Mg 8.248592841166072 7.5910367033970205 10.447786382087294
Mg 12.190285784010145 10.413523719356967 7.5989685250911085
Mg 11.766926904806265 7.400986585343769 7.998277755690123
Mg 5.745387696755877 5.7136963799207106 11.12156412113861
Mg 9.325356447009895 5.5296651822074665 8.592520486410393
Mg 5.404703590866033 2.0148471023466503 7.258385502489685
Mg 12.10921291877979 5.423625716730082 5.769730157620833
Mg 8.21562016681151 1.732530460475839 4.720801784888773
Mg 11.129497673262964 6.600363546876165 10.88686677919448
Mg 6.938821101944985 3.60625799177001 9.43905750592366
Mg 10.375116300330985 3.2478835073523693 6.799035152083186
Mg 8.639855257441294 4.832655126453187 11.73795756537503
Mg 12.339069420676946 4.513266465347103 8.855638613726118
Mg 8.230444761771478 1.3984271439757001 7.689641822003735
Mg 9.851283419941486 2.7277952856723644 9.827069459084814
Mg 11.720312030015661 3.837996280227155 11.868182952346176
