52
Energy = -51.38036559 eV
Mg 8.754443922226905 9.426409038426087 2.9970293528569023
Mg 6.316142124800104 8.126923637932258 1.2398611398658408
Mg 6.193658877877047 10.89886337676098 2.4273607654262435
Mg 5.984955693247913 5.177396330344024 1.9183925259968897
Mg 3.129775138404958 4.19156381584106 2.196644438793918
Mg 8.382733180670531 3.144200932283128 2.913712538209542
Mg 8.692544919099685 6.469894253991603 2.3656793440731634
Mg 5.392382062966973 2.658812372380502 3.4351235331923564
Mg 3.486538857024667 7.425582376249179 2.3572120064411974
Mg 11.186128191964801 7.948219451836678 4.230039622198857
Mg 8.452876942165108 12.510894941191678 3.465191970773906
Mg 3.7211034611378513 10.223697130766627 3.865981088115008
Mg 2.61524046433313 2.9847053488625974 5.002129628454501
Mg 10.644682276882142 4.964555942033442 3.8904304567457784
Mg 7.580303029216171 10.17023609752568 5.793832531431196
Mg 7.341175060537655 1.5758936762670332 5.466113512740593
Mg 6.044904259136661 8.109098318067419 4.269395022187686
Mg 5.696681000949681 12.384153273444683 5.111800728757816
Mg 1.3779268106077236 5.694638516826261 3.996099887849041
Mg 10.480505158790114 10.903132740479718 5.159114992364627
Mg 4.4405091731671185 5.61087568426546 4.610002997637015
Mg 7.366681648743398 4.978700191717732 4.8916516938409575
Mg 9.76629885515245 3.157497951226001 6.032065586446527
Mg 5.253220618526871 3.5616304203322144 6.557703071767808
Mg 2.6614429600707386 8.01523527530012 5.504827811770614
Mg 8.678623283618014 7.454958992588136 5.746268269256555
Mg 2.386074867552189 5.376384552099951 6.919751143053937
Mg 8.457283493847573 13.274870960171562 6.250147189328242
Mg 4.525662116421083 10.003279668081527 6.85030314800409
Mg 11.109537744664586 5.845000093528951 6.729258297993241
Mg 6.66823228272627 11.686700875192237 8.221960126115674
Mg 9.718974898330416 11.345880631930422 8.096829687184666
Mg 5.386351564323554 1.0022757937358038 8.040262993660821
Mg 5.67995220051815 7.1074968707373625 7.158478074572495
Mg 11.091914062201429 8.810979736882175 7.332695329711425
Mg 2.7929795107784914 2.713980625125919 8.32219963880652
Mg 8.019966244560182 5.251287043803388 7.8876297661052766
Mg 8.213986534427404 2.105188927215647 8.420544769175981
Mg 8.163903594674405 8.792664453838167 8.521898724444638
Mg 5.215323155903514 4.789130224512045 9.241361046250018
Mg 1.932762481291572 5.278539169853088 9.854214338814403
Mg 2.9813496179127843 7.866430328759992 8.58556200137106
Mg 10.710816648019712 3.771989631209924 8.855422496712084
Mg 5.41259348003458 9.228885239795781 9.695722147803439
Mg 10.223973266130228 6.745576967020446 9.600351368780514
Mg 3.6535518290086335 0.7332055180569876 10.434083507800091
Mg 7.231054026005151 6.934963756648123 10.60586856759145
Mg 4.194581562922167 6.876799885010403 11.220125444217912
Mg 6.261850363347827 2.1769357871951875 10.80641297124735
Mg 3.5135441698283394 3.520401184311206 11.588077898124139
Mg 8.683909407886363 4.208496229783799 10.926723133055654
Mg 6.125759738717884 4.782252591911602 12.387818506233405
