51
Energy = -50.60076219 eV
Mg 2.1610013467884137 4.354719235875784 0.5143901987787788
Mg 4.866140358541685 5.55442318470678 1.0413432696747693
Mg 4.8946570694035945 8.439692824503163 2.2778052076926993
Mg 2.2546573239391634 7.235766104445264 1.1507304996296923
Mg 7.386497219151782 6.641893032072292 2.2704102885114317
Mg 9.87665241392531 7.826024587773252 3.216415217093471
Mg 6.913493789966135 3.614554385389909 2.187020132800509
Mg 7.473791943298641 9.877420215990966 3.1146587253652847
Mg 3.946568660061415 3.067381321193918 2.631578757783257
Mg 9.835939915594082 4.877294937934089 3.050318578510285
Mg 1.7101337811218575 5.159826914762133 3.368878915383021
Mg 4.475667686237298 10.369840046027834 4.572434501644547
Mg 4.580214628169012 5.847606657093834 4.152680820343197
Mg 2.3693024125450766 8.172633402395837 4.058004425546337
Mg 11.993000570278872 6.35481857017751 4.858994060046553
Mg 9.67444977398931 9.911177381647718 5.206199458724109
Mg 10.452750181872762 3.8275326641872334 5.909221717086998
Mg 4.1654956791502 8.142125825862431 6.750260790667727
Mg 8.859922586650523 2.1334788927007673 3.951762103809092
Mg 7.4663725232638125 4.817278098016809 5.077266890190115
Mg 2.0118114375091065 6.108652427135288 6.271487497261717
Mg 5.828175493926361 2.151399272170879 4.806367965431561
Mg 6.9806603535609435 10.803771284819552 6.178631046636963
Mg 6.722615534261792 7.826365487342732 5.118661223740957
Mg 3.225806229566127 3.3794594998934437 5.719601229030052
Mg 1.471754910548811 9.37034786820052 6.780646768047686
Mg 9.309504431850234 6.9334330786249785 6.295708045784184
Mg 9.442742806196348 10.272420466180398 8.109221493578957
Mg 8.051804328365572 2.2098575522527946 6.8851911486623765
Mg 7.973798858590615 5.115923640285433 8.415816301466023
Mg 5.297735552917549 5.433549032359775 7.165571728451729
Mg 5.1501929657366095 2.4175195348816794 7.8786587822130985
Mg 11.830863049107956 5.616160562619284 7.874583860214075
Mg 4.261977572936141 11.054094499117268 7.655292085924867
Mg 2.7680569734560962 4.351006373692549 8.685807990975723
Mg 6.914544885033964 8.133534896851051 8.219093777592956
Mg 11.852503798561871 8.54647441009765 7.003374705926208
Mg 1.1161985938135441 7.062251327829515 8.92961071487717
Mg 10.309817236375883 3.144708938421083 8.967038621773632
Mg 2.4021049537899524 9.632374396105293 9.556096703106913
Mg 6.916759951749967 11.558781489100769 9.091739201726766
Mg 9.833431391624432 7.481314464197594 9.360098619936347
Mg 7.463738714039602 2.2371262475645626 9.782570849874256
Mg 5.394224786011525 4.335811081211381 10.29862990517056
Mg 4.0469587739915855 6.971969254295284 9.739720853887667
Mg 5.2344040893214 9.613490462523181 10.559093790592298
Mg 11.261764517307993 5.2827713165730446 10.898181894728266
Mg 8.267416561202436 9.593865212490234 10.938028577723383
Mg 8.442069450034221 4.464343083383823 11.477517796704669
Mg 6.783160120970384 6.963428738283383 11.082788449584626
Mg 9.604978156074852 7.236592161121928 12.423080152475599
