50
Energy = -49.01653063 eV
Mg 2.284534044020581 7.853744159721927 3.051068876058662
Mg 4.972250352793 4.876209320489847 8.479464642284483
Mg 10.786370984263925 3.2585956866981767 7.060008236852026
Mg 11.512403188720375 3.1931917291663225 3.9946664873942352
Mg 5.802081294979749 6.820436505791281 11.105689475859943
Mg 3.425354840567455 7.268597591210235 7.594381890119726
Mg 8.198545747909671 1.9921013133565175 8.209045906395215
Mg 9.918497374886842 10.298090817367049 5.339006675134381
Mg 8.708014282056022 2.5552362479975144 5.0413852196567115
Mg 7.239089805452968 4.232821032618556 10.553838957140568
Mg 3.8728849459533006 3.055064123681747 3.9961721489507673
Mg 11.012872503802157 6.202720606355568 8.091375704506753
Mg 2.9506464845904095 10.253691202444976 7.448121909726591
Mg 9.856996904219557 8.019035096811319 3.1506820926264396
Mg 6.653592591786268 3.699068354973747 3.1895749890832628
Mg 5.914962181274551 2.608616856969351 6.237468581095964
Mg 4.8611058140268195 8.577821991742212 5.214214517271723
Mg 2.8741035536312682 6.261800753096006 10.47788008813475
Mg 12.849439804812295 5.143584035771245 5.834292088322347
Mg 2.65241336108288 10.425901032013439 1.4150100298618928
Mg 4.094463233869619 9.068087472625905 10.127617222257463
Mg 2.4868002676384435 10.654885043399858 4.45886836027319
Mg 1.297065765346196 5.248905020740178 7.882554384245891
Mg 8.776512525654086 6.854689008427381 10.158261147561026
Mg 9.726035090490884 8.935247996467156 8.118625767697434
Mg 5.245554684050135 11.45953290245626 8.819580874246766
Mg 10.103536718483916 4.034690572072098 9.928040042028101
Mg 2.510204327140425 5.5355976683077195 5.079952968588885
Mg 4.360461217809669 5.684425300510676 2.610558821937217
Mg 4.497660149873407 3.9622672932753122 11.654287571595132
Mg 5.092271148090612 8.664828769493685 2.0249920241612167
Mg 5.331103584357294 1.982411320816856 9.356923663760087
Mg 7.31247966289558 10.432507542800339 6.972151587672314
Mg 7.298319009399303 10.03644583536266 3.71864926598224
Mg 11.664878897900584 7.949230129044115 5.6455700503253965
Mg 8.756741431849013 1.5505832708078686 11.233189506840763
Mg 9.705584062071091 5.49872529075945 5.158534102219042
Mg 5.59920391216063 5.636519954926523 5.592532452095579
Mg 6.28614807573497 7.635350484423921 8.121829386469395
Mg 5.001799789416977 11.848833217518523 5.746469629393027
Mg 12.048772801665189 5.984590492038888 3.0966781781725023
Mg 1.2595227754135305 8.206320951304871 5.848951030436211
Mg 2.3985649035918892 3.1755302111285664 9.802875415440175
Mg 7.313982398534955 9.588437403999873 10.108893004846417
Mg 4.966960923992722 11.627622832188901 2.7810353001528365
Mg 7.963670474449365 5.001168612588162 7.575006051719734
Mg 7.155235919017325 6.696048785825525 3.0488338008881914
Mg 2.9911207449968145 2.9754772604878172 6.858606229742824
Mg 7.990756673914004 7.746849901816281 5.742668768281571
Mg 9.424433751997643 4.7338659787445 2.2499198571305206
