53
Energy = -52.16658426 eV
Mg 6.26820939071536 3.477524204860814 2.666046632066538
Mg 8.805631462559017 5.131965700359662 3.0175439214680098
Mg 10.79768183811151 7.130202454950075 4.116357845924474
Mg 8.16059250630996 8.283731728551663 3.021488036239424
Mg 10.490672508136562 4.526887969381585 5.80259683716364
Mg 8.387094645760136 2.71764175738604 4.858844258099719
Mg 5.79712558524832 6.458816088368204 3.349367354923119
Mg 5.100701392129046 9.427956792030294 2.90061396974299
Mg 3.411277066522479 4.513487555594697 3.646355681729673
Mg 12.599550822505662 9.303031630635724 5.243906767116606
Mg 10.100577927919396 1.8646754925441307 7.420898285312039
Mg 2.896336306154653 7.371288988311032 3.0439107058109816
Mg 10.126550654096478 10.43931703006919 3.985583271564976
Mg 5.658219399577033 3.8031453357632587 5.58649504731609
Mg 12.183177369049908 6.711620357318933 6.905665315738253
Mg 7.7831818815472245 6.154727684604704 5.724794820117305
Mg 1.4614543396124724 6.220607703340241 5.460600330052533
Mg 7.403700145175587 11.302908714553224 3.1002170183082214
Mg 6.525749805852816 8.948504606941125 5.609199429226953
Mg 11.583616151137896 4.14798147652517 8.852616889731026
Mg 7.845806390080212 3.8591521362899677 7.727182985862362
Mg 13.050849326349933 9.281404676085792 8.141635764757439
Mg 2.7417685423563865 3.5830634431176294 6.408018456381074
Mg 3.0305384983439416 9.392096836301738 5.152432988041703
Mg 4.4076116833825605 6.721178889715263 6.140406447586754
Mg 9.489541901660676 8.65620643471673 6.4543211657045445
Mg 5.167951304366152 11.673942965141842 5.164868149123646
Mg 5.0232752326238534 4.799003674619668 8.321404440712238
Mg 9.476467942083906 6.403139328849501 8.485026439130529
Mg 1.8190994703709318 8.256421821293946 7.634428334223855
Mg 3.2273073063721056 2.406806074328859 9.185448598906524
Mg 8.214049014805788 11.963694802147822 5.935192844625064
Mg 12.20214876840847 6.9801929488125785 9.970533198927546
Mg 9.274743734495946 2.641557081853499 10.246034468094253
Mg 2.0202669491734033 5.391750506334524 8.595532896282991
Mg 6.569240175072609 7.342429325078728 8.27203877599834
Mg 4.532098692521356 9.886922730651316 7.776303273209286
Mg 10.163372707366923 5.334359145495642 11.497622942900719
Mg 10.994772083635196 11.32367332359075 6.930673739703864
Mg 6.165858037147685 2.246074577988629 9.784693119679911
Mg 3.8654991514018167 7.523187484631635 9.699620272371089
Mg 7.237748304865383 5.023497135157714 10.535433078340127
Mg 10.362137795054444 9.398981700091202 9.30294883579506
Mg 7.595699467255953 10.124783137320122 8.392271932446569
Mg 4.193276998802517 4.5473118103539845 11.14561292092775
Mg 10.672562391098253 8.348192819175493 12.284587287980788
Mg 5.974799211341896 12.718568497305913 7.941104543964932
Mg 5.594267603350064 7.093709300371109 12.090677570926225
Mg 5.630147412016309 9.91420504286561 10.721217831684
Mg 9.022764851951303 12.743775965121657 8.902202464870431
Mg 8.13016485868439 7.902745376743257 10.806045404017457
Mg 8.639214509673492 10.80987076577367 11.440380263979794
Mg 6.6229296626485015 12.907893623173024 10.788217414012344
