50
Energy = -47.07160037 eV
Mg 10.006179585609319 4.640149784134744 11.307188655355828
Mg 10.781068529600223 2.714506624514898 9.17389502743672
Mg 7.308380894805775 4.185563518786532 12.525533614496947
Mg 8.654970437050652 6.838641044134541 13.343323389499057
Mg 7.727680292493199 3.04491071558583 9.462089365471648
Mg 10.235480080025692 7.642380921365368 10.734630661245314
Mg 9.797608895637369 3.505567723981287 6.349422694771492
Mg 7.110576057800071 2.0965468724570933 6.106181860942073
Mg 7.493385786282532 6.078509307970647 10.055172194633228
Mg 9.621070312357443 10.517099369211456 9.557928575625747
Mg 4.3091935842618225 5.782177494344033 8.07065236609267
Mg 11.136230927897135 5.285635103851691 0.8598208248199495
Mg 5.664749268030258 6.810337262616644 12.377225990218719
Mg 10.08241090162109 5.564461672713946 8.46011524857291
Mg 5.100584728997902 4.005735996817769 10.580145676704225
Mg 10.12936950904872 6.6115198317468895 5.666103050077158
Mg 7.592253137922252 9.014740956356635 11.279398944631778
Mg 11.234750278998694 8.297725919392475 8.008292054640375
Mg 11.685505702225509 7.218937794815363 3.009116081182624
Mg 12.139781546744649 9.058972250240389 5.269728599738634
Mg 3.429702236248547 11.072011895659655 8.38406701078582
Mg 3.0994147426273795 6.2231301886350145 10.817522045696998
Mg 4.942412239879561 2.817970438718407 7.853637931515451
Mg 9.066237643272238 0.7205824280795147 7.901159001848824
Mg 6.587985199953342 10.542091676080931 8.691042057302328
Mg 5.441414484945181 13.332907533858384 8.577644323153434
Mg 1.141133143839492 5.6894089205514495 8.516493762629723
Mg 4.997104375821854 11.77999194909145 5.980295401313914
Mg 8.155556332433383 8.05337138546777 7.861242743020719
Mg 9.943061459456603 10.629006137407268 6.518935707052108
Mg 2.425344442791031 3.9048724084270248 6.53235134696874
Mg 7.222871380908452 5.08719915177995 7.123775400072964
Mg 5.104902691861897 8.20709519677991 9.74517872906773
Mg 7.426808658379553 11.958636512786752 3.569374477323074
Mg 7.121106275518019 9.805269594232993 5.520902040311642
Mg 4.929912290815642 8.407152809120713 6.779579558026504
Mg 2.199805587743144 8.456048638472875 8.392067495691853
Mg 7.799578797792306 12.655484591453272 6.7547207844372155
Mg 10.592439729215913 4.386835878444863 3.603089154135183
Mg 9.463487907974551 9.220741616913706 3.837537034070273
Mg 2.347175436119553 6.841138949611247 5.836045201886558
Mg 7.195755797125135 6.965032955992023 4.819384677666796
Mg 2.5047017525031996 9.917866956116988 5.460034358831692
Mg 4.844519188097019 4.884205975271815 5.055336318594762
Mg 7.603429978323802 4.005369418126222 3.9107379032917624
Mg 4.62260260260112 10.705593407559503 3.2998611060323597
Mg 4.3162379638806945 7.76078434142033 3.8017832095075685
Mg 8.745524136827468 6.5310337982543 2.123213892293099
Mg 6.851513408952788 8.915147072842405 2.41262878583602
Mg 5.808380049655082 5.7943891431689725 2.1555804881570446
