51
Energy = -50.26915016 eV
Mg 5.793647193285602 5.210475525966424 14.014052649629845
Mg 4.446152273294913 7.128989889542523 12.197568230500336
Mg 3.184282664844191 9.29526423370273 10.50031533236929
Mg 7.674915577328996 7.093314882440989 12.617267578203329
Mg 2.233406138195446 11.401295057982423 8.56431013846337
Mg 6.2361682239681535 9.259053179439533 11.009366899090892
Mg 5.06588726857386 11.561329449644713 9.332320960058807
Mg 9.311833774764665 8.874072828950872 10.779116535768775
Mg 4.6943942572127035 4.136630858614883 11.365580546112314
Mg 7.789426583785295 4.114696971304645 12.094583781246238
Mg 8.039074197668876 11.457691794459683 10.007572332419194
Mg 3.2461058501348363 6.341660196898119 9.453263622437172
Mg 2.075432865911395 8.584531516859313 7.634542725508922
Mg 6.418122847604184 6.146272834417521 9.847356169653294
Mg 9.689223593994022 5.886184876540556 10.133651531359877
Mg 4.224574580239976 11.053451676858598 6.321264058982057
Mg 5.088942159985252 8.61633647154338 8.132476015853278
Mg 11.641864686810012 7.976866508099756 9.083243044750471
Mg 9.849426207769184 2.8585653034592395 10.334041294211216
Mg 8.06566810198049 7.907679453520229 7.934857961133277
Mg 4.312455644704156 3.6719263241012285 8.375141219371834
Mg 7.226275315182329 10.96668296049284 7.191147580562459
Mg 6.804151990563073 2.5154103585657954 9.742456586992077
Mg 2.6379460386239932 5.819109980576075 6.437245374687154
Mg 10.173979687503712 10.422959580159608 8.173265519988295
Mg 5.6845442725646045 5.902118278393519 6.747417617904546
Mg 7.008969167372844 11.350256639627649 4.1708335414340025
Mg 12.05834642426943 8.809279015014889 6.179752143879436
Mg 6.1861164890282705 8.557470651147558 5.231239777896985
Mg 11.228500809880767 3.6792317918359476 7.819854934698832
Mg 4.198754316053689 10.938733836773928 3.3353627835421085
Mg 3.1648942047473896 8.398397229461974 4.83012708164873
Mg 9.133924937988757 1.4159480214511975 7.900311933801349
Mg 10.467696263793417 6.411684095101758 6.84514703040841
Mg 8.155204230998143 4.590508303758406 7.7751254527021745
Mg 4.066133872693866 3.359243098400443 5.411671645871322
Mg 6.485739570245314 2.229693455321222 6.658111498545165
Mg 9.247361268527639 9.423778428026207 5.446719938324483
Mg 8.158298482628927 6.240922853158724 4.919680291131492
Mg 8.193078158742146 8.7311215010586 2.7428022096766105
Mg 5.1045773609672525 8.28368690847172 2.2239045053472792
Mg 6.427854618912061 10.837710193012528 1.2254426109336767
Mg 6.696498907905856 3.660253510970783 3.94830452542402
Mg 11.765817712795155 4.690183929136191 4.839572517101699
Mg 4.475021796345431 5.834837913044211 3.8253319675903534
Mg 9.350401165381326 2.9808775831207894 5.339724668598478
Mg 10.831161655565499 7.344026027546164 3.6700029827892555
Mg 9.678318252711449 6.789814205402054 0.801664963374942
Mg 9.591715310237554 4.521037474595671 2.735984959221167
Mg 6.98694748565288 5.950642685796894 1.9113392026230323
Mg 7.386072717859166 8.411157026928835 14.014052649629845
