51
Energy = -50.86148304 eV
Mg 4.6028005030323875 6.174160039880043 12.066407704354335
Mg 3.348120528730614 8.866059801750525 10.777291866212915
Mg 7.541041302803695 6.025624298127546 12.2927237501828
Mg 3.256219703085568 11.119619523626033 8.463068507050021
Mg 3.3892252192578427 5.693233377678119 9.338456419668528
Mg 6.162882100317678 8.804773060647857 12.438599432825924
Mg 2.559602475852416 10.243258914733094 5.634944462855882
Mg 10.586824443804865 5.694833363388161 11.555687877062155
Mg 3.0562526927945637 8.200397096347968 7.773160158802103
Mg 7.969502314398719 11.263852431176408 12.26179343525266
Mg 5.503415193637914 11.008235879988625 10.489869644873991
Mg 6.184963761148856 4.2497070295627895 9.619346030283092
Mg 8.659356999724533 3.4310673226458555 11.430659733033222
Mg 5.82680764984094 7.570676198360066 9.56778697211413
Mg 9.252280097728141 8.422536548190788 12.119982582014444
Mg 5.7081154702808945 12.883171231286768 8.221549363941095
Mg 5.714009393405726 9.557716057229737 7.172143483153933
Mg 11.415705810623313 3.04406561103308 10.352716334306978
Mg 2.6027530052877816 5.681062092715189 6.342999128057797
Mg 8.530776877086538 6.225074756114021 9.177580350916866
Mg 4.8401980172299535 12.141386312077225 5.517031762175686
Mg 8.386954273169025 12.572089081655122 9.554727831887403
Mg 8.035157130950896 9.536140618411185 9.47289393575377
Mg 4.167358628813233 10.448725884287997 3.1003603998909464
Mg 4.070574693665815 3.4043152371200924 7.586449123008833
Mg 10.556690531074462 10.939368739207127 10.853573117329795
Mg 5.905899655296349 6.141802312494296 6.9916193095524894
Mg 8.400799478366457 8.239005231121643 6.830252272269471
Mg 8.006634279535769 11.607252529238032 6.651455062077069
Mg 11.412440508935862 5.34222122175052 8.419640796994965
Mg 10.949437346858524 8.157655456544294 9.535662946740151
Mg 4.264270110308346 7.7458108373955055 4.6974247822903505
Mg 8.973852855021983 5.338210247543234 6.206451856949741
Mg 6.909487040388437 10.086866816673325 4.280215925669465
Mg 8.997720555732414 3.0450912179605245 8.444849486608918
Mg 4.596282822653964 4.275758361518749 4.707768959241386
Mg 6.788365048962387 3.029880555174925 6.4733079062145675
Mg 10.571706187137218 10.605948076965667 7.799871699637144
Mg 7.23588629451878 7.010668962038172 4.332924091708286
Mg 5.994395410439745 8.55690919595741 1.6819619782855242
Mg 11.842540976655771 4.710913293781836 5.347522129392947
Mg 11.469243832495456 7.771089734134199 6.571575011154632
Mg 7.425752115559335 3.9726488812720318 3.610951911661415
Mg 10.025918478112148 10.001628397303717 4.843459074760736
Mg 11.778078185941077 2.4471428746507575 7.408768006438711
Mg 5.208995632383911 5.802471691264012 2.2555008764240774
Mg 8.865436282224982 9.065107950108017 2.1638753953121697
Mg 8.215149884626431 6.185503558355162 1.5544448985422707
Mg 9.690207525208372 2.4843877599959376 5.281749213880896
Mg 10.381452039673292 7.0632075427134655 3.85738381779384
Mg 10.223332449817628 4.218677608222639 2.8294561103691853
