55
Energy = -55.33016415 eV
Mg 6.6200482773832565 11.738651742539284 10.950069148465676
Mg 8.563153615791425 12.405871611634392 8.717403364497775
Mg 9.550120818036358 10.967896461722095 11.355439852019783
Mg 9.156144643604213 8.088784887448897 12.358476788874423
Mg 6.336159310295538 9.074197352833275 12.146732383503872
Mg 11.155274120527693 10.934113691394222 8.713386666391967
Mg 11.6795492606944 8.755484889487327 10.753923746503775
Mg 3.9060458376285294 10.367349852367417 10.777156670524398
Mg 5.867991729486266 11.09376029928595 8.122670383460795
Mg 7.338808835650027 12.714282763909482 5.85875763611365
Mg 8.553058101176731 9.911962664201786 6.583416365568537
Mg 10.30254632147194 12.74475131342205 6.32113478245732
Mg 6.803545183953055 6.211226928573733 12.737416862767983
Mg 13.623737327732762 9.158209132744235 8.445071353092457
Mg 8.185509179082857 9.170335669377225 9.438324449120081
Mg 2.9127827214798083 10.36518550629031 7.724336251984865
Mg 2.0350592327989006 8.311883855562408 9.724451886665246
Mg 10.659861841095848 5.940596305368331 10.982350919596376
Mg 3.9838912804202113 7.139502671801801 11.712725527255998
Mg 12.01020395028802 10.332967828937925 5.880503983601832
Mg 10.543036094418142 7.902463325875809 7.939624058242207
Mg 4.2803855133331234 12.107679987909343 5.717583221265332
Mg 12.838339986082142 6.216041727963852 8.874017079541947
Mg 9.41380663627099 11.02306326828853 3.947595339035636
Mg 5.316039615316348 8.164546352358213 9.100512707893584
Mg 5.63939566816422 8.748322364366004 6.049027261669904
Mg 6.169418400152366 10.912617288081673 3.8070636338400647
Mg 3.0193064921419155 9.693249204322328 4.598600113728943
Mg 5.203289042836116 4.4723855745367285 10.912595907079037
Mg 2.8832404285370803 5.4626579202732835 9.253342735020187
Mg 3.0076220385924604 7.394970261897409 6.901511591777551
Mg 7.786022679219663 6.221163089703837 9.836731410798807
Mg 8.054226306194717 6.921332389161172 6.7148490564372665
Mg 5.5610014673378085 5.549096122358734 7.7922309944945685
Mg 13.162997048794166 7.5142617659846325 6.087258861536894
Mg 10.435662580552332 8.095743237827877 4.668642291665443
Mg 11.017446836849798 5.36910454023254 5.858854324201577
Mg 4.490154437486143 2.832218082650313 8.40373178362691
Mg 9.973425785231656 4.590008907465943 8.428783153968832
Mg 7.464579391902648 3.1483790831831184 9.388776817482288
Mg 2.977664317563897 6.708411435428397 3.905545982323914
Mg 7.643407073163437 8.313575089456883 3.6273786224137834
Mg 4.852205596208887 8.470343696567157 2.462559379202912
Mg 5.803483972177187 5.907713489922822 4.842388272126436
Mg 3.2148157205724655 4.495222105336007 6.043745043309675
Mg 7.614302742645623 3.9032963821759914 6.333287081182696
Mg 8.779345749301562 5.582943653575717 3.8198367589184974
Mg 9.447482751204795 1.6910689135539116 7.3806526346932495
Mg 6.587853054928298 0.8016878905497495 7.642022483321492
Mg 9.922184282074014 2.801789591729637 4.5119659671328955
Mg 6.229941591494126 5.881371585943714 1.8492296120151122
Mg 4.0725515457144885 3.99416484437586 3.067155999717429
Mg 5.122133133084823 2.2487567850492307 5.4066682352674995
Mg 7.0080999329088955 3.186191104108999 3.174467354049565
Mg 7.806939538591174 0.8324425485279392 4.933314248196068
