55
Energy = -55.51307889 eV
Mg 8.556473795742125 8.884026680279053 8.39742261979451
Mg 3.440285689560845 4.132153742713826 7.334186379549139
Mg 8.298265443252415 4.083922982864685 11.112498504532832
Mg 3.347706393703651 8.916005164495003 9.992179927668154
Mg 8.615065346143343 7.317886333928646 5.6417116797419204
Mg 8.500202327597437 7.322173855148562 11.031887814962646
Mg 8.526962687362815 12.053546706211725 8.349579892223632
Mg 8.692426312066285 10.584882356606082 5.662885226763432
Mg 10.860428628970126 11.87194891729072 10.168658777075514
Mg 8.564180761934344 5.755316678959445 8.400827639757615
Mg 8.708106992561726 4.049621446784129 5.67175365192555
Mg 5.822028807352967 8.915396757238776 11.89885338438525
Mg 3.356304438942601 5.702621650309229 9.99575458207703
Mg 11.246405694029452 8.900678426977263 4.910468253729267
Mg 3.3421250372171527 7.311231633574784 12.480301430776143
Mg 8.550617263089975 2.5843990088758577 8.361790171416317
Mg 11.253897311141829 5.743562809295531 4.9144725417021355
Mg 11.17560293031386 5.797750039612639 10.21350278226505
Mg 5.976908661010783 7.314915108360216 9.21904664213076
Mg 3.42731809660086 8.82792508355645 4.686652695521347
Mg 10.883554016560382 2.777835618011118 10.180174600064786
Mg 5.875779346628051 10.560311123498641 9.227908782072628
Mg 3.4359775736059825 5.781005591361621 4.690966515054915
Mg 8.279916120094853 10.559969214496705 11.104648466119407
Mg 5.893409843497073 4.069053840057115 9.23663964077707
Mg 6.136236150753851 7.310149915066373 3.7780628172132364
Mg 11.16943701466177 8.855551134151224 10.209417242480525
Mg 11.28755675619776 7.324001188943333 7.562306802119934
Mg 11.165087555128295 7.318997965740236 2.3764073435390105
Mg 3.6535051089445156 7.300021757355466 1.8532505345024666
Mg 11.153415064637002 10.467527173746696 7.567340594043678
Mg 6.243696177818489 10.529062552388726 3.7944182093051877
Mg 3.7462365442154066 10.32510254706766 2.026791502824364
Mg 11.168745654447976 4.179419996609088 7.576266830553865
Mg 3.654699976477056 11.852570492684764 4.705832540309881
Mg 3.7602486300749427 4.2758549991084625 2.0352666641660733
Mg 6.038228802294013 8.870903038005254 6.479303116401088
Mg 6.258778322285637 4.091069765311657 3.80360398180679
Mg 6.231132592338918 8.885524028066124 1.0244787952959038
Mg 6.010001299034485 12.044895349462912 6.518948547709291
Mg 3.6758850206873643 2.7573972705041974 4.718617117199967
Mg 6.238822725574558 5.724823476645513 1.0297771267385842
Mg 6.0461791420524476 5.754821861472789 6.4837851711451595
Mg 8.77897070608983 9.056335083622434 2.998881394609986
Mg 8.728928928714952 7.310305640290778 0.5138152514895946
Mg 6.033328014994374 2.580125105181176 6.5318507996355235
Mg 8.78644409733599 5.57298839839339 3.004054632108354
Mg 10.950603103601876 7.3299245329747205 13.023278262592028
Mg 3.3246798877688173 7.3074759338016655 7.354600113917583
Mg 5.831510062533296 5.7199018975359674 11.902964208074891
Mg 10.786511295242345 10.346257018298235 12.857971236414542
Mg 3.4234092240436667 10.483551990902427 7.325273406750022
Mg 8.312054894370286 8.865827398982441 13.769619879989847
Mg 10.804364977717757 4.310827862109143 12.866667767470897
Mg 8.32263933808157 5.7819304421714985 13.773662094605472
