50
Energy = -46.92225816 eV
Mg 10.256336357527946 3.1365078901556807 3.989485672773548
Mg 10.16705836596884 2.0687242650966344 6.781104387507331
Mg 12.52446588505107 5.159004194243612 3.385759740697048
Mg 9.976925352316623 5.21308638530186 1.5954339293898094
Mg 11.772218460231674 4.614179035163937 6.285767514547586
Mg 7.600244143979637 4.347533796810833 3.469078448353839
Mg 8.233160078216702 2.309005600992241 8.883080418570664
Mg 10.45331013827188 4.253847650907238 8.974016106091513
Mg 9.882011252118394 6.179571016023771 4.574943824930828
Mg 5.256020158884026 5.655801032977967 2.3407022073437886
Mg 10.787727854678693 7.061406150869565 7.777658045391473
Mg 6.086356983210157 1.7890805751941352 10.75075402727068
Mg 11.245266773782959 7.8966017996411395 2.4541774367375844
Mg 8.263735729801436 4.369143925700317 6.498395624967314
Mg 12.485048524287778 7.619979811220727 5.291263162848203
Mg 5.744608866474463 4.085049458697114 8.689504346529223
Mg 7.928085195750842 7.360127761327398 2.652171611430399
Mg 5.378442433812377 4.54056343470071 5.496768087424332
Mg 4.861456629848865 4.1352632640267455 12.01672405673071
Mg 3.0293689572646976 3.8942267283633303 7.288842022346244
Mg 7.8440380182803695 4.501535705109152 11.220641419147496
Mg 3.2359284848483556 2.3935200768769955 9.948664738139785
Mg 2.591490992520379 6.006002114097495 5.229257152042668
Mg 2.890146573066524 7.396649292542886 2.6762819936560476
Mg 7.953726128212644 6.319462520678273 8.85465557120675
Mg 10.411976182802007 6.292026419984177 11.020228325662183
Mg 3.116972281482682 5.444186763561404 9.987102768036745
Mg 8.054296988110359 7.928306689689373 11.545029358909094
Mg 7.728836069136967 7.473658874684079 6.125996808148012
Mg 9.897918788743842 9.345365224369688 4.812020877721053
Mg 1.3966359145078073 6.662028300010385 7.915669298562291
Mg 5.220865394555957 7.523474329708234 4.652164692073729
Mg 4.728977120854854 6.696161880823514 7.597994122154647
Mg 12.116992162870847 9.776321201229647 7.284200894384261
Mg 9.087969999075678 9.709063419619996 7.715889494706786
Mg 6.407806504963198 8.816749543690298 8.981382407730505
Mg 5.296818717655369 6.976165917437961 11.506697780067517
Mg 10.901884628681584 9.1166932823681 10.09492736116074
Mg 6.893681036580941 9.934111998745355 3.551451640289594
Mg 8.221102746321753 11.761654009395636 5.582684437424003
Mg 3.3780734305150166 8.444700133298719 9.707629851192626
Mg 5.688864243498567 10.044618060216601 6.337288364398471
Mg 5.55384308518823 10.065383267286306 11.533270975084985
Mg 2.7246384417072678 9.029955865677909 6.646915668780023
Mg 3.7486766806522014 10.000841374720391 3.80814807118345
Mg 8.45549242327793 10.722916475690612 10.55676402140817
Mg 4.1989422833839285 11.168551364390066 8.804196420261428
Mg 5.533445633698916 12.435370200890597 4.400619029586936
Mg 7.0462263891160335 11.934461579758628 8.31648856323478
Mg 3.08856909840741 11.916326699166287 6.107929929364015
