54
Energy = -52.81944192 eV
Mg 3.1020158286049413 5.611410076022187 8.634884114895048
Mg 5.45623212990355 3.7642540391837565 8.269053958216018
Mg 0.827402504047723 7.625071598328926 9.14837708728806
Mg 6.450445586942658 3.130050220325091 5.489396170223663
Mg 7.47584242457888 1.4104838321555233 7.782074624853114
Mg 2.6686742441829243 6.646119657524602 11.471421297864994
Mg 4.357676475563292 3.982933193967163 11.030125453931124
Mg 4.169849784068803 5.237020088823924 5.861344941982638
Mg 2.978923185022171 6.861627662655547 3.502453792613541
Mg 5.275397728101085 6.05438189667558 13.041061449794887
Mg 6.585833036612815 1.9880717807510289 10.562704530409368
Mg 1.8214736477040565 7.156984341651043 6.324521217127602
Mg 1.6418966078299353 10.118110417751652 7.50476885081183
Mg 4.841786034315792 8.078868879681176 7.168609701598639
Mg 6.961360133960935 6.023966139729809 6.638540536116894
Mg 9.538946749179068 3.0126881883943004 6.162816940928476
Mg 4.151568792814022 9.754148530083212 2.2256292543113156
Mg 3.423266737817563 9.022696100743815 9.69096510763588
Mg 7.5003639366207295 4.56066428788096 11.731209627532174
Mg 5.500233526973333 4.886821271804663 3.2089420308010874
Mg 4.603000725598167 8.899026742798238 12.442520144919305
Mg 10.40192910284443 1.519263539869585 8.541690423412792
Mg 8.464960254157274 4.961151451962108 4.145036524829375
Mg 5.671023163514462 6.604788640364387 9.884987158158513
Mg 3.1439080196651563 9.59928045047446 5.010997840094145
Mg 4.8217214994494455 7.059857575504157 1.1241587773384492
Mg 8.396441384111201 4.148213102168701 8.860642214590275
Mg 4.566195086373371 11.125574396714752 7.566655658480992
Mg 7.645769731525468 7.70569097441429 11.962097003463223
Mg 6.351684307161119 9.645623496733908 9.93255789798343
Mg 10.086292219608998 5.725120325597193 10.936348839127547
Mg 5.688063553810754 7.838549840437343 4.24739900055544
Mg 11.424928370338987 4.33502725204401 8.702469893011719
Mg 7.704814609377168 6.929530595153283 1.90268335893575
Mg 12.687418098015497 2.606383888129817 6.49529575459728
Mg 8.42327290802319 7.5425646764329155 8.916735739020577
Mg 9.88995551534577 6.129927468476506 6.645046538611693
Mg 11.463156014597105 4.46606083015045 4.348330997963964
Mg 8.560737537288805 8.057663012414224 4.679103332170037
Mg 10.516845364490747 6.18826760610446 2.140533587963964
Mg 7.403569533864038 9.95584361066549 7.018881925548093
Mg 6.848703270581867 13.074357794262506 6.189962252526847
Mg 5.72805177727924 10.97482901138794 4.563432369106832
Mg 7.007857501564523 12.40631878179188 9.041161164200021
Mg 10.435695219195194 8.646863993396613 11.402105436678761
Mg 11.612604257394768 7.538479299060124 8.817862525413119
Mg 12.935938364820442 5.824455893968632 6.640879648409691
Mg 7.2309881298417 9.83975496940066 2.255320270162507
Mg 8.844485636087066 11.152170163129512 4.537695291601759
Mg 11.6461126263872 7.6169775364709755 4.570669228652365
Mg 9.387351484470544 10.569587666092582 9.452514249781194
Mg 10.18729979764626 9.267052059107336 2.2838659073832046
Mg 10.419452780178654 9.410748224069478 6.718290231226556
Mg 9.600305856932078 12.462408828973594 7.179908463576136
