55
Energy = -56.06506204 eV
Mg 1.6594891440713209 4.1970412922620355 9.63688434597556
Mg 9.029031854160486 6.74957734045693 4.787078097678108
Mg 6.824910598369255 3.179698757172917 10.287739511714575
Mg 4.427476806110379 5.045728218682909 2.5956971680573293
Mg 9.456988242260193 7.235857502413543 7.861830148551294
Mg 7.653378295840851 8.372264318121355 0.24001167683435193
Mg 4.217945727817161 4.704995111427261 7.285212813522701
Mg 1.9435276337736673 4.761581157550173 4.5263406213143735
Mg 6.439452963776306 7.482550768510355 3.347738644044536
Mg 7.261066359236334 6.1277390659244375 11.50194360404263
Mg 4.477324179059662 5.200948037068127 10.48482375300173
Mg 6.713422201756677 7.9065150306926935 6.39490901587606
Mg 3.7423028247827452 9.367661465884364 3.305152335292849
Mg 1.2687031222081024 8.218273842864006 5.0106243966915365
Mg 7.121743802280561 8.33829521726277 9.40404357542494
Mg 3.707039003249541 9.801419447581452 6.372427677424702
Mg 7.0941288895984895 5.450887521335135 1.139973551506552
Mg 11.78918502377128 5.8883719306400355 3.629760168228518
Mg 9.295036795036047 4.190821266907379 3.038031141296034
Mg 6.564302916416733 4.966596960494919 5.187526125856175
Mg 12.159423647572773 5.985118731733113 6.530961975267621
Mg 9.216824024042321 4.53877006469914 6.730876011128668
Mg 6.872421659550264 5.541478452143853 8.330666198010368
Mg 2.19679525345501 6.987538992843292 2.4428099463604838
Mg 9.534142879394647 4.826065056904783 9.966962894953866
Mg 6.152731781278251 10.29443873196017 1.7567421092120479
Mg 2.1019953160504734 7.252569965058176 10.23295797110391
Mg 8.773416068007117 9.52182719951191 3.45653938216844
Mg 6.275079880566287 10.572165484492139 4.865047236001134
Mg 4.827621718712676 8.090174594753789 11.525596332788504
Mg 8.834398914322657 10.162718037022634 6.779592358861227
Mg 6.104002481511165 10.807538544929795 7.994101961781451
Mg 7.69984884357574 9.056768850872848 12.439677286291673
Mg 4.273526841985541 2.833836217728772 4.902187334339915
Mg 11.484641978862781 3.2617300566475382 5.154895474731292
Mg 12.071983521098575 6.494932284055563 9.419021412265138
Mg 3.9851167092813267 2.3407466464086037 9.197454226134433
Mg 11.809295939970768 3.6077434477194212 8.30362689398049
Mg 9.916045527974644 7.798045191143697 10.971705796906015
Mg 4.7161404940954625 7.632639240300802 0.8373512675279291
Mg 11.166531494803017 8.66541744067084 5.534529504216207
Mg 1.2118392578693615 9.02309932870385 7.887447861948689
Mg 4.064562362969518 6.877726303381855 5.1712702015503025
Mg 1.7746862635921983 2.8718029540374346 6.946847139413255
Mg 3.423316173863226 10.082231895079579 9.638921787663149
Mg 4.409300004196244 7.524802595532134 8.289787963540315
Mg 1.5149380685217486 6.150688948453124 7.26451598418605
Mg 5.902309548532914 10.926498044085555 11.087594863683844
Mg 8.478326225274394 2.1438623795577576 5.1111547976058525
Mg 6.578533401020069 2.945443994029087 2.774492747984566
Mg 8.903990600126248 10.6621233788136 9.976511146348365
Mg 9.151599970929118 2.088198079349566 8.441735801240187
Mg 6.398653442435303 2.567430995498438 7.25596528105755
Mg 11.360988780178218 9.428240028197308 8.657274825529763
Mg 9.668427780728772 6.948676830350585 1.7853408918071796
