54
Energy = -53.50286898 eV
Mg 11.982182717561797 12.29813787210263 9.142145162750897
Mg 10.312190138240213 10.732369505695868 11.208456897199484
Mg 12.280999942642852 9.274274771835932 9.303067919760073
Mg 9.14200277430676 12.903662848718055 9.467533854600866
Mg 11.097584415891417 7.584886971431734 11.60341476844833
Mg 12.110500858553165 6.352110537504555 8.846991936120064
Mg 8.923632094173609 8.959010667367988 13.296509611945622
Mg 8.403787158554561 6.116446000137332 12.704593688635283
Mg 12.875383832567687 10.956835338569748 6.75621549335847
Mg 9.955067910386305 5.00388789039824 10.357965602793007
Mg 11.705025000955711 3.412735140934783 8.39492215347631
Mg 10.667688268323703 12.916162159110652 6.408494667196532
Mg 7.0095515201351155 10.815686377404662 8.848370983619843
Mg 11.997834259051439 8.083342350930932 6.407041593842483
Mg 9.753374081463296 10.162152126176634 7.724018036061082
Mg 7.2703464443231445 10.918939730821398 11.769452801819916
Mg 8.509036876680872 8.429714707105639 10.16297959727617
Mg 9.142736103331627 7.096280545295017 7.56625876850283
Mg 9.575121331049038 1.934844222468253 9.765070431679447
Mg 7.490773870400336 3.2701662188544582 11.531794056695107
Mg 7.740293404778254 12.767843247078018 6.782210019448162
Mg 11.2656272318488 5.154699494448123 6.025329747824056
Mg 8.704358926765261 12.328576615894383 3.9673881146610213
Mg 6.096618654397163 8.079689632470911 12.136129796536833
Mg 10.672733907951027 10.25641823895673 4.698798692757916
Mg 7.085819546452644 5.786053290086838 9.830805392554947
Mg 9.741595343013481 7.280577606904373 4.413537619018973
Mg 6.106471399794883 8.031976787120707 8.029719108187743
Mg 5.4244928431225174 5.194310483948336 12.587292793330215
Mg 4.593953649311136 9.831711559763983 10.260912049963105
Mg 4.0022036983684 6.641931864683024 9.96072393732853
Mg 8.640334449527723 4.0878771827612255 7.519511091664873
Mg 4.7234358287834155 11.147589362822242 6.95882197117631
Mg 8.844083337274158 4.2356395624675285 4.410089939056749
Mg 7.377651877286442 9.751871964704488 5.565633043236063
Mg 5.425405359683583 4.7973202448244106 7.5993863927134155
Mg 5.773354811438322 13.073018245979668 4.66133136714819
Mg 6.863490852504979 6.474559248660661 5.509679539885388
Mg 4.554917569116814 3.421961403599251 10.360430495815674
Mg 6.772729578510516 1.898831578075611 8.89223977300698
Mg 2.3895146382094636 4.084708021161521 8.360936981275222
Mg 8.548205528871984 9.398633798237547 2.61298443638199
Mg 7.45086452479555 6.3782688509507075 2.488971070599674
Mg 2.8780297190748465 8.888557116121028 8.024456931784144
Mg 2.8373939733495006 6.2964069970278 6.511084171824991
Mg 4.411554482421537 8.500010539735786 5.471787001827865
Mg 6.521193758867586 2.399125746912458 5.880978624494594
Mg 3.9453267993158057 10.946927999661684 3.9338205559993726
Mg 6.068012648378831 3.7636813268221143 3.2647007617681534
Mg 3.6940623851278698 3.6000765188205657 5.304263560592704
Mg 4.092264013111218 1.8150582081900906 7.675575044086942
Mg 6.409409967700974 11.494026061151432 2.2253453138125923
Mg 5.6156630378121095 8.674665604096763 2.7465238349021623
Mg 4.293368653675895 6.085300013602283 3.665548829081465
