52
Energy = -51.37183704 eV
Mg 11.065258507425053 9.448316717395565 7.864214059587293
Mg 9.997315315536461 11.214624772161942 10.047707436728338
Mg 11.460552368912822 6.384091337424445 8.254986288542634
Mg 10.556203814664764 8.24000829472904 10.717579349527444
Mg 9.947385762521755 12.454476859294441 7.275248347708335
Mg 11.435978780150256 10.673001866389907 5.208716783327724
Mg 10.692784825749634 5.2576530602867795 11.059888076184482
Mg 7.320500049851269 11.861346560236502 8.82730236623272
Mg 8.186406833151278 8.77162244191267 8.957641472990147
Mg 9.139572297034217 7.462834776703552 6.38106669867589
Mg 7.676631147667453 9.90587612224554 11.62417886332818
Mg 9.220884886441706 12.410896424154801 4.143631629433117
Mg 11.707674393933473 7.545302214967429 5.117749295286328
Mg 7.101916310420429 13.13521575395041 6.0136117881145745
Mg 10.598260103328855 3.3656974940072253 8.790935262587254
Mg 9.516123975420689 9.25316245094771 3.415443851854546
Mg 8.01908139902947 6.6865103788458935 11.648702016435479
Mg 8.241973025516454 10.226172361153122 6.217204486083328
Mg 5.168757718788427 9.937132225128638 9.77224448736204
Mg 8.263164700278917 3.3700054257289533 10.772234467969636
Mg 6.980472068117256 8.080958795593546 4.24616114969103
Mg 10.222665139684231 4.527379274353962 6.054126750096693
Mg 8.477197784092914 5.6796888684715885 8.767162564859445
Mg 6.34620747169904 10.960318741663762 3.83421083562879
Mg 9.303479942124538 6.037615814640639 3.5578708259586573
Mg 6.1554354117030465 8.196716348220306 6.958144969612008
Mg 7.196001284788187 5.303375621275494 6.129936685494685
Mg 7.461411106633888 7.585337451809721 1.3407945032794282
Mg 5.7410746053951325 6.925552485950411 9.478261553080085
Mg 5.798628458665088 1.7793240438862843 11.22014436571681
Mg 8.021447549055713 2.553659357498128 7.450669635779447
Mg 5.307665853248134 8.024127332492583 12.199894512809902
Mg 5.024640369689478 10.976345208698657 6.857519637096278
Mg 8.014053337731863 3.2053407949396053 4.191170328976306
Mg 7.478459351349354 4.6273672136961626 1.5784678355662916
Mg 5.774724791034578 4.067197701922145 8.768981254322355
Mg 5.466319917033041 4.785141149883157 11.792317372405652
Mg 4.77881425602379 8.715394400386986 2.137333780758378
Mg 3.162903174221778 8.49598624557424 8.00613192883285
Mg 5.302877153376837 5.826229528583008 3.911446363642355
Mg 3.849264643247921 8.64672384923774 5.013155990229679
Mg 4.39966962318176 5.862317027880954 6.7543458495023305
Mg 3.263321732337719 2.9534422406665057 10.500495970314516
Mg 2.9065605375198937 5.780631560717945 9.502311673320907
Mg 5.286169569328297 2.8800095924708624 5.786914586431705
Mg 4.888993833007851 1.2831898885647435 8.419518553621291
Mg 4.799860951089647 5.947083450036887 0.9646175421737868
Mg 5.138674314132443 3.1306117956413644 2.7346654061960005
Mg 2.505078602229485 6.77362035366872 2.9668988035537587
Mg 2.7009628946828617 3.451799887267286 7.491303009954437
Mg 1.6831877374893711 6.536557823740619 6.00429527470746
Mg 2.756447563251601 4.1158289789437 4.476445804509499
