51
Energy = -50.87325688 eV
Mg 6.464583365984324 7.217123567329679 0.9326926067956781
Mg 9.134275049236313 8.056394061708662 11.404906856938418
Mg 7.9330797779912 9.947677123539112 1.917630984436666
Mg 9.124327791538143 5.566942326159316 1.5879247189658228
Mg 4.019021788253329 6.464325179283372 2.5842046533392686
Mg 6.452520877642448 4.534883925624616 2.547497690510353
Mg 5.100932904518613 9.306292409420205 2.95198888426376
Mg 9.163655272444347 2.948803685632052 3.1654792047183795
Mg 10.445882728714967 8.147940960998955 2.791723535875657
Mg 3.7741164012462205 3.567973296733798 4.015629517367605
Mg 7.6615125589334445 7.503830742408577 3.7137295451607355
Mg 9.06841487272728 10.013801604959534 4.977337559128262
Mg 1.9761902814837318 5.842302062434016 4.641115818699937
Mg 6.674356397262879 11.681372728280687 4.0207049218600925
Mg 11.225071565919881 5.361169304425433 3.738581728695024
Mg 6.4843985834257305 2.6194061286282313 4.9280826191389515
Mg 3.3014732327006286 8.385505067433897 5.287395993978622
Mg 5.529577653521603 5.9964145502842126 5.245706826117274
Mg 8.498840355999299 5.064639870971615 5.081207101034856
Mg 4.240087591959398 11.350371907839921 5.819323395509763
Mg 6.217450802622875 9.065439634267593 5.839278998741094
Mg 9.313171540393316 2.402482553247453 6.336267975466819
Mg 10.924066870032732 7.791607130000949 5.830301881634824
Mg 1.3846814261087623 3.545039574732958 6.380756304062296
Mg 7.354296192665825 11.790495572699957 6.987575074301845
Mg 3.8883756079763967 1.3417801703366035 6.232281086432872
Mg 9.274928594126608 1.0029896753733645 9.055368533213647
Mg 1.9982321339506965 6.685722288353963 7.511742107830384
Mg 5.146956167153699 6.857473574119426 8.110303144201872
Mg 9.58619165266976 9.876451989714127 7.992048308886496
Mg 1.727912054167281 1.4818958301783798 8.330462537781068
Mg 4.8039017195752045 12.254215690690982 8.630331864251422
Mg 11.055046006886506 4.964571960467399 6.744546997293547
Mg 4.165935173589501 4.22030434320717 7.142390870058517
Mg 8.1172498524523 7.1914760327918685 7.146688835799639
Mg 3.31749604346004 9.56650715368767 8.125159676767211
Mg 6.6760973395542145 1.1066214153298979 7.568430858222515
Mg 7.11324319793309 4.2833315909500875 7.677306325813363
Mg 7.340037502166285 11.68545244305311 10.108778340038244
Mg 10.57980912497051 7.054168982211455 8.918916514360706
Mg 9.879216057718004 3.9686916920686865 9.181664711814692
Mg 4.494002246579125 2.152973599703173 9.34946706321999
Mg 4.466204117231511 10.30733896170269 10.890758756491714
Mg 6.4751589138056485 9.32866621964346 8.729974294074196
Mg 2.15897439547882 4.391738417899797 9.461307270981553
Mg 5.905847891569582 7.782159197196125 11.404906856938418
Mg 8.720867439050984 8.825662709051539 10.676509261077618
Mg 3.0717333860427214 7.39184444108152 10.33359278611044
Mg 7.909686827252935 5.993314798241968 10.171356231483001
Mg 7.287945377185831 2.821540874199769 10.396246594866444
Mg 5.0158913742661575 4.933797059842528 10.490395380762674
