50
Energy = -49.50575564 eV
Mg 7.906875516545629 6.237294822315731 1.4000718299847017
Mg 5.209806649649569 7.546901561696299 1.623773664867266
Mg 6.702026555180371 3.6892589540812604 2.315662345108851
Mg 7.767467738453493 8.907225580807488 2.7016020441289714
Mg 2.706098056984368 7.478705009056427 3.4182838893911427
Mg 3.9791994186606816 4.9856608918976955 2.4491822101816103
Mg 10.414621925557162 1.4570364411494703 3.787363842955222
Mg 9.735557264900836 4.030296093437789 2.4287721275444767
Mg 5.014742335426779 9.387435746065274 4.006486045294293
Mg 9.655369870775374 6.841989982117511 3.855286165235504
Mg 4.834232313956135 3.093000120032106 4.611379992854853
Mg 7.155441763773707 1.0714522589900577 3.8431175363957233
Mg 6.4538478885606985 6.211382057974545 4.3282737885328375
Mg 9.849798356574745 9.776983176766175 4.785884178723479
Mg 7.343002279834163 11.3944274584949 4.176511074235555
Mg 5.0816529478721755 11.67687882402708 6.023788722088642
Mg 2.4566677519520783 9.679230895183121 5.559463106237799
Mg 4.055383712254669 6.663188133146851 6.235528935652303
Mg 0.7402151849540111 7.16489121119109 5.661291547737195
Mg 7.259236696427829 8.709053062501606 6.126040970047089
Mg 8.241229497507568 3.5539677834128223 5.15514495689144
Mg 2.150132672177182 4.548214862614844 4.8110154959954645
Mg 11.22486452752537 4.52334406102427 5.058417159739087
Mg 8.903836411563455 0.2760094326733812 6.089446447911584
Mg 11.25841976849428 1.9480795507853177 6.626911331794668
Mg 1.250864989631858 5.09375735024054 7.659872563489904
Mg 8.681942577663637 6.088478683120882 6.798171278146127
Mg 10.93324734029098 4.61927680202693 8.112059125764715
Mg 11.42783493678943 7.457717524015728 6.323711614912742
Mg 4.6424063017802775 9.172930761978163 7.798359070618812
Mg 6.113965295983446 1.4414414267766573 6.831418638911718
Mg 10.506586118129032 9.963133166426461 7.65950750951594
Mg 8.06669830735291 11.632489132107223 7.05937673030092
Mg 2.7066355711277814 11.64931917307166 7.9212399562590905
Mg 3.403345640941829 2.95710720097618 7.297367971675898
Mg 6.112844086432246 4.54933302330601 7.106795501402493
Mg 8.585370011825168 2.5876069705918456 8.144603482802793
Mg 1.8683337823775648 8.033524758850023 8.35604815426668
Mg 6.492644089471673 7.0838572236067385 8.732096322784674
Mg 5.844104008365335 3.020980278718168 9.65893712905332
Mg 10.174575091950752 7.431840286800818 9.227619850535767
Mg 3.0823951329131294 10.270422715553932 10.385624988402276
Mg 8.206348891171942 9.845951657039599 9.547776285326814
Mg 3.7865023847163197 5.244259802920943 9.171981085242129
Mg 8.369081038967087 4.8763522004917075 9.894165598395665
Mg 5.7005356307201005 11.604572386974233 9.139187207755727
Mg 3.2395368234897495 7.383059235459502 11.072330488853906
Mg 5.780271722513185 5.643267987484156 11.390165227535354
Mg 5.737729963553446 9.093940938309741 11.195600032077346
Mg 8.228756676599126 7.445754862028548 11.479568296760316
