54
Energy = -53.41575172 eV
Mg 13.027856964220696 7.2134292929563015 3.7714430158067604
Mg 12.746948657569819 8.868143700989897 6.513285285532805
Mg 13.812032066137855 6.088474695436581 6.4819487995795875
Mg 10.743413469825503 9.134256043162894 3.9751598170076337
Mg 11.956938393215882 6.764250580909023 8.867198032920184
Mg 10.303435585428382 9.254359967271034 8.442218505649143
Mg 10.896949723061745 11.175653051991992 6.085210298182424
Mg 12.370719843581933 4.428525782310583 4.416750787807237
Mg 9.792878642909338 7.569147993811404 10.879053792116473
Mg 11.749338003701546 4.126815489978919 7.4065843825673685
Mg 8.362123387210792 11.218693096943644 4.376831092561587
Mg 10.548535535900632 6.786362061859811 6.008808098977057
Mg 8.56675577666758 11.71058763626211 7.766402096607028
Mg 10.227123923867033 4.358339891223246 10.099346373598713
Mg 8.457480315872742 10.508548455949462 10.628364519821773
Mg 5.992981320540685 11.375665827958134 6.31486399555925
Mg 7.418351704695333 6.319254196714588 5.288294671136204
Mg 7.190036159766718 8.342693430268993 12.229110832068587
Mg 9.885232332536205 5.978555325155901 3.1159736491307473
Mg 8.122581292870512 8.384202567973446 2.8942929662318275
Mg 6.778694054095588 8.542947673067772 9.008853207799419
Mg 8.628006683521726 6.136811820661748 8.189977929928164
Mg 6.157230599384521 12.096887871652502 9.41152780471233
Mg 8.211741159815857 8.94808283356341 6.254585708712583
Mg 9.573839603247576 3.7975079132447784 5.209491580719398
Mg 7.51232652757708 5.581352153180549 11.132472155462198
Mg 9.569137652438457 2.1590041471681367 7.777395799854401
Mg 4.8977096690721496 9.913175992181454 11.023340101298077
Mg 7.810025965277442 1.2979437996986278 5.353499164041152
Mg 6.95112280969714 3.8630968653368094 3.5525747950408753
Mg 3.7175725668745883 10.831283787410284 8.276621890052505
Mg 7.505380252975646 2.9342265942950974 9.794073508271136
Mg 5.639423631592704 6.693389172718887 2.785922923256369
Mg 5.5141256278331765 5.788194769085733 8.447982331607617
Mg 4.9809538648527765 8.19083853712117 6.471763523875444
Mg 5.651349029086235 9.62475408497853 3.8035277125935707
Mg 3.2815279398555455 10.919623533530707 5.147619114826055
Mg 4.5813994960466635 5.178648780461106 5.460686645176894
Mg 6.985490074197194 3.724473223868469 6.842433456179425
Mg 4.732371488700745 6.750334471557074 11.490367813620136
Mg 3.3001683575159158 7.952101717198351 9.18488599058395
Mg 5.0344877635199285 3.7859654628524435 11.221117569636883
Mg 4.888314108489349 2.0789610083121506 5.226825936629614
Mg 4.009806925568698 4.153594557756641 2.6515129835263114
Mg 4.74736876431104 2.480393728311726 8.459144207362113
Mg 3.0332426866341797 7.775323467696572 4.129226484071121
Mg 0.6176000666833441 9.94770023897098 4.117601321679476
Mg 1.5467575793438746 9.169793238972398 6.886988569577548
Mg 2.8036031546842257 4.799802589787979 9.516082581976208
Mg 2.158640204247678 6.254465035758489 6.927623465884612
Mg 2.444920875284635 3.2782267636647675 6.734038965724047
Mg 2.226228960432753 2.1395708316977906 3.9206861147812275
Mg 1.50130858773487 5.016358607460542 4.185047544969346
Mg 13.812032066137855 7.3099671839122315 5.137574343582072
