50
Energy = -47.78453807 eV
Mg 2.7119181244009467 9.24901741825839 4.04202273792001
Mg 3.963467104731885 10.699491031485211 6.551549420795308
Mg 5.695698371450646 13.481246088958619 5.323090646607152
Mg 5.186714257032985 10.92419323413771 3.6632986466581947
Mg 2.728551592378313 7.5474508336365576 6.534967671368567
Mg 3.036491712419148 9.135347002893367 8.98774885676909
Mg 3.3570747497268716 6.236942425246283 3.8307605581787474
Mg 4.088502920768488 5.921122166369748 8.710322662943774
Mg 5.998612088640662 12.577373868574057 8.20842008093788
Mg 8.08075789035857 12.268301049108864 3.8348777988798215
Mg 5.030404694697653 8.31887023377275 2.1040031267175134
Mg 5.427359610490294 8.185529537833778 5.172136599988381
Mg 3.3795229203307673 3.1672657176770254 4.195765764642194
Mg 2.208245628181074 4.599077540807306 6.580429159362478
Mg 6.960558417851266 10.635909443202252 6.101067476737586
Mg 4.608432701885352 7.724239536867076 11.118299244619585
Mg 8.561652204800819 13.179965772807055 6.75365755507761
Mg 5.2091411677519535 5.1523228339617795 5.975239818951576
Mg 7.805629378912559 9.183887855212104 3.471189611794628
Mg 5.899153595626962 8.452804701388045 8.137867203603316
Mg 3.8808608835804645 4.8799146441495385 11.525880741496767
Mg 5.344924476146337 10.608464448149487 10.306556249345714
Mg 6.589101978311912 6.037032006202664 3.277655807018151
Mg 2.565216492286153 3.304810069277353 9.372339856438437
Mg 7.059881031176919 5.579595626986583 8.210460054158752
Mg 8.399815217059155 7.906923838344869 6.618902163627775
Mg 7.468917867719674 8.558142281624075 10.946979229809946
Mg 8.37268479632147 10.547909870703222 8.720502815185581
Mg 9.96528496612405 10.68586397077242 5.662181540662094
Mg 8.315911919310832 4.977311106362649 5.621039460395502
Mg 6.374240186337642 2.9027268099758743 4.2244776494265714
Mg 9.718241215009934 6.952057728108439 3.7655851974483174
Mg 8.866744845019177 4.191795735829963 2.7787135952485276
Mg 5.57568888924035 3.1445135194783833 9.624755762893107
Mg 4.229412829973803 2.278680449824597 6.937633275689363
Mg 6.926490968397232 5.559323063351654 11.259339953806851
Mg 9.636549871894575 6.542467314251828 9.259786717907815
Mg 10.941784635198257 6.235363053492917 6.485369649198938
Mg 9.602390716046362 6.808527060631618 12.302718012340168
Mg 10.284277444618255 9.491880807453047 10.888280393797348
Mg 10.93359777843257 9.000342031359342 8.014237801740887
Mg 7.252134130085848 2.42892515255954 7.192155650824314
Mg 12.069993795140528 8.652849443236953 5.125023247778957
Mg 9.212814286862821 2.072999701230474 4.917183011002514
Mg 8.50653891813658 3.297691600702126 9.909327438045509
Mg 11.005536694755042 4.425088674842048 11.0385374444045
Mg 12.36201050643938 7.3667473204164 10.514361865900353
Mg 12.53306437090626 4.904318047172179 8.600882046353744
Mg 13.531278722181668 7.540251959481659 7.57918226122048
Mg 10.201002783970095 3.396225199440355 7.481108159094568
