51
Energy = -50.78767227 eV
Mg 4.204862504770873 5.457564773541523 2.001495321595265
Mg 5.436460962808339 7.9189443483113475 0.9890734691476922
Mg 7.223621050315773 5.553904108390511 1.4489337249011238
Mg 3.2499232842661065 8.155426689114266 3.134917931700466
Mg 3.622201273757859 5.601356421970855 5.102277208107138
Mg 6.03873920145736 4.001159196212898 4.047591416840491
Mg 5.8073703594335235 10.12562307752569 2.9713771514256657
Mg 6.1539766308383275 7.186931031681054 3.9768829803851635
Mg 1.6177625879087678 7.977907280696648 5.7550892110913745
Mg 8.283747060474484 8.468997355170606 2.00379251599384
Mg 3.6179648751035502 10.400846192955475 5.055867894897445
Mg 8.646407643507734 3.271599690608261 2.6725188764123358
Mg 5.2318472271784655 3.240483734573162 6.888619279280735
Mg 8.19443427286077 2.5607771119113285 5.73604414440125
Mg 6.27534586499903 6.146218033791671 6.895088927005475
Mg 10.134113929812555 5.944259429611406 2.324474500701173
Mg 1.8637523439865695 10.523108261936514 7.495828239584542
Mg 3.17598233201569 5.433312034789133 8.014606661165226
Mg 6.751677032923896 9.21987157395882 6.0604597406838305
Mg 6.009772355218083 12.230282512099642 5.0956947214497506
Mg 8.562009290456466 5.579855624470992 4.962354329083689
Mg 8.628499340733693 10.894897135311865 4.229187846813759
Mg 1.4708698928557677 7.919555908950601 8.79673616868617
Mg 9.971252988131084 8.255926535037098 4.493671035173422
Mg 4.170336070039091 8.261411867970349 7.268288407870319
Mg 11.048985881882944 3.642948958165529 4.264744408814409
Mg 4.815016531922393 11.344958973272279 7.751034741531161
Mg 8.980972417797199 7.654390586059136 7.327263350988475
Mg 3.4389600305817747 10.050530600662595 10.060616278510214
Mg 7.909013228756376 11.633334541027484 7.49715050262183
Mg 10.466919001935048 10.393280976757374 6.609517241046296
Mg 3.8010096633687986 7.07267905444213 10.476465779995234
Mg 8.76364721947224 4.618704231707116 7.87671937717252
Mg 5.737733095360354 4.749122875890081 9.607678800219066
Mg 6.459943180457902 8.268004918489995 9.185231773464569
Mg 11.414217164295156 5.9801133528549615 6.162878117926635
Mg 7.281127896115005 2.163738474796648 8.869647597555861
Mg 6.503082313501897 11.063015714215183 10.328716712690028
Mg 11.254127574464764 2.9764222402098217 7.09290446486819
Mg 9.402636913307521 9.853139828485695 9.458671490851154
Mg 11.85508630974783 8.280879390883792 8.34353446125335
Mg 5.165241109955656 9.186099064529245 12.305596618634501
Mg 6.261126071051323 6.416374640153075 12.159483554324598
Mg 8.654931972353989 6.4524228326974375 10.150054806834099
Mg 10.229287593202738 2.587960753032857 9.830621293537513
Mg 8.113981381271108 8.96360871873131 12.06516165180881
Mg 7.9764005891374525 3.7828274250293275 11.490339588904465
Mg 11.572322289105742 5.367620312565506 9.101510292482992
Mg 11.06080340405804 7.793492767692101 11.29420875036027
Mg 8.983735199990305 6.390011227641888 13.299334897140712
Mg 10.836072899938292 4.695941049109825 11.84801486566894
