52
Energy = -52.22812464 eV
Mg 8.06647516903643 6.387607187128129 13.832100791397968
Mg 7.304063860550244 9.140465616517162 13.423912091410898
Mg 5.639157360875304 6.776819452309043 11.993327885419795
Mg 5.6844881708105985 9.700033407446428 10.931548127753045
Mg 8.67877446957418 10.759625645218685 11.308358437066007
Mg 10.225033011591506 8.307937938956195 12.682268444350436
Mg 4.129747200967355 10.380809242530892 8.356294067660716
Mg 7.0359765471300815 11.521633254973603 8.796832744772551
Mg 6.688506592661699 3.9729916537080685 12.491895075455231
Mg 10.051130658965066 12.471879449132755 9.21180292257151
Mg 4.148447071328506 7.2524067025764 9.468854277050925
Mg 4.591889087779306 4.249911976880582 10.345399692650282
Mg 8.159389942877738 7.795479581062323 10.570182296508353
Mg 8.729085322586869 12.726290060092072 6.392510144901536
Mg 11.677739761353356 9.969165237591074 10.531513777453734
Mg 5.574390179415459 12.053013752440574 6.168762388958491
Mg 2.6236836119113813 10.946624482641 5.829831726866272
Mg 9.486998029124797 9.524038294826314 8.508458406626376
Mg 6.565699307243132 8.505345628984356 8.161115327264156
Mg 11.060508793244894 6.946486476124146 9.79032548767952
Mg 2.7735454657153307 8.010975588949014 6.919908936291052
Mg 7.690270154696625 2.5587333775601784 9.997764981150278
Mg 9.261120408158751 5.025515802822982 11.398062766029346
Mg 7.023936945363147 5.475271470576567 9.118361840288022
Mg 3.080286470728381 4.877980188744896 7.7013760691721185
Mg 11.424019255056157 11.27230961155873 6.808335775216109
Mg 10.308553554517285 11.389882195229404 4.079960546427447
Mg 8.14749471045239 9.765909699240463 5.8894034618154025
Mg 2.274062934211033 5.8726938294836994 4.8740612860072465
Mg 12.499612961132783 8.691148054491212 7.869105654860241
Mg 5.5162928417966794 6.206425089306914 6.553121705984931
Mg 9.003469988027321 6.9002533601866265 7.290238232430134
Mg 7.937260439280541 4.337037705847361 6.250943418981489
Mg 7.25006945525731 11.571203283441255 3.624563552591318
Mg 5.650055773800415 2.897678566959721 7.718422886883037
Mg 2.7843902160858924 8.705063602518763 3.7336247857882094
Mg 5.262661334612419 9.056769836326284 5.478029393615109
Mg 8.6711528044066 1.5386145568917229 7.271251674519892
Mg 9.953997947448714 4.183642199846436 8.632106709867355
Mg 9.024086284804627 9.057829202614746 2.8233878499924887
Mg 4.471710129747865 3.7277561214152874 4.976427422652696
Mg 10.871489527196045 8.43023604013285 5.255574948410765
Mg 11.883639790272644 5.927920846501443 6.824870758400421
Mg 4.1943867885382575 11.401120003237489 3.437261567827691
Mg 4.835672209682091 6.334162005821713 3.3998667416153387
Mg 7.6020213445201295 7.059291425787036 4.5199770940857045
Mg 7.0951735297819125 4.230574311274735 3.318503122539248
Mg 6.5905555361175185 1.6204030720439695 5.065392203888832
Mg 5.987845555697571 9.023421040013048 2.553202203365117
Mg 9.245748961367614 2.26760532252291 4.120802803793172
Mg 10.124142301465596 5.4182239654999735 4.357410450376414
Mg 11.143390597619721 3.079364780519197 6.148739698855586
