52
Energy = -51.45631246 eV
Mg 4.106760778267678 9.691293368952051 2.576703678389984
Mg 7.0192327212211465 8.855209599103604 2.0454639666663623
Mg 9.509316363999293 7.665983668028654 0.8013041178276905
Mg 4.629308723108341 6.9564877913063325 1.802196707252459
Mg 3.1011680604366076 7.336713903721192 4.5069826772944115
Mg 7.341904923443096 5.665458207655019 1.3445638878986046
Mg 9.782678373167597 9.574881125743946 3.2216996234116495
Mg 1.9872006238276008 9.111824627674276 6.77738256475426
Mg 4.02069969517417 10.566241405999197 5.28579028482066
Mg 11.918233296085937 7.254902460073682 2.491525397107159
Mg 5.754054993515964 5.093481358398277 3.8506288928703514
Mg 6.05840249541799 7.971670074145079 4.852568700441938
Mg 7.119112243129271 10.757714180832147 4.59577520313689
Mg 8.81121481084777 6.836515614818868 3.9420862875390714
Mg 10.307470160561216 4.9302742102185855 1.565190602827832
Mg 4.581048902907147 6.742645465663802 7.3705567400164105
Mg 3.38242398876823 11.000865245392657 8.764173144750865
Mg 3.730342076344913 4.273457574330462 5.886750938184268
Mg 1.4308650284409512 6.22007610617301 6.998860093402933
Mg 11.64392521891438 8.093356087555602 5.275403209400951
Mg 8.486488934802399 3.7389215362787365 3.6453519724780565
Mg 5.193994346742856 12.62452149009624 7.045294041103431
Mg 10.487456510719113 10.909528535422071 5.806813385089133
Mg 1.276060083061003 3.191649228806479 7.206817138526807
Mg 6.416481389171207 2.75820640388514 5.784250574872938
Mg 8.625411120966758 8.570292900878163 6.5628645024283845
Mg 2.8840594679422247 4.780817008659821 9.175427197730686
Mg 11.294044753575104 5.005708962143946 4.493473285942511
Mg 7.4744861234424596 5.658073262558008 6.381409847105502
Mg 5.853684132265821 9.45238249981789 7.612272843985134
Mg 4.068016512503787 1.9713359629369922 7.923767924821701
Mg 2.6908664626072585 8.039062471059296 9.448244957780146
Mg 10.601255386392602 11.746736752063093 8.81291565551255
Mg 9.591150537915285 3.2601924106594455 6.400372340810388
Mg 5.992816657703469 4.201241764262742 8.614257376605726
Mg 6.16779606466144 11.914062183833574 9.767316656545507
Mg 11.284495349322285 8.974461177064153 8.140425845786181
Mg 4.64994339251478 6.416619931162463 10.89880046575485
Mg 7.824955626153927 1.5899937261356354 8.18276068219419
Mg 10.503760858400828 6.092051262701535 7.2668553033891365
Mg 8.03807287802568 11.663865953897641 7.350306680776607
Mg 7.195572781934264 6.979976025617121 9.121000378125732
Mg 4.595854975646128 3.0295949226864347 10.978734007778982
Mg 9.035924648874063 4.339205301214374 9.263619384865454
Mg 5.717622275065264 0.44658754519785143 9.925019266497497
Mg 5.371496466920896 9.28482785243734 10.778630017721191
Mg 6.888659315804951 4.868082084336072 11.68961713340133
Mg 8.400041773061123 9.76501079176437 9.835633956035768
Mg 7.8333577218174275 2.18028397695744 11.156199487165617
Mg 10.089728426576917 7.163402477897418 10.210227849863937
Mg 7.696442809348838 7.7195504574290625 12.125400631114626
Mg 9.687068940845396 5.061769224779299 12.29670253990751
