51
Energy = -32.46186655 eV
Mg 8.777475935864553 10.920735948812338 3.530733526594161
Mg 8.04019102496721 9.101070623861068 1.2151739097306913
Mg 6.208675467426725 11.63887291253264 4.936112095334713
Mg 11.385588679660536 10.179494493314122 5.149787508593699
Mg 3.584564672835437 12.270220429213479 6.293159235006098
Mg 10.90769647434617 9.396274114197373 2.1006573501277863
Mg 6.442620094420176 8.81277540588604 3.7973020760279197
Mg 3.72128344213404 9.929883306569774 4.382992447034397
Mg 8.867194752105037 11.845842607290518 6.42736497286541
Mg 6.441649855437684 6.438126401797347 1.857648322621628
Mg 9.099131482633606 8.296012487775133 5.249318323516407
Mg 3.83035266465684 7.000363158904424 3.3503144140280723
Mg 10.877309589721339 10.558205759004059 10.863249891124132
Mg 6.031839905573018 12.3987443872686 7.923856109252774
Mg 9.40402441380335 6.753854552854723 2.556377205271205
Mg 10.176906820334127 9.677814786271016 7.993269933194422
Mg 12.018324612322896 7.36180089937917 3.874547572250024
Mg 5.100647750801653 4.167683225454698 3.547143925108766
Mg 3.691080010604505 9.703789932527748 7.8354577490231225
Mg 4.985625024591858 7.438292130305009 6.237027964187278
Mg 7.199347093015768 5.976759133772581 5.012795903070955
Mg 1.9750886005867125 7.96264984623884 5.641670589987896
Mg 8.216196735701734 4.079744556414519 2.824963247293848
Mg 7.036411431881308 9.454139908887106 7.280899492220446
Mg 8.38225110261786 11.622875992325527 9.576074078674525
Mg 10.160065682605762 5.097876780261594 5.270635604756348
Mg 5.619305539471662 10.403268950605176 10.21584777589585
Mg 11.692945614130473 7.363330992649385 6.805023901400881
Mg 3.0897624511416266 5.035200956794495 5.685334226282115
Mg 7.350170167344446 2.8790750104805416 5.325902487345316
Mg 5.733817083393309 7.3952639518825425 9.144791716503859
Mg 8.316147383706348 8.591424886049268 10.423334845244037
Mg 8.53936877199017 6.641430575187404 7.8971873873241805
Mg 11.585307491366324 7.725670371428535 9.758327965670455
Mg 3.1045603930900194 8.612448811208415 10.60417903188771
Mg 10.991999930343784 8.325759196540506 12.749841980091363
Mg 4.436950061631416 2.306556513449266 5.963747197574399
Mg 2.6450535543226747 6.727869253924464 8.294718133448468
Mg 5.9104368500557625 4.679656552557308 7.607205794965647
Mg 9.786343001354322 2.625089831281814 7.004205346623017
Mg 5.560690116943049 8.082443230487577 12.22180803695518
Mg 9.8751922588112 5.801305760084555 11.180555643258042
Mg 11.14977533814734 4.903777461406141 8.428860107375193
Mg 6.919358380326372 5.533144620393912 11.255962001333462
Mg 3.0804144397036617 3.675071294308805 8.450093644201635
Mg 3.9311255544752712 5.580847586458165 10.762592334057716
Mg 6.963480333974637 1.5367376175219833 7.925273958380212
Mg 8.262271176497952 7.401303012252148 13.321342209620834
Mg 8.476811928965807 3.696802889704314 9.493182837469991
Mg 4.1473497796105185 0.8028754380003925 8.487405507467104
Mg 5.54839880738523 2.997435652235257 10.197143020028221
