53
Energy = -49.98051353 eV
Mg 10.0427808389857 10.106628907893473 11.854575487682384
Mg 7.432359819520071 8.512284381352382 11.792564874413902
Mg 10.119592735979664 7.134942858491133 12.124818036765399
Mg 10.267907153831697 4.236634242726292 12.474285053850569
Mg 4.876765055836665 6.741818386865469 11.844352993755288
Mg 7.547386462614104 11.33965183150263 10.552356724316374
Mg 7.560843988744619 5.513806605015058 12.070912911641525
Mg 5.079790702382476 9.367236111427012 10.333198780668448
Mg 10.289112178898376 11.346055929892213 9.18118586336767
Mg 9.39146403869011 8.260989766098252 9.350227515663171
Mg 9.881570663882144 5.184883542106683 9.590712711272033
Mg 7.784598783070485 12.215768143242967 7.6650530587413375
Mg 8.274327864193133 2.733900730188558 10.969999867290255
Mg 6.584139818349536 6.589863531660029 9.25113828931138
Mg 2.42938004187784 7.939234911600746 10.404050849195233
Mg 5.124695636364853 12.02205963348231 8.950309307206428
Mg 3.2860213694644687 5.301234182672853 9.42876110963142
Mg 2.729270388229864 10.297320570361775 8.647578868584933
Mg 6.864586080193273 9.254751795950781 7.688222056040136
Mg 9.93001669394717 9.516051072669612 6.753594702190474
Mg 11.082890514223845 6.745125806193318 7.146603760766464
Mg 5.452916941286957 3.853257848820536 10.6789516480954
Mg 10.502835049066501 12.504564644778304 6.474347227862721
Mg 4.085228848804657 7.616491633711074 7.629545923083798
Mg 11.089053802276402 3.8029491731933383 6.990886545168481
Mg 6.386593574040192 1.1296130292664286 9.410760680948533
Mg 2.631809328630145 9.720879346781489 5.71115677422523
Mg 10.858609473945187 10.872968314530024 4.080962756754572
Mg 8.287378476283223 5.473446595062513 7.042415312338357
Mg 8.759407055031398 2.4115792926427053 7.9873776662944
Mg 7.9452243918510845 11.024263588845312 4.982262822269982
Mg 11.491066756039144 7.912636153921964 4.466707386326945
Mg 6.028283645461727 3.7574972537975144 7.633676074818396
Mg 5.1621809228095055 11.566817643031365 5.93805696860244
Mg 5.41961701019429 8.596674971421242 5.086086016515428
Mg 8.267289787419253 7.698832782660836 4.992315941132536
Mg 2.6726745152885867 6.894711328613413 4.896047221840564
Mg 10.002685827972519 5.09109106738978 4.540841931926043
Mg 3.6138399747589025 2.302327009369385 8.505387177178143
Mg 11.641148978453243 9.210074428610964 1.7121141746546622
Mg 5.7875532642950045 5.598880708437141 5.1084701709108655
Mg 3.244812348050181 4.572571530851273 6.538297980969487
Mg 6.816020952137447 0.5543777399131553 6.528210950263174
Mg 7.689194179391285 3.0345967739622366 5.0112247598854305
Mg 3.525101034609799 8.904095255694141 2.742906635978055
Mg 8.67998573031328 9.923428110421105 2.2922400770520746
Mg 5.774043088711249 10.820186890944031 2.9672746726568437
Mg 9.606844589141032 7.0074822865978765 2.2238189048751407
Mg 4.557908189181611 2.062232990694688 5.440568144952187
Mg 4.238517640651642 6.019650590095664 2.3714400663750257
Mg 7.599390530912392 4.882527668568821 2.4716722661097026
Mg 6.573759433881075 7.822403405851302 2.3618149926079637
Mg 5.1902532525202725 3.3256545325830897 2.8797593760096727
