50
Energy = -49.92330825 eV
Mg 11.314015083785293 10.533036211217478 5.104711663611659
Mg 5.592069751557326 12.197682500170739 4.763096243020775
Mg 8.508252071411482 11.531137884780941 4.913658059073928
Mg 6.869056838761722 11.564677661823959 7.519779705504307
Mg 6.469843562095248 10.059793509493312 2.8185880827745
Mg 9.748739629756983 10.731576920596614 7.799547717802459
Mg 9.323879869414194 8.897091156992337 3.4825338582435483
Mg 3.712408784043956 11.682982494508396 7.202125513445901
Mg 12.391392722434745 9.187136178315852 7.477622382786233
Mg 3.7775061100927276 9.788304725799248 4.753612551123159
Mg 12.191741948943246 7.609650961540842 4.691018101655769
Mg 6.889951887401189 8.95672576087474 5.649453540192966
Mg 7.529311742198618 7.298490295396883 1.633147967280854
Mg 10.37017353563436 6.110072153823058 2.644253328248957
Mg 10.582483232879023 8.06616364071268 9.639072591064231
Mg 4.830601017885888 8.86388682678136 7.902826733958097
Mg 5.02560577341906 11.592106999450962 9.891168722680936
Mg 7.6768206036645354 8.344039776795254 8.685375516287001
Mg 12.196234356671981 6.240816606227944 7.601579588789361
Mg 9.698460049080229 7.926080817703195 6.425753452514579
Mg 5.09418079458032 7.357123058562874 3.5198815460019834
Mg 10.716404460230962 4.8483214006957 5.363475295100032
Mg 7.989629710346651 10.975648693356616 10.30435431471476
Mg 8.626339300153544 4.549485009772255 0.7322533696627647
Mg 7.92634939728234 6.138077175244045 4.56256047624143
Mg 8.506643546809899 8.54082579592628 11.978630216350034
Mg 6.17622677972615 4.636258747757584 2.3462304482844316
Mg 8.555674539916755 5.4666206225843625 7.7436046331803166
Mg 1.7354443348380268 9.337627446425849 7.156680090186525
Mg 8.81233163722828 3.3385067730410287 3.486681529725907
Mg 5.715426879969148 6.233084034725393 6.5340997527235265
Mg 5.617910939546797 8.920725909876817 11.072950755905982
Mg 11.307477469366885 5.0863924477395175 10.181544025975672
Mg 2.7255196034078737 9.528292050495036 9.978517651152162
Mg 2.789338301973495 7.044778944813439 5.567126328789263
Mg 11.414395269723038 3.267290443827721 7.848692695180305
Mg 8.776165885145288 2.5685703062941583 6.531303319340607
Mg 8.58489276227143 5.841101459874601 10.854092163016203
Mg 5.758809299851863 6.144415548430051 9.576349919070942
Mg 3.7975962901976157 4.714416944027541 4.09633596563673
Mg 2.696730473267432 6.641404110052235 8.576434886774356
Mg 6.2978702552442085 6.3939057854443995 12.709038296363598
Mg 6.221698066138144 3.398415397950051 5.250600078092696
Mg 9.029559303953848 2.95662019569983 9.644500624921518
Mg 3.40817355588158 6.786683983553106 11.505639975793565
Mg 3.550408773738918 4.109180722593295 7.008464684873369
Mg 6.507865739976822 3.5623508928497065 11.33439733998651
Mg 6.216750975808115 3.221152150055647 8.271038125264598
Mg 3.6268093531880607 3.9341001068971333 10.016300549882724
Mg 4.151448211332496 4.217515451874543 12.96190837893361
