51
Energy = -50.88969818 eV
Mg 1.8074171644547936 5.2319363262704455 8.672485287193464
Mg 3.2124221369224846 5.6744890989005965 11.330443052940018
Mg 3.260986665333981 8.124240604329326 9.520107491129405
Mg 1.5804556726099572 7.8701568320047945 7.00822577002165
Mg 1.529248891647098 10.161171868163382 5.125877587528571
Mg 2.988884559947261 10.746171453752936 7.767975724668064
Mg 5.083180556169855 7.90978687980044 11.959905756371644
Mg 3.111529056045144 2.8012282608028385 7.335426492580988
Mg 3.8607995514329465 3.1486889909262232 10.097052259725782
Mg 2.922265706986463 5.505997359518378 5.732280946092863
Mg 5.156612576602783 3.333490291438398 5.301036039933473
Mg 4.816013111002716 5.671996236236397 8.077169501693522
Mg 4.948797840514602 10.660182447338261 10.157330788987334
Mg 3.4049196897007854 7.947569469833584 3.84605357726811
Mg 3.9019896869326547 4.924549385050607 3.026196840163271
Mg 4.7129424489071345 8.462411725936843 6.600188578472057
Mg 4.27244275679832 11.048147816490731 4.8312713127737625
Mg 7.024734319114704 10.09521296187137 12.29469812210569
Mg 6.269839683592031 2.842703351122257 8.184304631934946
Mg 8.092442757085545 3.50021425363477 5.505732588479864
Mg 8.103182486345805 7.129277255009641 11.651902796537598
Mg 6.062474105844962 11.35725079832363 7.372040437929428
Mg 6.161163828105266 4.983550744781158 10.786968478270225
Mg 6.275422151875511 6.254370903913732 5.174106797273156
Mg 6.4515364499078744 8.118498951140117 9.178227762354375
Mg 7.796127193627887 5.593044433268522 7.964978919255387
Mg 6.815739462871968 4.26121646687493 2.7599344268454273
Mg 7.182832660972688 11.741374826534123 4.611847508698131
Mg 5.543606218778555 6.92130704099756 1.7227379707030488
Mg 9.549030988853456 6.37422574844364 5.647563293459947
Mg 9.901139891702728 9.598301768351401 11.579029193652978
Mg 6.274912781091061 9.146341743238212 3.54939843382148
Mg 9.112952809408206 4.465611996985213 10.580612605105697
Mg 9.378749278275896 2.7689433116268436 8.096486250056877
Mg 8.066275103356443 10.919524957867527 9.51113389843476
Mg 8.375233218332886 7.078297031551928 2.792545483959101
Mg 7.7363980795157 8.787738930959929 6.366990230242339
Mg 11.162028215954704 3.598963575795066 5.690257838326746
Mg 9.846743389219215 4.391613325904077 3.0479065039408693
Mg 9.51976294304542 8.049695664070367 8.751513342268895
Mg 9.201627539169827 11.552974063481496 6.74939762874896
Mg 12.821315616452967 9.377173698143269 11.102658181959562
Mg 11.156156177297927 6.774473998532306 11.102348705305861
Mg 9.310097908730164 9.829181299091674 3.7724341520398164
Mg 11.076695790950069 5.24637466483134 8.321398973525751
Mg 12.629051048119432 6.387642804320508 5.885727970783741
Mg 11.335362009398963 7.519347449742554 3.359621339222658
Mg 11.160394963475486 10.675522375497756 8.875202700503511
Mg 11.033732950597983 9.108370779001504 6.165827862545031
Mg 12.709209652064608 4.824896524322103 3.3107153822161237
Mg 12.600646289466969 7.924805433158197 8.514877024214218
