54
Energy = -52.47719968 eV
Mg 1.1744843164464585 10.070243095316195 10.283659944803691
Mg 1.5254010045546766 7.267192486552545 9.147885416270752
Mg 1.4014160915565124 4.42829919390105 8.244693779341036
Mg 3.333902159284087 8.281063113832325 11.444574964124156
Mg 1.7746828941536874 3.8340518819563334 5.399111465852234
Mg 2.8403667581733893 9.56212859624228 7.495491811164843
Mg 3.8333022094733 11.220291304894497 9.971382108907918
Mg 3.3171180173573864 5.098720989730899 10.466786415213168
Mg 2.6134952121649304 6.66633731011945 6.242191298073394
Mg 2.0161805949237195 9.15876583582257 4.668211436116945
Mg 6.541507462376355 2.216274691655086 7.543638333298804
Mg 4.479696357083538 2.381032491260052 5.326432805978584
Mg 4.748873515001938 7.392183183816271 8.718533219266089
Mg 5.871875385355801 6.349564543059538 11.486728120968234
Mg 5.854030364161988 3.3830705579260134 10.280230945058639
Mg 6.12704577386213 9.48065587499286 10.775897283444197
Mg 4.116007788136974 5.006856176870813 3.915479662197506
Mg 4.387304960029497 4.4297140315104615 7.617405699261248
Mg 8.366536110303956 4.711596846421981 11.455307045955417
Mg 4.001631466898808 7.845532376402211 3.000375642382694
Mg 7.172530161554887 5.479000813739049 8.55156984785159
Mg 5.787710717998857 10.186291923280681 7.655529122300308
Mg 6.609419430767835 12.380352216710097 9.574083489610148
Mg 6.858238001344359 4.776306562273631 5.654929082519078
Mg 6.772966150365177 0.5438842241604214 4.902595397385558
Mg 4.692368568162396 10.60739671362539 4.826156924655082
Mg 5.5910698749649645 7.645777184645022 5.779573249871232
Mg 6.617054200742842 12.763093755277342 6.351244502756579
Mg 6.6909067584773325 3.051304976762809 3.1832487550852178
Mg 6.574732556782109 6.202982222678845 2.697146079675069
Mg 8.533935494782149 7.86684955537703 11.53295107315783
Mg 9.13376383221056 3.076672476891074 8.924930691596655
Mg 8.964926578219542 2.4797825035996257 5.488700475324397
Mg 8.108245556931093 10.313712344274975 5.313874293030895
Mg 8.011450749077728 8.279850247904124 8.14136007029254
Mg 6.6430384196101855 9.210451779246231 2.900912453427562
Mg 8.99387533587825 11.331758389869345 7.994706286021097
Mg 8.50019877918085 7.3598526342279 5.114296432570245
Mg 6.76007364386737 12.414551955490861 3.3126498224213634
Mg 11.552019393666653 2.1409319394951534 7.104421418670588
Mg 8.776314439800208 10.881436309085293 11.043526789256816
Mg 9.99596057735771 6.271840382486556 9.553129887831533
Mg 9.914067396215083 5.157272438576832 6.737554883359104
Mg 9.224790817043358 4.8776883008298055 3.488159771357708
Mg 10.764390797171421 9.190754818925189 9.605989322754038
Mg 12.029305840409435 4.173068840468795 9.222814080741456
Mg 10.698701360128196 9.037154857376294 6.660757778859158
Mg 9.275597952601064 7.734647119877364 2.1394078342861027
Mg 11.661376787421354 3.4537744700309525 4.443174809333767
Mg 10.852123675735545 9.5770402890401 3.809618004925434
Mg 12.41950902930556 6.998067225979279 7.979040599441787
Mg 8.931217485764721 10.873141705585494 1.929465576982389
Mg 11.596709113945304 6.7029316159110195 4.712739645262706
Mg 13.322863103837186 4.610369987802443 6.51699134657464
