54
Energy = -53.92169484 eV
Mg 6.560347288467568 7.4694973649584515 0.9198607405609228
Mg 8.907357802522295 5.722606868785954 1.0605594591282441
Mg 6.878823760818861 10.426638091642754 1.5450225473116217
Mg 4.206097480654266 9.229908949499498 1.4649374819118977
Mg 6.227603102452894 4.393454895868243 1.3417015430783135
Mg 9.037619044066199 8.437528195650955 2.5760277011683588
Mg 4.21165425174061 6.404238582761665 2.6159815026160502
Mg 9.034988271393145 3.235855772311721 2.769358103634146
Mg 6.43489061056056 1.7631817159626575 2.919061133756122
Mg 10.7164626249086 5.9240249553024 3.35754347627876
Mg 6.292927524476084 8.377171157201033 4.043147528888648
Mg 4.455161083242571 3.73886943070083 3.9529550207657813
Mg 4.8033714708173045 11.293821384414503 3.547645609089873
Mg 8.0264245444648 10.805925755219668 4.405716040073624
Mg 7.2060058771416395 5.421252003422352 4.002019160339595
Mg 3.410395239674149 8.673791880558758 4.499114713308424
Mg 8.955078851303922 7.307405686849155 5.472421195588527
Mg 8.244363760379002 1.4414242283540355 5.175367940496593
Mg 6.665461885379022 3.8568511011512627 6.765798223509544
Mg 9.697362185902959 4.118650897123299 5.6928896089749355
Mg 4.8629779620518 6.290244938253322 5.84624703207101
Mg 2.0635674459026476 5.738083275327369 4.746663046143565
Mg 5.200181157699275 1.213897254974989 5.6845351643895246
Mg 5.581616470377288 10.74312822251804 6.361006097172722
Mg 2.54713397677103 11.141035368289494 5.95788784619801
Mg 10.699573335884375 9.635537689102762 5.2848273270426
Mg 11.837498422852434 6.3745286286418485 6.181804358627807
Mg 10.057024459674958 1.6384954278237747 7.476477756154931
Mg 1.0122788461926042 8.320156061815462 6.190972180795299
Mg 3.4288050761432687 3.5654627927256204 6.792740727760189
Mg 2.166138982129601 6.079238969230875 7.7739964910814106
Mg 8.634122634556688 10.472667011499674 7.445288984772664
Mg 4.2241673867319465 1.2123674106485571 8.5419165648581
Mg 10.61837161530145 8.324048554920516 8.128736128402629
Mg 8.635954959203623 5.815239245369384 8.122146543305696
Mg 3.9195349533462798 8.585581489429943 7.770659428959318
Mg 12.960740568201064 6.599088700159136 9.04823157834036
Mg 6.808690107924409 8.09356412856014 7.243727524235413
Mg 11.485471335090695 4.143114440072314 8.303794081899754
Mg 7.197404370541635 1.0180352327041422 8.10961219635991
Mg 3.5452894325103603 11.813472724175206 8.56041332028432
Mg 1.29699716340716 9.605967322219302 8.870748098993738
Mg 5.359224036170033 5.953965170139248 8.880680079539015
Mg 3.081114763128751 3.9402592705008175 9.800911823315731
Mg 6.068242167407111 10.293610718476117 9.374818368858989
Mg 2.8195345744587517 7.092178525207618 10.559090022049649
Mg 5.992890795868509 3.1339530885507836 10.07097996140089
Mg 10.492628085001483 6.041042329783705 10.57879975558633
Mg 8.351964976154063 8.34330179490341 10.033087072535787
Mg 8.933908232976517 3.2133698774455404 9.73235367692397
Mg 3.4419761124617385 9.993090150897475 10.872071147248311
Mg 5.609679814902414 7.934607272195352 11.361827375441466
Mg 7.543773812594627 5.551115498650297 11.247333874993362
Mg 4.644583369120012 5.139910560154498 12.013943696881716
