52
Energy = -51.75471208 eV
Mg 7.3092093682801424 7.420559614184893 0.494441104611888
Mg 8.273455510514353 4.683901145040609 0.22420884880034683
Mg 5.046206957909196 5.1096723280124134 0.6801559376104084
Mg 4.891683915207547 7.85816011087107 2.0871401773757885
Mg 9.758387119541311 6.583836362189918 2.1920251317769215
Mg 6.662643704650059 2.5513375609630953 1.4139415570669553
Mg 7.683225895136391 8.543995462359259 3.305331632358573
Mg 6.7411259825225684 5.213460503602464 3.0817104935509607
Mg 9.400750627361095 3.672453220900692 2.9561087644268422
Mg 5.408248366176091 10.174916627321123 4.294771737301987
Mg 3.3311737170825464 5.533533853751275 3.519363081005769
Mg 4.647413640681693 2.8412480704601646 3.732311237713863
Mg 2.8145642438261302 8.606202473325988 4.141259635304506
Mg 11.435921278303407 5.44585881871957 4.680059908821639
Mg 10.415272929312913 8.561905414034715 4.5297006999418965
Mg 2.8626793527116203 11.287658709983578 5.663657652234652
Mg 5.471712942251882 7.046388809469911 5.044078002175807
Mg 7.414781983286148 1.7617640996360475 4.195721375933464
Mg 8.583300834495574 6.124963942498309 5.186053650682883
Mg 2.191622611083979 6.630797136103467 6.270826766996183
Mg 8.247177690876402 11.028962884449292 5.208314693193846
Mg 5.664840350813677 11.770697749647686 6.861771185261283
Mg 6.47303941130483 4.0377233455909876 6.094927788213616
Mg 3.2557567688174096 3.8254160442095375 6.2828288098831555
Mg 11.561611080125623 4.362225376575557 7.764995438802674
Mg 0.7094776712228604 9.324603761442399 6.22404669240758
Mg 5.166520945538009 1.3716215224743613 6.655388124438847
Mg 7.589539007808356 8.481555425581972 6.674847310585169
Mg 10.38722064904724 10.01070292599142 7.153094863063133
Mg 9.50907918677803 3.272677095862763 5.9474734037976935
Mg 4.976415684109304 6.042489102546902 7.775158220784195
Mg 11.014026083140681 7.14416549881628 7.181348543334785
Mg 8.1741659284065 0.7451271543195163 6.904437951157793
Mg 4.294212913947088 8.92896757698961 7.080815416445973
Mg 8.093587302921813 5.626222944861977 8.229178581338587
Mg 4.769199424106461 3.276272320611032 9.030347905895882
Mg 2.163660291834126 10.569951284052026 8.58629490962422
Mg 0.6603279188569269 7.800933420721945 8.680512207343371
Mg 6.795583014944319 1.2515392885205086 9.400575931117979
Mg 2.375438359766262 5.211955656841802 9.063771184908342
Mg 7.987604183944299 11.03908174239717 8.614346752394919
Mg 6.430120917455462 8.049426383322803 9.323429546717412
Mg 9.558146967238985 8.273804580090472 9.50733663040423
Mg 9.470110842461002 2.6136435470764456 9.041776552480028
Mg 3.344681550614744 8.016647280355654 9.935434608444256
Mg 10.305379231396461 5.251466305500379 10.376017459381561
Mg 5.100024738808365 10.696661792261693 9.709134157949373
Mg 5.05616903097876 5.61166367148856 10.923914323379503
Mg 7.410591831923231 3.739771813781971 10.96621880344291
Mg 7.918468661914463 6.6871296261899085 11.631595495107689
Mg 7.853832489846291 9.89053896544501 11.38372597055797
Mg 5.399176277040461 8.452307036875638 12.152640530772734
