51
Energy = -51.23403475 eV
Mg 12.330575666512727 9.873527371238168 6.4033299403051
Mg 10.42984658102806 12.066536760636687 7.828917364524225
Mg 11.472913230398825 8.611065869831904 3.7326705543048444
Mg 9.928806493255365 10.910799739658467 4.783224674823395
Mg 7.607953780056626 11.383482347399012 6.570067498428871
Mg 10.729426096817289 10.57917518328505 10.615508359825903
Mg 5.025486051890205 12.24568635851009 5.218511348544307
Mg 8.889623784625446 8.775762837700581 2.2482580170819753
Mg 7.869661606915338 11.676850837068589 9.60401435391996
Mg 13.144051423689984 11.06100212651715 9.055546082905153
Mg 6.952654326626397 10.63375258574475 3.6226660160005277
Mg 11.191798228138857 6.9901360416626765 6.30758725030192
Mg 4.95741708609532 11.56672284503043 8.202912107043407
Mg 9.720320429522273 9.25447057507784 8.00136962107977
Mg 9.68939653610509 6.122565376319207 3.7096131250230178
Mg 8.164597434243227 9.661607452194987 11.796774039845825
Mg 3.77926716681167 10.008502262074895 3.4902199204048734
Mg 5.270776121147371 9.838729510959618 10.794952637699698
Mg 8.33503570102122 8.422547685853662 5.436652922229323
Mg 5.232493398684406 8.56160413191918 5.794080036409087
Mg 2.691226238829657 10.873770552967464 6.255295037980835
Mg 10.007056578200743 7.4952286510799935 10.689822825297677
Mg 6.068793852134983 7.911015797343404 2.8419893452897975
Mg 6.799222251873908 8.968662225709279 8.364662521303494
Mg 12.438933480384879 8.151371935813767 9.002267666724045
Mg 8.464101850898547 6.469036020893174 7.929479579869968
Mg 6.9663467193762845 7.0932038803700115 10.849989713397767
Mg 3.3952035644692993 8.963287902015713 8.461879798966821
Mg 2.100436127168842 8.026722965347606 5.687766708626521
Mg 11.223454886877391 5.274886373425528 8.818003596753648
Mg 3.2051742123201885 7.085653338322244 3.000948923405322
Mg 5.2779044052224995 6.346151651212399 8.07697907319187
Mg 7.680251493040616 5.816399982576935 1.5234679288437005
Mg 3.846470965896253 7.068240459359914 10.763264255200905
Mg 9.804263097598186 4.244517908955711 6.040885719752557
Mg 6.825118825313652 5.7975595746800614 5.298189552285483
Mg 8.747965792419647 4.623057507380929 10.54943055424034
Mg 5.1900028259393745 4.7630672984309035 2.7533102556125417
Mg 2.1692558611840327 6.123458977490044 8.107131908939946
Mg 3.7203750487808485 5.39667453174975 5.460482173836331
Mg 5.69699476886886 4.42412847830233 10.751056423774525
Mg 7.96974299083224 3.5367415774456745 3.485034019938451
Mg 6.9895464661403945 3.8412892209659613 7.8622866001985985
Mg 9.778269519354504 2.557186051439304 8.500152468420756
Mg 3.9228527418517682 3.4690290816799676 7.769813771760707
Mg 2.6874120286819014 4.288646534812398 10.426989686652945
Mg 5.48125653563867 2.853749800159185 5.193488675432538
Mg 8.219960574966414 1.6593288488219544 5.949351930579786
Mg 7.395767843667138 1.827976406973306 10.277990370764497
Mg 4.473733808200126 1.7405549110161966 10.2815241092364
Mg 5.856399053222964 0.9826223648335328 7.693570566421521
