55
Energy = -56.12691244 eV
Mg 8.443719174211727 2.497882623099894 2.419345565077476
Mg 10.027929683801396 7.49187298719229 8.240121020279606
Mg 4.580995522311639 5.056429532141867 8.415414211612855
Mg 1.2364149758326077 7.392515650824026 8.66315099252752
Mg 4.07863270870116 3.8335660021040847 11.22853741330851
Mg 8.717128507143032 5.539592285375258 1.5114159072551656
Mg 10.369780478368707 4.517269705729001 7.124813038607412
Mg 6.3203082544933915 5.877028623509686 11.082774807078618
Mg 5.629219185109232 8.872150291626278 10.470682386254383
Mg 4.316064420675588 3.252796866483276 2.736126831246661
Mg 8.304115865717085 10.348237524575273 3.245735364039911
Mg 4.908126725786966 11.065503023578094 8.417326167040239
Mg 5.912694180369242 9.292584273117743 0.9886330394105425
Mg 3.691074246472347 0.3790081908813171 6.205604878119664
Mg 1.9261014499737574 2.498271561648275 4.5147681652663865
Mg 8.905397284290029 4.999630408462119 9.674806084151646
Mg 2.001196803562845 7.971603669841914 5.598858857902043
Mg 4.524971409385134 3.2710040962545714 5.898288339733017
Mg 7.059537640550498 7.512598112197845 3.2001839480219028
Mg 5.899171415451276 1.0788611697906072 1.3427049163479756
Mg 10.185416337098628 7.853750396555306 3.2251809870019894
Mg 1.3648549144285014 2.0946211877210565 7.434628605862493
Mg 8.517941891100488 7.950125751622773 10.80045196694182
Mg 7.778253884252883 9.967395865472689 8.456939801813643
Mg 3.805292849100107 10.609070637671763 5.652685111243701
Mg 1.7026321765429728 4.336143397070592 9.493930372626188
Mg 6.865861043499755 4.438465045325076 3.9465159358045163
Mg 6.261701361439117 1.23497847609241 4.390074157642413
Mg 4.073519304753265 8.456495865079937 3.456002622409194
Mg 2.5650824746537846 5.624758829024348 3.6574928657788806
Mg 4.91231407989079 6.0510749076237715 1.786705933945951
Mg 7.194091947989402 4.171767288946659 7.061537491758846
Mg 3.359910224138196 6.73497903258179 10.791864520747898
Mg 3.647680380329805 0.2577711507886961 3.253622444108868
Mg 1.7180814772630189 10.373286718994004 7.75098842842822
Mg 3.9733545577688236 2.0110634937886998 8.801231691769594
Mg 6.914229970500014 6.982008277407522 8.191500881109791
Mg 8.977035411465637 2.1527942626660734 5.509592395920521
Mg 11.526779077217038 6.999611034343217 5.677536855794326
Mg 6.682889735385845 2.9048286305925926 9.942239574064706
Mg 8.389325614886154 6.5277889687804365 5.664423290596106
Mg 9.179095533036714 2.0334261889865237 8.53729408518766
Mg 6.3509147232883025 8.897649162573419 5.741385027048898
Mg 5.533268195210351 11.181787780600464 3.283038519686033
Mg 6.9224408313558055 11.71806540743779 5.9767219673129945
Mg 2.712573598665242 9.621403460482183 10.317450399772678
Mg 4.149948429709928 8.09503334946385 7.810887956176282
Mg 6.566833928153759 0.9818522796568045 7.437387539275796
Mg 10.17543710521667 4.643911584094129 4.039603706667088
Mg 6.83184679073191 6.741438831735501 11.22853741330851
Mg 2.018367577523269 5.077615982175089 6.544281491954381
Mg 8.787077499341033 8.570290213812445 0.7018859337293222
Mg 6.540088951724978 3.802476079709079 0.32621406832306926
Mg 5.05775690208791 6.2258759652545175 5.524240374497276
Mg 9.452985027066283 9.475451636459061 5.881206676213692
