55
Energy = -55.91362794 eV
Mg 5.982538136090798 5.982538136090798 5.982538136090798
Mg 5.982538136090798 7.5195718471124735 8.467349698965583
Mg 5.982538136090798 7.5195718471124735 3.497726573216017
Mg 5.982538136090798 4.445505425069122 8.467349698965583
Mg 5.982538136090798 4.445505425069122 3.497726573216017
Mg 7.5195718471124735 8.467349698965583 5.982538136090798
Mg 4.445505425069122 8.467349698965583 5.982538136090798
Mg 7.5195718471124735 3.497726573216017 5.982538136090798
Mg 4.445505425069122 3.497726573216017 5.982538136090798
Mg 8.467349698965583 5.982538136090798 7.5195718471124735
Mg 8.467349698965583 5.982538136090798 4.445505425069122
Mg 3.497726573216017 5.982538136090798 7.5195718471124735
Mg 3.497726573216017 5.982538136090798 4.445505425069122
Mg 0.9342742472041428 5.982538136090798 2.86171195045695
Mg 5.982538136090798 9.103364321724644 11.030801024977457
Mg 5.982538136090798 9.103364321724644 0.9342742472041428
Mg 5.982538136090798 2.86171195045695 11.030801024977457
Mg 5.982538136090798 2.86171195045695 0.9342742472041428
Mg 9.103364321724644 11.030801024977457 5.982538136090798
Mg 2.86171195045695 11.030801024977457 5.982538136090798
Mg 9.103364321724644 0.9342742472041428 5.982538136090798
Mg 2.86171195045695 0.9342742472041428 5.982538136090798
Mg 11.030801024977457 5.982538136090798 9.103364321724644
Mg 11.030801024977457 5.982538136090798 2.86171195045695
Mg 0.9342742472041428 5.982538136090798 9.103364321724644
Mg 5.982538136090798 11.184704 5.982538136090798
Mg 5.982538136090798 0.7803722721816005 5.982538136090798
Mg 0.7803722721816005 5.982538136090798 5.982538136090798
Mg 11.184704 5.982538136090798 5.982538136090798
Mg 5.982538136090798 5.982538136090798 0.7803722721816005
Mg 5.982538136090798 5.982538136090798 11.184704
Mg 7.59141610791658 1.7716032533477297 8.585294076187013
Mg 4.373660164265017 1.7716032533477297 8.585294076187013
Mg 7.59141610791658 1.7716032533477297 3.3797821959945864
Mg 4.373660164265017 1.7716032533477297 3.3797821959945864
Mg 10.193473018833867 3.3797821959945864 4.373660164265017
Mg 10.193473018833867 3.3797821959945864 7.59141610791658
Mg 1.7716032533477297 3.3797821959945864 4.373660164265017
Mg 1.7716032533477297 3.3797821959945864 7.59141610791658
Mg 7.59141610791658 10.193473018833867 3.3797821959945864
Mg 7.59141610791658 10.193473018833867 8.585294076187013
Mg 4.373660164265017 10.193473018833867 3.3797821959945864
Mg 4.373660164265017 10.193473018833867 8.585294076187013
Mg 3.3797821959945864 7.59141610791658 1.7716032533477297
Mg 8.585294076187013 7.59141610791658 1.7716032533477297
Mg 3.3797821959945864 4.373660164265017 1.7716032533477297
Mg 8.585294076187013 4.373660164265017 1.7716032533477297
Mg 1.7716032533477297 8.585294076187013 7.59141610791658
Mg 1.7716032533477297 8.585294076187013 4.373660164265017
Mg 3.3797821959945864 4.373660164265017 10.193473018833867
Mg 8.585294076187013 4.373660164265017 10.193473018833867
Mg 8.585294076187013 7.59141610791658 10.193473018833867
Mg 3.3797821959945864 7.59141610791658 10.193473018833867
Mg 10.193473018833867 8.585294076187013 4.373660164265017
Mg 10.193473018833867 8.585294076187013 7.59141610791658
