54
Energy = -54.1323253 eV
Mg 0.8697556280854228 6.561193722512226 6.008876325460516
Mg 3.1316478722752126 4.4471681567918635 6.340222737496086
Mg 6.093029784863154 2.52642884214734 1.4852752881608213
Mg 1.355142433627135 8.58931007978569 3.951517892999544
Mg 4.48148963767436 4.134787243684119 9.1451725354464
Mg 7.302550618968236 3.160670377160578 4.307192214944747
Mg 2.765044161599691 6.691250303599404 8.434582541221852
Mg 7.0761212666164335 2.4147248526388707 9.395094291993614
Mg 4.269199540419204 3.087149979329122 3.906832785834634
Mg 5.643297391602651 2.581927875491694 6.707135764437203
Mg 4.555531686743602 5.047982741388671 1.3147669838165112
Mg 2.58870535867184 5.709809558144201 3.568312766062634
Mg 4.333669557566037 8.147806867519728 2.6385348912437356
Mg 1.6744147468793051 9.341819008584787 7.028798546370031
Mg 9.277656117446154 1.6060048620190313 5.946721568236356
Mg 7.804848672533635 4.964340095877477 1.8556899321060365
Mg 3.534552627751926 10.54795770285192 4.3819097537433125
Mg 3.251634783120858 9.395763033042163 9.89949455274653
Mg 4.484419530084431 6.669681492829956 10.859187903598851
Mg 5.934028456307221 5.755744548680504 6.851992950633952
Mg 7.229272747066987 5.606951942086123 9.619850397056087
Mg 8.994645919890566 3.7354957080715425 11.364589342994156
Mg 8.373516219911354 4.218979374968844 7.180724360605626
Mg 3.8598781164165334 7.65476303521436 5.718684311839549
Mg 5.797258158655761 5.871136593377599 3.969568808962816
Mg 10.220775598125428 3.51570389987165 3.6134232302697695
Mg 6.103479785381127 10.558492338290472 2.532372207620133
Mg 7.845507462989636 8.01942045539665 2.5162430020545807
Mg 6.920969216403504 6.095558559007301 12.588162239907028
Mg 5.330795125228299 9.167929662881239 12.307105644514504
Mg 4.349820050962981 10.744642879161743 7.2591491449199275
Mg 5.618179116243292 8.22731879383764 8.402342080098752
Mg 10.06013601935969 2.2666960456651766 8.878842377567572
Mg 8.798453033701936 6.077012897619103 4.863666279327235
Mg 10.448419495153766 6.33578078686406 2.005208235467134
Mg 6.59815036919736 8.565058761758463 5.285205122993045
Mg 9.847778429638186 6.624209227606299 11.900161531755746
Mg 8.5195099474596 7.502199606677019 7.569359071029418
Mg 11.318556243779529 3.94154010942007 6.4728824901238085
Mg 10.449817864320895 5.356042162854678 9.154569339736195
Mg 6.0488409256542335 12.0282642890641 5.079211048350992
Mg 7.7716998247688736 8.457348488031057 10.487858541067025
Mg 5.908091078504552 10.998517034746596 9.961828666966102
Mg 7.494594475587596 10.625177644007808 7.342911932603243
Mg 8.096936329338334 8.53692074251025 13.779948035872968
Mg 10.71468755941086 8.451149854950135 4.153353907926491
Mg 7.701485833001045 11.146409740776969 12.383854824000569
Mg 12.245918858322453 5.7297159769869905 4.202475867770898
Mg 11.524229078706716 7.00071612225171 6.794354963772238
Mg 8.668423020166305 10.63238436645071 4.370669148521298
Mg 9.266631821403875 11.04999119340968 9.660231052705814
Mg 10.946045060435033 8.337428279749478 9.524641167401493
Mg 10.378163034904876 9.91070784107384 6.807373556117078
Mg 10.293943280287387 9.646782544444617 12.170995816268476
