51
Energy = -48.7973999 eV
Mg 10.995586333350506 4.178254360393623 4.662309615979965
Mg 13.551768150399859 3.6704166114586476 6.147964156489845
Mg 9.483045809672815 8.806955596529225 2.934779120455706
Mg 9.241800254540285 5.677852839518164 2.827517210924303
Mg 13.119500261247742 6.475741065434756 5.340956865477101
Mg 6.889896780406231 4.335146611084942 1.447570438903712
Mg 12.093533544205531 9.127357286441262 4.51428189752792
Mg 6.8866190766913045 7.348171816693141 1.86664735871342
Mg 8.175533374070277 2.949967628136139 3.9350323980577744
Mg 10.978219252526195 2.542499145109436 7.267924794681804
Mg 10.009195108011117 7.057586432392158 5.412736937716465
Mg 6.873956450447903 10.327360189094245 2.676719512451835
Mg 11.476055241730903 5.404166066499238 7.652127697002275
Mg 4.74876313462354 3.009478060826418 3.1534176336977966
Mg 7.293247626593075 8.231843704744097 5.023320927920978
Mg 11.95113987454228 8.384331737524723 7.491208133798347
Mg 4.20946346562369 5.816069395987303 2.2568424352634224
Mg 6.457556671375134 5.484459856140117 4.385409264838992
Mg 8.358810030906307 1.404346188846562 6.615300197429601
Mg 10.743785333907766 10.995412270594358 6.395010447772033
Mg 4.57594609526062 8.511391674809488 3.4135289518759255
Mg 5.83926873010099 2.893868246088223 5.932394512131945
Mg 8.519930327004635 4.583159943033478 6.575694430430881
Mg 8.013423129146224 11.171787075902195 5.36557073663623
Mg 8.770011002409845 8.745651356305808 7.557338978094689
Mg 3.4576173747351464 5.0093641740735855 5.165217649364531
Mg 6.910403685005692 2.9497883937556098 8.82477711576518
Mg 5.009196542781424 7.161107473025351 6.604661695810957
Mg 9.576152833309218 4.069921656403454 9.566339309287587
Mg 7.21096004057055 6.229044063944293 8.731715587399423
Mg 10.746259611286652 10.424923809849071 9.359839662491058
Mg 7.922592023121645 11.550593675504267 8.577696324145643
Mg 10.292306571869402 7.132776981611434 9.730568462917848
Mg 4.322950080630255 4.291423194896217 8.082640969083432
Mg 2.284444543043987 8.13112733447562 5.2132477633759535
Mg 4.896978780040894 10.206305137603312 5.9118891214817415
Mg 6.034172199113407 12.954800554300718 6.578222640669079
Mg 6.008503175513534 9.130604381001145 8.725263968231584
Mg 5.534915443288176 4.610329765610531 10.977614226622945
Mg 1.999517031513293 6.209601405831632 7.5528388575761545
Mg 4.23170064001213 6.953007396109955 9.575342922425316
Mg 8.26587203186203 5.908748086153879 11.57263701025668
Mg 8.419921127634721 9.218091138550973 10.749492840046097
Mg 2.8476107576661516 9.217441389355532 7.975583241601229
Mg 5.974564285592954 7.918129791429137 11.88068510539698
Mg 6.147576573899293 11.066114132851235 11.163953401799912
Mg 4.445591620269018 11.702895656380495 8.724654094699238
Mg 2.4425601769719014 4.703324110264126 10.368929966169796
Mg 3.540721289910798 9.654331817288375 10.919718248142429
Mg 3.2314344522543403 6.768177307951122 12.50786635022703
Mg 1.2788457628953125 7.7019054975044785 10.26546834117419
