53
Energy = -53.3079574 eV
Mg 2.651478062267941 6.971234079199847 1.3160695137854306
Mg 5.068488846175964 7.1737704731117296 2.8788641389122986
Mg 5.477324098997009 0.9263477258621015 7.659353500669597
Mg 5.2194780797852 8.565594915616122 5.784942720291274
Mg 4.2186082319342235 2.464684067854039 5.457821845657795
Mg 7.403736630352269 11.856309089421668 5.4142063237950255
Mg 5.927194921763038 10.32361490014716 3.2927130796451474
Mg 3.0859559331722997 2.2504680535114834 8.828033356032687
Mg 6.671826451864881 6.606242636073869 11.655022634893738
Mg 7.653449468832881 4.489492321506983 9.563998777050877
Mg 4.433332612415294 9.566803192321569 0.7312657125415917
Mg 2.233473308529853 4.3977522662828825 6.470987991170141
Mg 7.604077196381841 7.17563116450813 4.295208431557647
Mg 9.26846849993014 10.623397125148905 9.485403771745297
Mg 5.935275876493498 1.9236527124071472 10.433526405450763
Mg 6.445624932785531 9.470076064731835 10.573422388764143
Mg 7.515574543019937 5.60764316915628 1.4159038843682692
Mg 7.197001376370978 2.769572940437282 5.8758685058244025
Mg 10.0875894369184 3.436722168140531 6.645892279061906
Mg 6.048413274966029 7.188236088009262 8.434466857189197
Mg 5.171529139778015 4.19709721264668 8.011412157112083
Mg 4.432534626481977 11.478373455482046 5.931365640184445
Mg 8.83713156933909 7.6005616169949155 9.789888521994484
Mg 8.269747574190315 8.737941531505687 6.763688716638728
Mg 3.108498844638741 7.052429185857984 7.593273475206242
Mg 3.006363183443151 9.654500541710513 3.3484779605482906
Mg 8.346069725944986 1.5768378698092225 8.47736098485661
Mg 10.535718861246252 6.452934973651918 5.618772635651672
Mg 2.314430554226859 7.006978960951036 4.558033794497714
Mg 7.944167080652617 5.6230179787909895 6.850407564983965
Mg 5.150589732384386 5.5574332055757605 5.462556703006535
Mg 9.644476485463189 5.007878762771729 11.6307827247183
Mg 8.863588395636954 1.9816682464029256 11.585449696923309
Mg 11.135864596960335 8.671955294739853 7.945990513725478
Mg 10.70305712992484 5.704749563501325 8.581302869185658
Mg 7.469679696518221 8.633237906462403 1.2545159635248435
Mg 4.510381314077771 4.478488644373645 11.024485769596428
Mg 10.807703959705535 2.9238274010405756 9.605878426440492
Mg 6.985203243531202 3.7969805398321315 12.749728247894618
Mg 6.066207506804168 3.623566059532701 3.1923334445417293
Mg 3.860008524174221 7.431056013747247 10.576652665012421
Mg 2.113107035435132 9.594108587476725 6.199930149169526
Mg 10.087473922814334 11.251654100528238 6.661171781541851
Mg 6.65483902412964 11.091076076863247 8.118914615780971
Mg 2.0286387013600082 4.988785435456813 9.452672370502528
Mg 4.048304658815004 9.778272216259523 8.574924062218559
Mg 10.038320742198238 7.248237213471905 2.672357618384604
Mg 8.941732176199606 4.447023522641698 3.916345739195614
Mg 11.478897901185109 9.154540065264964 4.909563970514436
Mg 8.941293068037723 9.978730729924173 3.7315351382542574
Mg 5.4267953820478265 7.135895699957703 12.749728247894616
Mg 4.5706146433322425 4.616908596557272 0.7605950596179579
Mg 3.0091986355950975 4.38454705599818 3.31793394090588
