54
Energy = -54.50121785 eV
Mg 11.570792497286513 6.501891945729194 10.346627511097282
Mg 12.67185826552305 4.43367978247956 8.297005738698306
Mg 11.90075095356882 5.02773011391917 5.46850828227793
Mg 12.54436738764392 7.434461911078388 7.569023545195955
Mg 11.964026546425767 9.418824241973187 9.698592940748242
Mg 9.759523384024938 8.5714237835308 11.760493688208962
Mg 10.352573550042967 3.2949429514355852 9.979567268585335
Mg 7.596822060208945 10.609047514127687 12.354820330427048
Mg 9.43061943337491 11.165808978891826 10.003696598808153
Mg 10.49970563647374 10.488364119884185 6.855306726593837
Mg 10.311398811394113 7.672723755055715 5.567006931301761
Mg 8.614456807914 5.811794994474585 10.658419033405325
Mg 10.723899530912846 6.186710339750166 2.890187804682646
Mg 9.954096755852788 5.621556306533972 7.85044889119422
Mg 9.98962985016196 2.7303485190478027 6.752264467086889
Mg 7.771733974813531 11.990395407766448 7.585525223113949
Mg 10.093212520900725 3.415452990480568 3.7373467983555235
Mg 10.08988748007207 9.80212384302956 3.4850139190318403
Mg 8.227654306441785 5.206081234015136 5.489610329911192
Mg 9.26734048256507 8.313015059556248 8.67506791071037
Mg 6.620314374018501 9.618319939296242 9.062783228682784
Mg 4.690623758721506 10.470759968885082 11.236576138188164
Mg 6.682852138525041 7.8953505773362584 11.617860418288053
Mg 8.573591687062503 0.9526675035982237 9.229635302426368
Mg 6.708365577138087 12.569633654878334 10.401093103998742
Mg 8.671014828657524 11.930529630859194 4.780949016817544
Mg 6.69583460374479 6.693309295383352 8.028284643082209
Mg 7.5993730931078005 3.921826638242661 8.31681425025676
Mg 7.559124309348541 9.01699654669465 6.091945157399676
Mg 7.6433470220035735 2.7820093082169235 11.31652399851606
Mg 7.242394743130927 2.5653520791127775 4.043769274498024
Mg 7.805998194966316 4.855941735135099 2.1987507768226022
Mg 5.701585572306546 5.019764955125287 10.741690466909388
Mg 6.9908524847592 10.1991154880651 2.9138461273726004
Mg 5.660192781172383 11.319988526282792 5.479340763343282
Mg 4.587986435792001 11.83723209599529 8.347447704596696
Mg 5.6137159652190185 6.699109209689647 5.058796538614909
Mg 8.136810955358895 7.5335838413223 3.4186419510445147
Mg 7.140878205416385 1.2035112889295292 6.712699602007312
Mg 4.185656508573445 7.621882234934502 9.944666058036741
Mg 5.4086280074900825 2.2120370645909677 9.253892859945505
Mg 4.471228292805813 8.694298700903008 6.990889341878529
Mg 4.17594813036939 9.251143179520952 3.738586832572742
Mg 4.879577176063436 4.406351741447959 3.0820758357041456
Mg 5.417210538451626 3.699504194097111 6.109575843980548
Mg 5.6163171653965795 7.18890905896919 1.8552432023184835
Mg 4.016040305604076 5.017521831853798 8.31716437570913
Mg 2.6457986334129897 10.899462253248986 6.10491372542927
Mg 2.3784575625768545 10.06882312607091 9.250294595398488
Mg 2.8708818690330324 5.4238430014081604 5.455467864808774
Mg 2.846631318157078 6.643193681526424 2.7289481446113775
Mg 1.907035219745058 7.1647326777759845 7.8843766740812935
Mg 1.6317463474017113 8.179395248133327 4.975260713578124
Mg 0.25226446360438975 9.573360546411394 7.244225448086117
