54
Energy = -54.34204814 eV
Mg 9.459679151277054 4.036730244897405 6.298117388060301
Mg 7.6850684635203494 6.080906510975669 4.827647301759524
Mg 7.458424595391195 5.630887506535962 10.95848483377311
Mg 1.0082228611383206 6.71254919389073 4.214863353054368
Mg 9.009039641487849 8.029605958664572 9.715898168955867
Mg 9.394510468649266 3.840597437231542 9.305759298928526
Mg 5.991720744687383 8.118086095305124 6.517246097282362
Mg 6.135292260472257 3.4385651617446964 9.182646997692917
Mg 4.411626126367436 10.086928900277032 8.354584211162283
Mg 11.065964837268732 6.380011599572463 5.011362865060037
Mg 1.8674607820129963 4.452794398971838 8.941131712559999
Mg 3.6354539001059782 2.316999126858341 7.493866869568807
Mg 2.895268393492392 8.190862827133412 6.1975828028286974
Mg 6.2954764600868325 7.2627384409127025 2.4236226280897615
Mg 10.868344339928198 9.362104174063841 4.197524980006958
Mg 2.571939013694501 4.463099255147279 2.814881734318399
Mg 6.175693436713254 3.8005108053856165 3.0803978349524157
Mg 3.2277504418219407 7.4378412419965185 2.110649816641732
Mg 7.5581921075379475 5.863272626114567 7.825156795797355
Mg 9.398830148098149 7.270032258608373 2.5367316105113256
Mg 4.764167402042291 5.289303866631978 0.6844997504777215
Mg 4.540399834659204 6.041823425509284 4.604087494865169
Mg 2.753880409122495 7.528240628519896 9.361415583937362
Mg 0.5116905868857924 6.640654546184944 7.294861852838199
Mg 8.175642849044014 1.7662028936830751 4.714644340952073
Mg 9.10824232511843 8.259396998896761 6.6530445635679065
Mg 10.980557330924176 6.336647532160539 8.072281746202508
Mg 7.490132765531137 10.267039837345228 8.507788130865631
Mg 2.204791309867189 4.4622036471983595 5.863376082533457
Mg 9.487142665784303 11.265918280575297 6.280778159506079
Mg 1.322680265961388 10.025508084235145 8.209696760220357
Mg 7.749116092550794 9.351312176435192 4.186326421002096
Mg 11.958008423092021 9.372916801519112 7.039551992351674
Mg 5.830137197998981 7.755650198812328 9.555722840396584
Mg 1.7584557923932156 9.722420903521133 3.5013049255510738
Mg 7.914783743598884 5.186540924437463 0.8859161726142875
Mg 4.294698155892696 5.343389886958178 10.873251408413925
Mg 6.173500697247112 11.309914289333186 5.987562937664358
Mg 8.097417024148399 1.564060357145487 7.731845901663139
Mg 3.8120211872640932 2.2409548531296557 4.493388648871723
Mg 9.617478369202445 4.168247606792187 3.2830504179540103
Mg 4.715449319396638 9.322759752361206 4.040127321472113
Mg 2.9618202494089054 11.32701663800028 5.837477601053231
Mg 4.447323498813585 5.6115540567009345 7.625278704186001
Mg 6.163649348205767 3.606117135439638 6.1052436513335495
Mg 8.205366721845369 1.9238492487891978 1.6299507045145842
Mg 3.5363523243366646 2.417827921021796 10.606929038333655
Mg 4.096209625014391 2.2057344589964085 1.3941145830962955
Mg 5.895926049232897 0.3997331151916982 3.0919364683865025
Mg 5.586635519777771 0.3937773749565867 9.174805131775289
Mg 5.61981295115132 0.3835443372103204 6.112479695871662
Mg 6.334779469262132 2.996344678753243 11.615263757540777
Mg 11.958008423092021 9.21532521525776 5.744569072516433
Mg 10.690515525281226 5.909737085924488 11.187648667414832
