54
Energy = -54.20626334 eV
Mg 1.9655334372713786 7.951404462951755 4.569030566074285
Mg 2.293598928816777 5.157141772674805 5.66940907820103
Mg 3.222585227531731 10.019001942085483 6.281732480762924
Mg 4.400373948173318 9.226772379603679 3.224814587734187
Mg 3.8074732085014267 6.3326868593609085 2.865997344697943
Mg 2.3173997581360193 7.5557415322550385 7.751886914871977
Mg 3.4272588392176995 2.586478025099753 6.79678846890691
Mg 1.8322032138623938 4.7351881632036585 8.66162701502026
Mg 6.110497919111727 4.867206187377784 1.7707653512533648
Mg 5.0507401608717535 4.227687719608468 4.665467828451549
Mg 5.049229565332115 12.005331196613113 7.564283453927962
Mg 4.645958009935752 7.110225526344029 5.869574124372984
Mg 2.0812338678876103 1.811965023821705 9.355170524801178
Mg 4.454964488227211 12.076310980043099 4.3889182956557145
Mg 6.6279447972617085 8.049154510534859 1.2838839399365714
Mg 7.033188823387926 10.705001395225818 2.8664840071838933
Mg 3.802846917815765 9.771544615109734 9.328230693482514
Mg 4.885367750407556 4.996335182869259 8.172976636271802
Mg 6.476133610731578 2.391672262479128 6.563832906385534
Mg 6.93974087663045 7.000070317279784 4.0531617725271
Mg 3.5676019282284197 6.827204166217569 10.361619121995716
Mg 6.21486017935449 9.716943260998221 5.666359134392747
Mg 7.972185325378151 3.820554835275206 3.9473910629914846
Mg 8.841255292805114 5.930721484056948 1.8167724886560992
Mg 5.02624134416317 2.1592298202031524 9.445415171335021
Mg 3.18498232016226 3.8752141413638954 11.194279542820446
Mg 7.046822906179111 12.863580329305181 5.302637166612857
Mg 6.1195710133470955 8.007866418455562 8.307382932528549
Mg 9.451341825874325 3.239293951174556 6.597994142046481
Mg 8.667413154813737 8.263921542611568 6.356403356093331
Mg 5.987051587766106 4.930173577157509 11.195453603023758
Mg 9.349805530171066 10.923310217592563 4.908905480654546
Mg 10.15329186613585 5.894652140315291 4.587964146503676
Mg 7.41034698249756 5.4819752342786705 6.589182357631754
Mg 7.804798507035153 2.9778967692284457 9.220113554990519
Mg 9.3716383269195 8.615199913648967 2.9816271251663653
Mg 7.988933640815614 11.202148091738543 7.645090700629487
Mg 6.466586631860895 10.942619578845928 10.204685141472954
Mg 6.090441321786188 8.15512585250679 11.410560926778256
Mg 10.414980835803718 6.181413979596515 7.543914635111713
Mg 11.48227635188799 8.689167317193705 5.349723685240223
Mg 8.718085469986462 6.9966331073739205 12.232119181700183
Mg 12.368785425809566 3.5494604238063174 6.582982401712477
Mg 10.750555793864812 3.714660767374507 9.37094441327785
Mg 8.93728808574982 8.705519144569587 9.385688995549584
Mg 10.845991238467562 10.573764655625299 7.711059536653336
Mg 8.189664095039168 5.861928445256902 9.500289454003923
Mg 13.140433128474188 6.291276150672499 5.932997483128264
Mg 9.504654038901533 11.836450352087912 10.245478043785967
Mg 8.474255431868862 9.986316089554954 12.295440555694473
Mg 11.16429553193221 6.512276565865334 10.56266257955862
Mg 13.314896548626432 5.2515115328881325 8.815754543077306
Mg 12.480429403566577 8.222154713375488 8.413392817176936
Mg 11.297717253509862 9.548387494726704 11.042216186185819
