52
Energy = -49.65747309 eV
Mg 7.5177067222708756 7.220044362004843 11.657387635541156
Mg 7.620005911655451 9.489290371049396 14.00955147119263
Mg 11.50480269447454 4.562653231285173 9.400775711058278
Mg 9.492617119385914 9.536140925315227 11.619290655861885
Mg 7.71995000365817 1.2076749662883461 9.854220420955905
Mg 8.369412123124915 4.374249499480182 10.458625193447917
Mg 10.214733073904554 6.937386501590141 10.454942024688128
Mg 4.872489721657854 5.816459781172498 11.509855157325319
Mg 4.937267088396671 8.451669219829562 12.859507176466584
Mg 5.2476712636486615 3.341259198192507 10.02088467731198
Mg 10.014011813489644 2.416319201215028 8.01090877122144
Mg 7.859559285429879 8.854624704660221 8.951173498031894
Mg 7.98185321330742 0.4271443632368385 6.827736129988947
Mg 6.713440103499988 10.716003986044381 11.476790498515127
Mg 5.237332344541074 1.034401619286482 7.988678295019881
Mg 10.945420762992677 9.647830677244745 9.010334438596823
Mg 9.038775541877248 5.753087362742362 7.682731961543956
Mg 7.167083130948275 3.383196186287723 7.706281803387002
Mg 2.4043505568243075 7.92181932415544 11.067848040908771
Mg 3.2343089830111404 5.8410068227197 9.034893875669894
Mg 11.922305864852364 7.041211896635861 7.863508633926261
Mg 11.412156297526607 4.472814676912249 6.123294124567826
Mg 6.289802901073729 6.166127617935217 8.813574725519063
Mg 4.985332090929972 8.850038681461095 9.854826283431965
Mg 4.153798480070058 3.7488584146390154 7.097981383348955
Mg 8.877012335236875 3.0787544063572625 5.203603113953104
Mg 6.316048634675936 5.680662807682293 5.763086642158191
Mg 12.062066518406644 7.058007018990842 4.797287906315207
Mg 3.2629138959578503 6.457727212528452 6.024523759690993
Mg 9.041334012872175 11.851246036239434 8.47501881252021
Mg 5.982369649853992 2.1117976474040057 5.092296704164672
Mg 5.502683178571199 8.434757734973646 6.839489757162697
Mg 9.432925272198426 8.480911932536536 6.407016302306539
Mg 6.101494228762938 11.71793974590672 8.881046253339385
Mg 9.142195383259512 6.001855202760443 4.572612398310782
Mg 12.30506574343889 9.591135101518253 6.314897679763831
Mg 2.6232450709191357 8.718925067722266 7.972752265253285
Mg 6.913490439817526 4.274140646223702 3.1273812407877375
Mg 4.002868820372841 4.2788645435210775 4.056849632661628
Mg 7.2589870177364295 10.810607928998488 6.263668372098008
Mg 7.161589378892018 8.32865403184417 4.410258915129573
Mg 10.121463353762541 11.382589643407304 5.501529255500346
Mg 4.032885317878174 11.291484280850637 6.882467499326407
Mg 7.960265551099619 6.72194272116149 1.8389376695212454
Mg 4.649746997491238 7.068897366837497 3.2010339223954247
Mg 2.9012360562309274 9.209031700620196 4.96796459056614
Mg 10.01911840901927 8.612715995198881 3.1980832565073305
Mg 5.200739090438422 11.091341593051473 4.151584354433389
Mg 8.104681717977108 11.096919164125948 3.217441037282048
Mg 6.356960849272056 9.06785248115288 1.5400253053306496
Mg 3.483436815300964 9.719801840132153 2.0682702059605353
Mg 5.611072390422938 11.92389173589473 1.2736031378145374
