50
Energy = -49.31364689 eV
Mg 6.419538650134449 8.52954572924165 12.845158536775896
Mg 6.064023139169532 5.694990839648095 11.533030721613983
Mg 8.552949145633686 4.448977153123972 9.712244733997473
Mg 5.933567158874105 3.0376653133643274 9.96339927258056
Mg 4.060538674222341 10.4252546793413 12.859755967814854
Mg 8.88053678434996 10.08328733052384 12.051853254345778
Mg 6.074464327286654 0.6309087254220681 8.147884302221483
Mg 8.57108645971313 7.297657046219273 10.958414441081677
Mg 6.322365227271568 9.173280261878881 9.809917168978943
Mg 3.921125071307984 2.7813472414155416 7.695407449612338
Mg 8.78976124570763 1.7341623256895364 8.091276487903986
Mg 6.339365571656946 11.671916484396414 11.418081094411555
Mg 3.893959912001481 7.8323872323860275 11.249682014022872
Mg 11.073021101023159 9.312544194750146 10.052502400434392
Mg 3.752753312206046 5.263268027382737 9.554610794018586
Mg 11.169447623164217 3.5350880058828764 8.122421473585984
Mg 6.4446663917705305 6.535711393393306 8.476656258093252
Mg 6.829344613243309 3.9111165459796875 6.981890797465876
Mg 11.036150925255324 6.165604552489773 9.71161609229728
Mg 3.684226345348536 10.77684365863955 9.899012065906916
Mg 4.3021663134240775 0.4984186346690134 5.812449154793652
Mg 9.727481037016485 3.2496276282490184 5.445656939448126
Mg 8.916632324957886 11.475373926162423 9.415763174246925
Mg 7.2200159181821535 1.4351386060868345 5.350164583302013
Mg 8.798626624456192 8.649157576424173 8.151725919208753
Mg 12.06894126433902 5.292039274853074 5.76187043216865
Mg 11.117924431846847 10.479538404069407 6.92071758245395
Mg 3.572709508952711 8.128781850720882 8.241778803203232
Mg 9.355040119246992 5.991670253157354 6.965052995009266
Mg 4.734644163724181 3.2327187582901953 4.651407722607513
Mg 9.882400680789607 5.945906183699033 3.7497116564687727
Mg 12.004858381055653 7.7812045026077765 7.554249337833067
Mg 6.0175085897879175 12.008670422279671 8.306953604428276
Mg 7.422409163093411 4.063398125174851 3.554192120742265
Mg 4.02032321934676 5.574177299367189 6.4973137554744
Mg 3.498750113325449 10.940239405872969 6.8286036816531865
Mg 6.155532341701939 9.249822049186932 6.727310172928805
Mg 6.8174166583136735 6.560117826220578 5.37852111078586
Mg 8.421072686504692 11.580288017634183 6.484060605757749
Mg 11.863951781278416 8.162521998168511 4.6804696466393585
Mg 8.92584085061948 8.704668604883693 5.161240437462752
Mg 3.5950975055386203 8.205620584998583 5.183071848825478
Mg 5.890887561245379 12.017552690000441 5.046464399849206
Mg 4.770679352014818 5.979831153093553 3.334071997791193
Mg 7.5196917102194245 6.8616295204277815 2.1533701267183867
Mg 6.070997003356921 9.088743547402263 3.6235437487003606
Mg 10.124593941488865 8.769707803231759 2.2879510148122204
Mg 8.637677073273998 11.260961737887301 3.4587000709421787
Mg 3.5669100034804684 10.83316863052334 3.7738831346825394
Mg 7.621566103730039 9.696978867046663 1.106415115953021
