55
Energy = -53.88118649 eV
Mg 3.8320355300646534 5.878802417321087 11.31686115089297
Mg 5.630887724258968 3.167697890576463 6.746626243680987
Mg 4.0625295870324285 5.755918796845477 7.923941482143859
Mg 5.919720263883811 4.026799328794621 9.856808075388171
Mg 3.4328443952692536 8.483102501951407 9.603386397764485
Mg 8.474788394914448 3.1737821973720814 11.572543549346111
Mg 5.811900194470297 5.748449444434978 4.809287514489392
Mg 8.475398698986151 3.0450423825081847 8.342590882970986
Mg 6.89104494761642 5.834876272323672 12.485155093516699
Mg 5.9939220601766126 7.064143892994747 9.803156876953262
Mg 5.3290853812934635 8.484691151355522 12.364278139100927
Mg 6.991286962811451 5.6180682645090645 7.478396118067377
Mg 8.483042231822937 4.009681075032561 5.370343911041185
Mg 3.824268506350605 11.095329475753681 11.307246610759467
Mg 5.72575806120168 8.476164490834234 6.767011985731053
Mg 8.48093833476976 5.604134376559013 9.991869521308995
Mg 4.062249705128804 11.199217569090063 7.917728130012679
Mg 5.991399010141841 9.894626180743503 9.798851942703056
Mg 8.486705503703527 5.799504194194842 2.819795704857481
Mg 11.322145126723075 3.150827978841183 6.753809305180607
Mg 6.896137463857984 8.473716531722685 3.400706826837462
Mg 11.03779612885419 4.0262526252179125 9.855791659619666
Mg 10.064710496853966 5.833493440755033 12.48118259614765
Mg 8.47924841954373 8.48277969733125 14.060601516041952
Mg 8.489257204761229 7.0496783087524895 5.431798731696135
Mg 9.97321142270067 5.606751406244933 7.483431776729521
Mg 8.480441853268355 8.481768429112135 11.24978855314592
Mg 5.816820784867945 11.20204749454295 4.796638092352679
Mg 6.891693205253444 11.133312085795191 12.476619578654493
Mg 8.47894538872528 8.477915983862172 8.243068664667804
Mg 5.917189650854984 12.93199607152674 9.845474768129149
Mg 6.990538942492973 11.339427218436285 7.472950491690383
Mg 11.1495622963007 5.740412954297819 4.807687205711703
Mg 10.968286622092414 7.064854117116518 9.801936351173532
Mg 8.483394036878513 9.906173657574518 5.426254051825209
Mg 5.631492582356976 13.785238183330726 6.738486349803157
Mg 8.479235214924122 11.359737559946257 9.987436660352763
Mg 10.084689274863301 8.474025665734066 3.407685876280855
Mg 12.897261508996712 5.75112626182489 7.924053470597295
Mg 11.62914069639255 8.484514718546821 12.360377561357739
Mg 13.129982595831198 5.846318953561986 11.3143575142336
Mg 11.23397073208955 8.48040082926358 6.769333813542686
Mg 8.486356670519758 11.147275100549605 2.8106126246621046
Mg 10.06402101514689 11.136747522694325 12.47844962235443
Mg 10.966331554626885 9.898682342108762 9.80021243446432
Mg 8.478143200525713 13.802593346764287 11.55605162675813
Mg 9.971976134196694 11.34660511227669 7.474750472766468
Mg 11.1489290759155 11.214899490564267 4.801445866189678
Mg 8.48004002916688 12.942318213119533 5.360175459126524
Mg 11.033834923513353 12.935174422818065 9.84362015008532
Mg 13.529962331540467 8.478996272270093 9.617473156592464
Mg 13.121835777616147 11.121450021419871 11.308425512504584
Mg 8.477394170482013 13.91553143809849 8.320763563999328
Mg 11.319827722807181 13.805197755710328 6.741909253533015
Mg 12.892983237615901 11.208319872127127 7.917352497517087
