51
Energy = -51.07390595 eV
Mg 8.307052346310268 12.653151928557872 6.957281942669471
Mg 8.116709209885565 11.377121559030435 4.17362083720847
Mg 12.138081949359735 8.17521207243391 5.632746441074537
Mg 9.903347822097592 8.642478979055053 3.770497298937034
Mg 8.800191140428387 6.428551134698314 1.8359145814810478
Mg 7.851082107142581 9.442220451966397 1.857718393182249
Mg 10.095987539504485 10.295637787713263 6.29485654618555
Mg 11.046771751397348 5.81443433909511 4.157623402287617
Mg 5.688052899883781 11.320173189258812 6.277901932166894
Mg 11.936097285018628 5.676753545899522 7.215888763257356
Mg 11.626491338600314 8.689930385954142 8.541143440187758
Mg 8.516524548520222 13.830146863848077 9.684223375380492
Mg 5.302535067937391 10.215003591982267 3.2859463226954824
Mg 7.8073621501277115 9.796377422441678 8.42332179167097
Mg 3.006197096666429 8.197496434860856 2.834267364438027
Mg 7.169035644475582 8.761161437393934 5.359829090530129
Mg 9.139369283182985 3.5977609181342207 3.0205988305850853
Mg 9.169403279346735 7.232877732626008 7.217637856888777
Mg 8.036791099745114 5.927553011615227 4.731167587038463
Mg 6.003249947692565 12.206342989756216 9.167002024717265
Mg 10.70220281745741 6.1526864455635915 10.011046361104025
Mg 9.876500957565648 3.6620208568321595 5.998407347846298
Mg 5.86703447816745 7.284699061424559 2.309275072742548
Mg 10.825610441082485 3.377085264122631 8.765406080896813
Mg 10.313587997290268 11.45447839794194 9.15242267460507
Mg 3.375382406226097 5.300855355890985 2.574919542689769
Mg 7.012991711704859 2.7899835481074406 5.258371534379149
Mg 9.809278096186688 8.907492417287184 10.956284959044053
Mg 8.05092087206225 11.371224189444714 11.332901963900454
Mg 6.216789058572682 4.323002953589189 2.765182692620187
Mg 3.6118477225170875 9.186102027810136 5.606872672716112
Mg 3.7723926056277914 10.19472355671397 8.493888657367815
Mg 5.567397903689846 7.782899540488786 7.784919832349054
Mg 5.121765714135017 6.414887281718994 5.143594643107271
Mg 7.542460673784812 7.057621686223534 9.924942266691701
Mg 5.651788384796996 9.478086933463121 10.776609033877627
Mg 8.183368193263899 2.0150180924259886 8.003342493371521
Mg 8.411456094891648 4.10423680331291 10.289931015618011
Mg 6.990774091485968 5.0308632760079455 7.526565741644694
Mg 8.788386329832433 6.159742976463959 12.55568548242107
Mg 4.03496945621406 3.57359773856681 5.062736110653176
Mg 7.626655164141746 8.916944058836753 13.031631360417105
Mg 2.118895471631376 6.262406828203423 5.124768363496726
Mg 2.083082877322563 7.773030022042752 7.7249968746838675
Mg 3.6618551252923948 7.23949677450451 10.161979555557684
Mg 3.587465181494434 5.183151317845134 7.717115311945705
Mg 5.707269232362321 6.692697356511107 12.40658521625009
Mg 6.3687063946240166 1.7925862014976506 10.491881275140578
Mg 5.269591901652738 4.653567191409479 10.144198477759426
Mg 5.170451419652558 2.5283248141417944 7.76833158193377
Mg 6.7998043726594295 3.8207279406467647 12.789238757716415
