54
Energy = -55.04114316 eV
Mg 7.967497594752097 10.507617416607735 9.404266775265697
Mg 2.2327714274621226 6.584521168775287 4.911583133859506
Mg 10.585352978743442 3.9917849713905538 3.1651760208931696
Mg 10.655495594921994 5.497237612812204 11.18423762011877
Mg 3.564145402564667 4.259540737643396 9.253571540989462
Mg 5.481092040891451 5.741018128820328 4.320468874648186
Mg 9.334576390825694 2.583978736659869 10.784792679386694
Mg 1.9866782041995357 8.81953315322994 7.200362876689701
Mg 3.801302145829566 4.134835626320188 6.257267894714086
Mg 3.6926660652614416 9.26175312900869 4.7502295796918395
Mg 3.7086271882936446 7.346605291679046 2.351489618300913
Mg 1.3752490330266325 5.723109161009539 7.675213804554833
Mg 5.939575580737167 6.007941147140397 9.663604765761862
Mg 9.750298601012322 6.6642709169709144 1.932940550307653
Mg 2.845379164505439 1.5259096662265454 5.372109195255874
Mg 5.404297051341596 2.683911158173259 3.7493022632527118
Mg 7.731979848262775 4.764331282648911 11.746052322521054
Mg 8.171069004609157 7.6438313200170835 10.901278902813075
Mg 5.541063252500158 9.96516752990167 2.409641213802085
Mg 4.5964314272249425 7.01895729811482 6.993686797120143
Mg 8.526965231181817 5.997045819980184 4.876251867027537
Mg 11.615811734670569 3.2459264187053622 9.108018638515984
Mg 7.579635190416268 7.648969197043806 7.6628681253126985
Mg 9.094207740656216 10.116338298210293 6.685220800257721
Mg 0.6957735626321837 3.863854960732045 5.346461625967306
Mg 3.1985298893170615 11.809143226311084 7.020901624730051
Mg 5.170241237409747 11.909862082723546 4.777391010731289
Mg 5.506560813863585 8.99392009411405 10.147053893331188
Mg 7.134518305236552 12.447866315225758 7.025936436469155
Mg 8.332051725586672 2.84979860624159 4.874396391555186
Mg 7.976312072427222 11.297412093668743 4.097325597498945
Mg 5.527305555789728 9.841258835367555 7.240122941388071
Mg 8.413252762299031 9.593555453136613 1.599380044545614
Mg 4.898919209744078 4.714944015491775 1.3534996488434832
Mg 10.557341125543267 7.423786211324955 6.628401393512986
Mg 3.0750725003259247 7.318141603969788 9.675287657901997
Mg 7.736663610321733 4.286484470583328 2.2645679851284743
Mg 2.9391811225541344 10.405926195853642 9.565003100674973
Mg 5.279490769214234 12.239409418423847 9.323993422722051
Mg 9.029446178947177 5.2866062250740935 8.689370226645059
Mg 6.713831989084275 4.630356598894354 6.922469572305672
Mg 6.054890571086777 1.6502696423616436 6.4957707370075815
Mg 10.82061904557443 4.283265933752914 6.273305281573507
Mg 6.421171069520624 2.9087401602972367 9.47672717740582
Mg 8.921349409884627 2.322533064792482 7.780955286993121
Mg 12.215524341702363 6.033798157559694 8.644444323339957
Mg 6.74019275838591 7.148933241711772 1.8762142049754897
Mg 2.754387442527313 4.086736797025587 3.232286269897014
Mg 9.902004517504404 8.840200795405094 4.060394199080275
Mg 11.862012535215223 6.381432995869631 4.150091383080855
Mg 6.754229947512131 8.501949963123844 4.822240687678193
Mg 10.43967048469738 8.473766218031434 9.341920909008952
Mg 1.2226623966585075 2.631209337286071 7.875354872690897
Mg 3.8224790814031815 1.3885560244163664 8.35695015811681
