53
Energy = -53.46903014 eV
Mg 13.293558261993569 8.655154291905717 8.364452086717144
Mg 13.12995672798941 6.874486816376101 10.619313610245111
Mg 12.509490537997271 5.728871142577286 7.660217290670069
Mg 11.17239261316731 10.63935705044097 7.780108681601048
Mg 11.463257661140656 9.568064965318094 10.820642328151093
Mg 11.383379903498534 4.442077007933049 10.268276863689957
Mg 11.53603087945816 8.153395701283227 6.0183979097605045
Mg 10.21846572963837 7.518083005565822 8.997027545638167
Mg 10.59658689417242 3.337596738476626 7.612588396758224
Mg 10.493792557652068 6.826777831970281 12.043089074545676
Mg 11.195455208538512 5.360668592220385 4.825137141670745
Mg 8.96660686809269 2.3381214679182434 10.268501857129165
Mg 8.688815404876456 12.331234815829971 6.890495312907336
Mg 10.123330472333139 10.70038087153138 4.818774717370021
Mg 9.808564380220878 3.9581762530588223 12.768755621714911
Mg 8.196166384265812 10.441829456406198 2.347803874825874
Mg 8.96227628241891 10.931353748862218 9.71275923831715
Mg 8.882677547896876 5.880787908904363 6.754970770188131
Mg 8.650513877279217 9.192991608657376 12.275433594636036
Mg 8.527489346799673 9.068134564788178 7.015470013171999
Mg 8.322842905987 5.24794160929167 10.004617345698591
Mg 5.953376470149365 12.482000433358179 2.3798220366449785
Mg 8.351411250008136 13.02832926273574 3.9589311260992144
Mg 6.762947118189444 7.270873230835527 4.990756783029484
Mg 7.1699375775027185 8.11501587369813 9.756859734541138
Mg 9.614575596249727 7.9602409638277365 3.7565951916651694
Mg 7.021519540815805 3.2910609422333494 12.481848255093626
Mg 6.579194601457246 10.301170589987954 5.006607375327904
Mg 7.5966938627540905 2.829237480306516 7.52039032184775
Mg 9.15652172402199 3.0788366430227074 5.032834251081912
Mg 7.312501487034033 7.6148776073011675 1.7866494220824636
Mg 8.453336354713166 5.271666348238119 3.260679238999037
Mg 7.667452245966971 6.33270837848499 12.966800737108981
Mg 5.774728345076283 13.113199124058381 5.577208604835199
Mg 6.284594926048883 11.389365329632708 8.273087754459091
Mg 6.43584872494239 11.013943573000734 11.261306116171122
Mg 3.6835796378973518 11.545796983658068 3.921555691735709
Mg 5.403316646065042 8.517303019637765 7.369336847450573
Mg 6.086522420497479 5.636131007783866 8.010566770713055
Mg 5.7309912966735554 2.91614120202458 9.827003784651524
Mg 5.268127399892065 5.516298068087361 11.25912074537406
Mg 5.131840570653999 9.53076553364375 2.215301420272853
Mg 4.836645116720373 6.328996055003983 2.950520918061765
Mg 4.550018331648929 3.027462415750568 7.088106138316686
Mg 6.290555181948352 4.183083831220395 4.9931883533663415
Mg 4.092188172303315 9.941365568220053 9.79274558587956
Mg 3.6375003076806633 10.91095913872379 6.824129616623372
Mg 3.6606356060312626 8.571993988867627 4.8086919840696165
Mg 5.435113525223503 8.378602862059857 12.340606869777021
Mg 3.1866849327489692 4.971941004872056 8.904653216375374
Mg 3.747280766965978 5.738591187566871 5.870787313895845
Mg 3.0927984889922286 7.350296900903188 10.635767747398681
Mg 2.4919474265224033 7.902320968893752 7.736922283690162
