52
Energy = -51.17310507 eV
Mg 7.836680542913508 3.45600199195187 1.1351996291410247
Mg 7.254411589364467 6.349556612458291 1.2178413888798831
Mg 10.141150534615136 5.32575436472224 1.06625876693565
Mg 7.1292530917027035 9.145617885718979 2.3651054975491768
Mg 4.280729402811274 10.308615526202612 2.698747118619889
Mg 4.799636880668792 7.284663857850658 2.886552535902128
Mg 9.891993875149621 7.794336542349869 2.605816989652236
Mg 5.348514660665317 4.11592389294904 3.0755995292989016
Mg 10.423050572054628 3.047057055779472 2.854516155940869
Mg 1.9971146807441065 8.631098763995391 3.807462868667565
Mg 7.661267139121493 2.0812962137689857 3.741610333869923
Mg 2.75252002440294 5.512144746579109 4.147429845848262
Mg 8.260840497745125 5.21263401453573 3.8689276417609784
Mg 9.5323345925299 10.648095890330492 3.467224999516864
Mg 11.238374047586733 5.729715847511379 4.543275792282605
Mg 8.176916345074112 8.089208641831732 5.099086831331556
Mg 2.8906182383016117 11.248368742692355 5.216544078165942
Mg 6.8175386106541405 11.81103689538988 3.7745604495093694
Mg 3.770660930808379 3.22341392798701 5.674790487032686
Mg 5.836730478407363 6.124743168429283 5.470865233849439
Mg 5.636518808688296 9.519377054793688 5.434892901911001
Mg 11.086770256136795 8.890721242249967 5.358518936983086
Mg 9.863975358108211 3.1322671376385225 5.77032916930475
Mg 0.9994900090328672 9.349639821923406 6.687461358367803
Mg 6.76979072008715 3.4732995512701508 6.197457201186053
Mg 3.492992463701881 7.7242388660623 6.211594023797695
Mg 5.53150241055958 12.372567957359122 6.572321692777389
Mg 8.70671447014951 5.811377995987521 6.935109993747722
Mg 11.609154599513857 6.911496756272623 7.426792198387539
Mg 1.4109851385220287 5.700112173951132 6.983300986397533
Mg 3.7189121874818496 10.480667248046394 7.965953751437462
Mg 10.928605809465918 4.134584381842407 8.395537193392766
Mg 8.444419933601527 11.042047076656862 6.244420472980187
Mg 4.249700968436093 5.314179584522353 7.971466231683807
Mg 8.467707090523655 2.3638866509349272 8.434869106851224
Mg 5.143180779116681 2.311372985577308 8.408393634339218
Mg 6.090694011396426 7.813513410382875 8.003797395890283
Mg 6.760350396510861 12.372567957359118 9.467932969435294
Mg 9.20889314842216 8.81278241653173 8.11017286951343
Mg 2.5412305601277927 7.965116557452415 9.081670902648325
Mg 6.935296833158731 4.967829634510094 9.175794202774412
Mg 2.1309733553725096 2.9844537232507586 8.385763689641928
Mg 6.834732778099347 10.706921997330113 8.777682702026206
Mg 9.750095644989274 6.4901918622402714 9.947687773386562
Mg 1.6848459439985322 5.3221916968061045 10.083282667793057
Mg 9.414863945193579 3.7139504496322577 10.989582234592065
Mg 4.754326721992461 9.534232779966379 10.588153980762034
Mg 6.717838182556599 2.5078931721015643 11.209792809929146
Mg 4.015430955371297 3.6158351504494486 10.879890651464901
Mg 4.67457804516193 6.566072035165385 10.817269365063948
Mg 7.424070542502561 8.159793396973805 10.77514169721693
Mg 7.183955012260132 5.428619161635448 12.213482876121297
