54
Energy = -0.31139075 eV
Mg 8.31996081262815 5.330036398709611 9.657885835331697
Mg 10.807107931225538 4.145724498212428 8.155036332682485
Mg 2.334656519080742 6.592610425367759 4.975468228020838
Mg 7.73638674374878 8.06486751775404 10.695785451559853
Mg 12.325692271533661 8.973989579716784 8.732204252313705
Mg 8.774913003197987 2.4083769074990755 6.62959638452252
Mg 6.309485799252193 4.05429733801065 7.90019426248785
Mg 8.783659334629434 2.3536947091207345 9.576928417073312
Mg 3.208168267851409 8.655770720784497 7.266477432566879
Mg 9.954896216495484 10.206899231998506 3.3900474547706616
Mg 10.61611500199108 7.289299559307818 4.154705956897159
Mg 7.212196437982203 9.882151165338362 2.423471919258576
Mg 8.092955336727222 3.4598038618429348 3.892495837972871
Mg 6.938897694467518 4.9490047351464 1.2270621208538413
Mg 9.266586148647482 8.238604596758055 8.0156918327968
Mg 3.0641911738473917 10.426963907456075 4.8250758420855036
Mg 5.3934936381588 2.8453553261890825 2.661563287289154
Mg 5.988979546153449 11.606847769729765 4.42172031638496
Mg 8.590325708556945 5.6913462401735515 6.38138601679369
Mg 4.984372013437889 9.191981702265736 9.754171421723324
Mg 5.597729107017726 5.148059948443519 5.229560558036825
Mg 6.345927037506164 0.9891352463011875 8.4693703751343
Mg 1.0425726532672568 4.085654191459291 6.8650080535144875
Mg 11.201660775298947 9.645492425985742 6.006283074846766
Mg 6.0979455239577165 3.0747894587209563 10.73209012971223
Mg 5.070048542572646 8.206886805653815 4.6377071096293125
Mg 10.001110476236752 5.0347440320480175 2.232064486828542
Mg 9.060229217220877 7.782621026073262 1.356674053331423
Mg 5.415449054050423 6.171405731299784 10.340697424120671
Mg 3.8516934269953307 1.0313780020294925 10.16012289252145
Mg 6.247124178880576 7.35994800142791 7.546006437598658
Mg 7.509159481981848 6.619244170631697 3.569784670745758
Mg 8.55027936741991 11.644388525438616 6.184992209173472
Mg 7.932279528216485 8.899935372658522 5.403847539589897
Mg 10.565736939667978 11.44112249905088 8.393134908446019
Mg 10.913088790227711 4.269362543691686 5.02974053850835
Mg 3.6720802931663723 2.4075297314728337 7.513315221637705
Mg 3.153324191994045 3.5280936787514947 4.710753058675007
Mg 3.6476397931432665 5.593300637818869 7.562923457875204
Mg 3.238189531007596 4.076629821594309 10.243764174474883
Mg 0.34252795954844395 5.0089486644637535 9.633142290995638
Mg 5.91162380831258 1.9283271147018302 5.4669255381582165
Mg 10.956199503263273 6.68262677845282 10.033162836130451
Mg 2.520708394402002 7.1719816067629 9.986164701490036
Mg 5.520656295239462 7.809228379537404 1.2105000538820145
Mg 7.663708805592058 10.73447952283678 9.178326359438723
Mg 2.64055085041654 8.29944307696318 2.4730771730481047
Mg 5.49939213633319 10.544938391167033 7.080942099178969
Mg 10.26514721413895 9.668593644587416 10.749582449363297
Mg 11.779950781894737 6.635287164696298 6.860777999962681
Mg 0.667857218256204 7.026586739355258 7.5196244443986595
Mg 1.092495707245571 2.0893300955152965 9.343286958286768
Mg 4.358051254488837 10.565768962448374 2.102374392567486
Mg 4.090020191450771 5.582309446603517 2.562501355336682
