53
Energy = -53.21140717 eV
Mg 5.438700307446378 2.73982130691809 3.821075809940061
Mg 4.1073283666167555 4.759307351301915 1.865447729690192
Mg 2.4691153811292494 4.4850373351518975 4.441170830247843
Mg 7.066265898247109 4.88943568250807 1.9533190975917498
Mg 7.077486832549546 1.9805374851697672 6.639504229018915
Mg 8.192787346809494 3.8444683157375064 4.506489655489697
Mg 4.201708636996737 3.2116588727766113 6.655105479312275
Mg 10.003798733863814 5.351453662887706 2.7010485795617307
Mg 9.942894329863195 3.621679694370595 7.06830226064614
Mg 8.124526804809017 3.1270227286950143 9.627759497474182
Mg 5.238542513533236 5.674563700971943 4.592470303048003
Mg 5.5487690279788175 7.530539258095338 1.6724072768816518
Mg 2.8624561038579874 7.2897954587059965 3.0581269459302964
Mg 5.4064962914145465 2.286290329469859 9.196656292290807
Mg 1.4853766987203108 7.0649001891793795 5.815451363829596
Mg 8.5686855673757 7.4354023349821565 1.0864442469824693
Mg 1.4567990553676458 4.4857559999982035 7.268920210646802
Mg 9.541379980751499 6.4245914378632785 5.842837244916743
Mg 10.726994322219783 8.197978186280178 3.1152594220047236
Mg 7.489228404259478 7.4369567266140715 4.07692519242622
Mg 8.795185843924282 6.1255669621074835 8.96915845440188
Mg 6.8656030926132114 4.930755410019817 6.989696655754217
Mg 10.92719391091318 4.220656580407641 9.9396156408949
Mg 4.084997530900205 6.352937808287302 7.414370645103488
Mg 12.30864751309354 5.891554567241303 4.653848545860543
Mg 3.1451848596658456 4.069064329918417 9.703032677946723
Mg 11.920402853116856 6.158843137563032 7.765537391518245
Mg 7.548473002335762 9.924396060939637 2.4698373903618407
Mg 1.7012675774439054 9.759897345664339 4.526631382544716
Mg 1.7373657899489412 6.714095419054492 9.341700498152177
Mg 5.734512899423753 3.913493221562983 11.840682129566789
Mg 12.209241234153447 8.673169468528895 5.791545715754497
Mg 4.5669960698260965 8.47744101719036 5.393665708628167
Mg 9.37578572758189 9.737127589681856 5.263202965860624
Mg 6.961997768513666 7.95173323791889 7.096225529049807
Mg 4.404332821407654 10.17937667177546 2.8880179846279983
Mg 8.588855073029755 5.282042183102817 11.874122877126133
Mg 11.129429587950032 7.18394608478633 10.648495326100953
Mg 3.449349779939138 6.066221675602576 11.831788179549804
Mg 5.933697442378341 5.920217590575578 9.668885192494137
Mg 9.918351863851756 8.490218987960292 7.9514460563965
Mg 2.474273281861982 9.29736290982093 7.619931341962615
Mg 12.834827909437667 8.949989036082828 8.81636219744853
Mg 3.694996919093642 11.501996425606528 5.735412136797178
Mg 6.5804043750772605 10.741022670367283 5.2859212470563905
Mg 11.332174735337528 11.12843787483056 7.49988127992085
Mg 8.236621867778517 11.01176849036648 7.938691550829847
Mg 4.215381010290856 8.42590806102375 10.077902740869854
Mg 6.221139893882137 7.068234024401707 12.442689108550155
Mg 8.998453982266154 8.20533978545916 12.453213481879342
Mg 5.278510236517109 10.38520394312378 8.075459632840165
Mg 7.334624033322137 8.852558624739025 10.02257808827449
Mg 10.336405992736111 10.164377114040532 10.38955460680534
