53
Energy = -53.60846663 eV
Mg 12.481480302408118 10.679602011176414 5.421555969444338
Mg 12.609606374703745 10.121251299658907 8.473375763926366
Mg 12.259411659534509 7.81980887380128 6.412070620893633
Mg 11.340246600806728 12.7129604330754 7.07423717199315
Mg 10.528386802159138 11.980997138279074 9.755219634281332
Mg 10.561825207845823 8.811613207702159 3.963775058092648
Mg 12.315936788450655 7.039146898890199 9.407630889666601
Mg 10.124652707899157 9.010695247403016 10.185239867888773
Mg 12.22298895154396 4.936743275948235 7.0975020628235
Mg 9.865413887467755 9.718283602592223 7.183081715012296
Mg 9.514016312403824 11.55793922691081 4.792653712027156
Mg 8.319993599143281 12.374960693464422 7.6533376797107
Mg 10.251185053372966 5.884252562485108 4.978547188081769
Mg 7.782194358374626 11.023406101244069 10.503829989005117
Mg 8.719533760363017 6.711685481570364 2.5362219382783793
Mg 10.933118012649565 4.0647134071042865 9.582045595237496
Mg 9.981158741390516 6.211631691458345 11.425754121659269
Mg 7.509238979403653 7.940633098479552 11.386804928073422
Mg 9.551788618286052 6.770143007406469 8.04928915991255
Mg 7.257133712847018 8.715034378530804 8.417742914128054
Mg 7.807673264385026 4.067354965038056 4.109880497597736
Mg 9.239117290363412 3.9109059150841725 7.029153350590263
Mg 7.9986666571570195 7.971982207732596 5.561383400358988
Mg 6.67500923287474 10.749621181817348 5.635627003307046
Mg 7.81333507049716 9.630650161541281 2.91667586018699
Mg 5.495935361659114 11.286803712542666 8.44856446601086
Mg 7.646696010659207 5.1076018233637885 9.73930085312991
Mg 4.827112044508103 8.09221645943827 6.489257724747988
Mg 4.803597388597921 7.093831704019802 12.483612125697379
Mg 6.1262633697297115 7.39003818275041 1.2566886660506718
Mg 7.098368506177147 5.123879263455899 12.771424458801116
Mg 7.230728211001774 4.5530025164175685 0.9418118425303006
Mg 7.381644995813089 1.7378221884235847 6.2274380174461434
Mg 8.666946953771314 1.964712158127289 9.27062816444687
Mg 4.9021439405422695 9.326297826552246 3.5670812169868533
Mg 5.903740850753544 6.450775587145685 4.1598930313166465
Mg 5.135107979734224 9.802847432993376 11.12522034333121
Mg 9.381967071524002 3.2352622896430407 11.989695433760057
Mg 4.943631988570027 7.0932117305305225 9.416632172684333
Mg 6.646899967375671 5.640261625060922 6.997760142033755
Mg 3.5954403795428655 10.85733055676353 6.008504319261488
Mg 6.667033584235023 2.3784405689487995 11.46199363141187
Mg 5.058461556815243 3.4226458106408546 5.444139755762374
Mg 5.811308875449428 2.8394301852344457 8.525906066661806
Mg 3.0815652482316476 9.53938785752481 8.909140865772377
Mg 4.603208225405273 4.473317871585306 10.89427437594352
Mg 3.357393265195122 6.923735984536273 2.2725407746181934
Mg 4.792079871683556 4.223229166840657 2.4743134503471915
Mg 1.9193042238938531 7.155733691694032 7.464572260112886
Mg 2.169215169814839 8.493323311226684 4.607435995285984
Mg 3.055082254306188 5.624543651995571 5.013971074000538
Mg 0.8865924663841847 9.926353784688498 6.937777390209336
Mg 3.6627301358159334 4.765225992172465 7.866007528772318
