51
Energy = -50.94993666 eV
Mg 12.397743377767032 7.940351592859115 4.078271685528347
Mg 12.937946365256574 7.9266327392197615 7.117056300503858
Mg 11.512043093588588 10.241471213037348 5.66071062128181
Mg 12.761728577926633 4.967888664891363 7.9805531455904
Mg 11.823229478943308 5.180926758764424 5.224625524215791
Mg 9.432596867090684 3.6620642982459324 4.221350790584409
Mg 9.517593564405505 9.051315072749581 3.3688919171161706
Mg 10.316479097746788 9.752478394882615 8.373904930763405
Mg 10.08672686514471 6.189750870146613 2.8770313473832063
Mg 10.120963547877837 7.478085026085532 6.174903062143413
Mg 10.775457908991951 6.919381497098384 9.190686385437601
Mg 10.653264280382835 2.7727763345445076 6.892306760218058
Mg 10.632938673017335 3.8045095403279303 9.702201653821366
Mg 8.304090428221713 9.975185756264624 5.952387435468342
Mg 6.679379436435935 4.231523399016273 3.037351732388235
Mg 6.408623194224468 9.640563187071512 3.4751793835620255
Mg 8.41560292718515 5.643131034302282 10.528387117114912
Mg 8.752031279838926 5.062696159004683 7.232362951015865
Mg 7.65834284683222 6.7527459165024695 4.8025126064103745
Mg 8.671112136223908 8.740225214802853 10.761576965356243
Mg 7.4321087465571445 7.234898857047403 1.7702589229926744
Mg 7.209003500300801 2.722361784578565 5.850026307798788
Mg 7.628508147433589 7.609773474104303 8.015439951826496
Mg 5.152613251188939 5.731417694849829 0.5742523439427804
Mg 7.67712949898274 2.906930859352004 9.057525881900919
Mg 5.465765173516968 5.451704674653681 6.362101636148628
Mg 7.215499527404713 10.619057404509274 8.648848029209184
Mg 4.876864980125766 6.5652904751891725 3.6525384725646144
Mg 4.573779410199679 8.597854335416304 1.271309552982116
Mg 5.921255878593372 10.088985736772369 11.273586992852087
Mg 4.984364096539724 2.4580528327223075 7.791881366070529
Mg 6.230248771745696 3.777000254254675 11.751502385535842
Mg 5.615030963132424 11.497841218825743 6.124382067694181
Mg 3.550233760836624 3.869375864252784 2.1488934111694062
Mg 4.305900219741977 3.0113918072352073 4.868286662909818
Mg 5.372972691718018 8.49724465185034 6.051367836540674
Mg 6.1975167491024346 7.139756603768872 11.812122356291097
Mg 4.891545952683052 8.244493995583989 8.928723419415162
Mg 5.652741858467205 5.3668285806228555 9.216677151875368
Mg 2.4133689954361484 6.5712921637245 1.6183660061134064
Mg 2.670371081295543 7.232967722914635 6.710335458531237
Mg 4.223729311272687 11.219713900845544 8.859944367706921
Mg 2.645613085219699 4.20555329050171 7.290511315265008
Mg 2.7401641837182846 8.671053654549638 3.862994226907454
Mg 3.508554923265144 3.279688871150083 10.201125555700328
Mg 2.149132411815824 5.357724434072767 4.416138541743247
Mg 2.7705016548190544 10.336613243649767 6.37141316113769
Mg 3.7865065099203505 5.411384541122968 12.316491238678118
Mg 3.398084901390024 8.390272441679054 11.673129191038022
Mg 1.9395740444695768 9.226801018933315 9.054343964483097
Mg 2.5925661092026338 6.218677089793713 9.595023047333035
