51
Energy = -51.51678196 eV
Mg 3.4788726929314566 7.56909329859619 8.944723268600153
Mg 2.668955171947447 4.247364937990953 5.166021380815487
Mg 7.72617798172733 11.08288406923901 8.957359329987058
Mg 8.497435601916331 3.4915349364288515 10.478511930252296
Mg 7.654870507843744 5.9207799695432675 12.109472109680675
Mg 7.186966219236511 1.43790247835792 3.059779939001723
Mg 9.475955652591395 11.10961675453251 3.7799975170699014
Mg 4.608101541854411 9.46448167860866 2.799968957585908
Mg 3.1375675307014275 5.4266321807556555 11.341976810653994
Mg 6.913690608931187 4.259092204592991 4.372031943446285
Mg 7.803951076320113 9.42426354975606 6.053760830425132
Mg 7.675729990676375 9.186559728952199 2.257757754813611
Mg 10.415790537922339 5.099498444850112 4.53770806005032
Mg 4.774463833084066 8.822777946176688 5.960461584979205
Mg 8.645527395243274 6.118698048840743 2.144799078577997
Mg 9.355235847543865 2.3301847702226155 5.249050261868246
Mg 4.251068886562058 4.192669403781619 2.447789463821015
Mg 4.5065685299562785 1.9208134168451507 4.346727248990724
Mg 5.190784899942719 7.561743503038731 11.486514001954179
Mg 6.492665167819237 11.411796929514093 4.128399118192676
Mg 4.923012249963354 10.14088797581382 9.630626202888738
Mg 3.4919009003140706 6.785455989694368 3.7220793681408124
Mg 9.050602994500386 1.4979073693880973 8.21927206404793
Mg 8.647985686522544 12.376327951359547 6.376532632361467
Mg 5.644046627661294 5.147633736312406 9.425880931908251
Mg 6.883013797774397 3.8368664225677134 1.0751268622484116
Mg 11.195300709583186 7.119264858966471 6.810222500794887
Mg 5.721108638608882 3.6902970216824236 12.148861466841723
Mg 3.5408279296124325 11.70911981097729 4.756683039194529
Mg 6.56529198921226 7.278019432054422 4.186318040440434
Mg 7.844825343055726 8.786464059825162 10.993168072941419
Mg 8.991294236539193 6.1943059740046404 9.361430913229643
Mg 4.405109390492046 2.7844181935550156 7.259673279554279
Mg 10.873731735730933 10.221804679800115 6.221287054861439
Mg 3.547644238478826 2.7756025437996987 10.237118277274883
Mg 1.9526291783868774 9.345728014743294 4.392947623106523
Mg 5.692734915247434 6.671803937563828 1.422726396930869
Mg 6.532647707658398 7.915532762988802 8.35419600575073
Mg 2.058510405108704 7.1228160626294095 6.3647842307788025
Mg 5.039267252918719 5.83637708971622 6.4670037544686085
Mg 6.2620496021378305 1.830056316886124 9.427914998765402
Mg 2.6238211596601237 10.235596867662737 7.401855031654597
Mg 6.754114873796206 1.137896416615237 6.153207813386139
Mg 9.892408768355732 8.074903287719687 4.123743092782649
Mg 9.465382416646118 3.217525116304271 2.351575831613176
Mg 2.4105759994639238 4.822595116211292 8.30440426926072
Mg 8.29188323998539 6.450459073300623 6.388669849919893
Mg 9.702193963841781 8.946462379724005 8.58993847376017
Mg 7.34423378693435 3.855726755746703 7.378317127480496
Mg 5.545534218383495 11.693204294623719 7.031109483407775
Mg 10.40260439060296 4.17722025906923 7.557182741367522
