55
Energy = -54.78386404 eV
Mg 6.191421488508272 5.424868207230735 5.921847744845925
Mg 8.615881977654853 1.3861786248213666 8.37440566437349
Mg 11.923471685927094 5.5843050416317705 6.166176495985783
Mg 12.156085638477148 15.360387624356925 9.924927079310425
Mg 8.462015183754293 8.647925495054707 9.751391077436072
Mg 6.385733430723319 10.14346660980191 12.40806296094433
Mg 10.205743063044983 11.70957031763233 9.195315113726375
Mg 9.534337082937602 10.577362085739354 12.027358097991048
Mg 10.999192995880646 2.936334811403886 7.216932244160653
Mg 4.314208947839525 11.989427150442534 10.968276683449938
Mg 13.42456804136873 7.451775326781521 10.035330885638476
Mg 6.899772792185364 10.324883623035362 4.16374185953447
Mg 6.7833915360927275 4.768481692561186 13.035600692515978
Mg 13.226251613651359 12.655733479971163 8.922161281617067
Mg 3.499781854579335 7.6688469257797705 6.829986188095439
Mg 10.823536874840338 14.188307986445574 7.47634003703622
Mg 9.709690289931842 9.581778316081863 5.12959500333136
Mg 6.309227429849543 6.542717237092691 8.786860776679983
Mg 12.554264799068758 10.290401382265127 10.836045753749401
Mg 10.8129125103539 6.139310016592574 9.007922529757291
Mg 7.461193942568639 2.8122311771923765 10.780311492732427
Mg 5.1214733658653815 12.319014808181228 8.10265775224424
Mg 14.34860670943462 6.893527485865949 7.380172621187156
Mg 8.582638645567382 5.748695881222955 10.892327025003237
Mg 2.8531975331083896 10.159646072257278 8.662850059857286
Mg 7.323796208139433 12.057621003946007 10.269083541880962
Mg 4.8560018900525055 4.41760645572213 10.619488367227678
Mg 8.395011872270844 4.447693193176063 8.088496875442093
Mg 10.88820717771287 7.805281527165985 11.621353095537337
Mg 5.8534074288764 2.774469941290211 8.15728462271299
Mg 8.24401339814935 7.835701879256307 13.079373665767191
Mg 11.653291063813748 13.024179387511301 11.729569810703216
Mg 10.628941099970131 6.9592432420681325 3.872615439808665
Mg 14.05503401206754 9.88726069766414 8.06192902056439
Mg 10.517372444672382 3.298523109762363 10.12069459902036
Mg 13.22009139596334 4.41974157045862 8.827286678205667
Mg 5.642378103033344 9.479359367258464 9.2968121968344
Mg 8.967734224492311 7.204106540468424 6.937142968688461
Mg 4.248055198847236 10.516381235302909 5.784565907365488
Mg 4.774359115944146 7.7677558903530874 4.092054922051251
Mg 5.684957766711042 7.299578886785393 11.66979758287401
Mg 9.134717855207013 4.566628009263279 5.115475654335886
Mg 7.692045025925904 7.226223259453695 3.9263533709410954
Mg 7.948933702252942 10.741962593830186 7.473417023757577
Mg 9.325969113546545 14.423793476231358 10.409783887011248
Mg 11.087800871637878 9.017819399866692 8.232659861870237
Mg 11.839240601607372 11.462966766832471 6.489996837220854
Mg 7.797538715482374 13.87273263140363 7.818425314251482
Mg 6.405188536270065 8.494935764077248 6.5133945080617455
Mg 6.15670406013917 12.878814912757024 5.344091532285819
Mg 9.185256409715198 12.626702682699783 5.328259420122807
Mg 12.623034626031563 8.587778472128429 5.571409934249584
Mg 3.281496679895779 7.133293867392312 9.75353808275975
Mg 3.3330571865801675 9.358070838861561 11.711612076741762
Mg 3.7699335613226705 4.840764797114995 7.819604860046448
