52
Energy = -52.64253955 eV
Mg 10.00660689067466 4.115451781038728 6.5792891917612994
Mg 8.192877411261078 6.351214186876303 5.071910753915178
Mg 7.840117788335312 6.093628657741412 11.28909827454482
Mg 1.2480063503869403 6.950088300706561 4.6489728373263395
Mg 9.35252966210376 8.352384791826763 9.930641549919644
Mg 9.75280922975576 4.145328699448513 9.689639983081225
Mg 6.419084719635974 8.427072849953086 6.739600951393601
Mg 6.69090291511528 3.7175689326046615 9.802982670467166
Mg 4.653789169579671 10.372659086598182 8.417778981400486
Mg 11.36510184158441 6.651382595996918 5.149484863634129
Mg 2.2625793693081087 4.948631272314476 9.58129025525918
Mg 4.149643045694837 2.7976665958663975 7.981674989628774
Mg 3.3766957530901767 8.139295657468713 6.489501143899646
Mg 6.693636649977782 7.294399174225858 2.448004692761761
Mg 11.035049344731814 9.45232092764374 4.223305939623996
Mg 2.8022794864839753 4.65794095553176 3.3635783687694634
Mg 6.733111621686943 4.065062093949741 3.477318183093066
Mg 3.577028789971855 7.422737340743915 2.5414047432580467
Mg 8.022766718672207 6.1988971580797685 8.169929891420049
Mg 9.812466101309456 7.312388223785838 2.4813378831529906
Mg 5.039273830697609 5.1195220202399945 1.1609724361476876
Mg 5.086387801647911 6.10926748722477 5.011511836683369
Mg 3.176538507636865 7.8792948859932554 9.74334051878873
Mg 0.754774692548783 7.097183149697348 7.809659376755803
Mg 8.635662864381487 1.9382796818527537 4.968811512371415
Mg 9.673261034490501 8.68718421828595 6.872478113641418
Mg 11.142562210740103 6.398674626421109 8.201700923845314
Mg 7.840319368432626 10.587270164115221 8.487181617372025
Mg 2.4588099670790373 4.866126072262411 6.4662656434465005
Mg 9.223907906422804 11.557415935944075 5.9913659701324224
Mg 1.6140788072704433 10.007930908252654 8.387756379414157
Mg 8.010249209226318 9.46482453517247 4.182461670885859
Mg 6.231298275694562 8.28960048532997 9.965961171484086
Mg 1.996461412661942 9.757836380964248 3.6495569398085284
Mg 8.225755007588738 5.053079846355612 0.9224148851252431
Mg 4.789203867260619 5.746836221581801 11.300548508550538
Mg 6.222524061263354 11.57764065895487 6.003495310790668
Mg 8.487470435543898 1.8205355618643255 8.149983824076728
Mg 4.3334010186675815 2.6828721671260545 4.975518302865439
Mg 9.991510629226777 4.421184280812746 3.5045717752691274
Mg 4.997902372773977 9.48550798627488 4.150741126617378
Mg 3.0460081559443313 11.257072372960828 5.987270882705576
Mg 4.928088169362045 5.948155814825065 8.122540934886402
Mg 6.7754300712300735 3.8789634134445325 6.539406755181422
Mg 8.820807838588863 2.1966232151605665 1.9284933900397225
Mg 3.9772256000304678 2.908802156373484 11.000611138872506
Mg 4.066066442654167 2.3049513591118904 1.9505809634111266
Mg 6.361143740166874 0.9187909887548947 3.2232479238976173
Mg 5.934424691553756 0.8068843609491795 9.388020689891151
Mg 6.155208017925435 0.6963437964631568 6.400010223392874
Mg 6.4803430847432635 2.550850327144358 0.3089187538155473
Mg 0.1905980043869477 9.521074272026274 5.944713185133261
