53
Energy = -43.56058599 eV
Mg 5.559829788753939 4.889072484148191 1.3126625988934393
Mg 8.163624054650299 3.697661915832391 1.887484375172897
Mg 5.46900058621445 2.275064977968109 2.824464636768942
Mg 4.606441182875614 7.407784413230273 2.6074724136808936
Mg 3.0771133717074006 4.592442889350903 3.09696482215851
Mg 8.017240524679762 0.6085620367768185 2.9636078801271997
Mg 7.718606733168704 6.752515502345932 2.5692048039548987
Mg 10.531294311395163 2.1405118565849754 3.138729066229879
Mg 6.893835917740002 9.541649874538354 3.579001492628259
Mg 10.304590356451394 5.2074875059523755 3.4580312587392625
Mg 3.687523151089993 9.970822829463755 4.184565670637443
Mg 5.817992754453172 12.279219069427567 4.355558869544234
Mg 9.69386467837842 8.493706179887795 4.432954113212982
Mg 5.785382038364097 4.934234724277319 4.427159213828144
Mg 2.1653092640416696 7.1687990866408775 4.45773707559835
Mg 6.277659485476183 0.7495780486780628 5.441533491638834
Mg 8.137112009451814 3.164380644003788 4.8987126185232475
Mg 3.526581896221114 2.3959081135008806 5.181269440630063
Mg 8.586319808263864 11.26629872774396 5.419972124790437
Mg 1.2036515528856526 4.336792804912766 5.50822917110499
Mg 5.348121269949293 7.787325341463199 5.5133902290287695
Mg 9.540201852885012 0.6209480555130955 5.686301765570188
Mg 8.300468118549675 6.131678569648382 5.6010443520051885
Mg 11.319555217143352 3.2590516182900098 5.827937746643339
Mg 11.405257339389927 6.224881025686048 6.0733703811548425
Mg 4.638762896854717 14.308120913497472 6.101258798736944
Mg 2.7471651287903405 11.950247195445135 6.492332568259413
Mg 3.8120888936838595 5.573076889232575 6.556880902729304
Mg 7.71880982957495 8.753375121349748 6.909048718225246
Mg 5.398858637961852 10.609272854725369 6.841425469600969
Mg 7.132734678907281 13.108091128857383 7.408954220528357
Mg 2.504681888692283 8.8724075731302 6.902778935776437
Mg 8.810269619190848 3.9854262728721386 7.697757293722932
Mg 5.722804906282856 3.1895031208270015 7.157615949874654
Mg 4.379478494825746 13.23942053315386 8.792668975892292
Mg 8.942430613381825 10.89182563866237 8.498200519627881
Mg 6.662891999284216 5.966465983357426 8.100670575234009
Mg 1.2498380308717683 6.191232393948772 7.919151957755586
Mg 9.803427904352853 7.241201812580296 8.332189686747395
Mg 4.9392775435822935 8.192220249966566 8.538195008074695
Mg 10.975390563043364 1.4632590736399145 8.208361859966514
Mg 11.479397984064057 4.5048798022922005 8.788660336330285
Mg 7.849933498836158 1.157662025853696 8.16829499782105
Mg 3.1595494377518962 10.585411615044011 9.372330757612103
Mg 6.253685264932538 11.186571920745111 9.85047832616927
Mg 3.779880300033042 4.802267883509029 9.36466983557017
Mg 7.622017299624385 8.477620998416585 10.123608569720542
Mg 8.71293861075166 5.550855806741828 10.501933642068668
Mg 2.6041866115555914 7.443635846168078 10.295094130415878
Mg 6.557902948367572 3.41784543820284 10.083481473325099
Mg 9.515771342655295 2.5971838205693127 10.435389614889282
Mg 5.639882221729544 6.260572063947724 11.15311185399622
Mg 4.822275881987895 9.156878023146282 11.53100570481441
