53
Energy = -52.79994155 eV
Mg 12.601926063195394 6.148115709525122 3.6923060435320547
Mg 13.102890470080396 8.685240633123653 5.032298439811297
Mg 12.535887185160185 6.228769657573349 6.725988730965096
Mg 11.486640496860572 3.763229991832475 4.982450644218584
Mg 10.715318535052903 6.757453659178174 9.464201480679876
Mg 11.383575229433593 9.057520769077897 7.505514842439358
Mg 10.548567107595238 8.229906089885885 2.6142007653612565
Mg 10.112696756335994 4.59180636514294 7.418563594292176
Mg 9.91373456250232 7.179847945587495 5.446498594655525
Mg 9.770458588715497 5.242948682810509 2.9739365065497108
Mg 10.774883116907079 10.408861112552477 4.758190079012756
Mg 8.565268872287929 2.065433024873734 7.920132269068901
Mg 6.326760742442573 1.3560169799823445 3.391578965754018
Mg 8.31615734222019 4.5437688065000525 9.8651053056868
Mg 8.54774248418264 2.9824031844177936 4.705435063587784
Mg 8.125535827395986 7.065650739750124 7.878831555051248
Mg 9.223481546619302 9.515895486179494 9.704965263575385
Mg 8.184118296197054 7.181486356291652 11.42060222910043
Mg 7.121731614170661 4.112226140723209 2.188283072004481
Mg 6.004281190492149 1.4428977797930354 6.3905506562653915
Mg 8.569310834149865 9.936332671088376 6.737987655927943
Mg 7.9885502776539 9.439969914595848 3.869505132872189
Mg 5.833469952022888 2.7191450020047867 9.34324304860453
Mg 7.64786271145102 7.209017377427676 1.7927887800979625
Mg 6.979974185033912 4.431944766904777 6.982009307339999
Mg 7.027672499973388 6.424799762731889 4.684807529649102
Mg 7.029416818329211 10.061649505481169 11.677012407569322
Mg 5.7125826111552955 5.224056715743758 11.230797025627515
Mg 3.3646393710841673 1.6519458041705928 4.498208915438008
Mg 4.3082225815204405 2.983022229235462 1.9128307311852235
Mg 5.930283727416704 8.102355770584692 9.597409119486345
Mg 5.202140969666913 4.033165558448935 4.620448036004276
Mg 6.6202289472399105 10.990436590986699 8.734648747576303
Mg 5.171000066072322 7.9761557613479726 12.626882016307995
Mg 4.788476839405544 5.838373577997027 8.218127479221687
Mg 3.6412097917754465 3.195764367656204 7.186092517305984
Mg 5.122090760744007 8.728874485786083 3.3914892748062213
Mg 5.749909043664739 8.465168532225263 6.583552089679809
Mg 5.949009982606438 11.195443847709912 5.487718777843777
Mg 3.1480600735496056 3.9179714839065607 10.083598322856014
Mg 4.654347012761085 6.015182976518576 2.274868258654199
Mg 1.001949406580425 3.2462323272696674 5.820224922010636
Mg 2.168234183182624 4.440632857631306 3.353402459597304
Mg 3.120408132188668 6.919029063622465 10.668381798807346
Mg 3.6979767988258128 6.472624337982023 5.5032114191533985
Mg 3.985032444107354 10.102603628883896 10.615571768038887
Mg 2.9950078887355556 8.425675919766585 8.121559156117426
Mg 3.85507253784153 11.281096507283232 7.792184734902505
Mg 1.629680430070511 5.662525811216838 7.792984019015095
Mg 3.111152384416734 9.769606700119262 5.297798231728736
Mg 2.024061962387746 7.617462582791278 3.3245716694551213
Mg 13.102890470080396 5.757323569488634 4.94531066562948
Mg 0.7254673453810448 8.175126608005597 6.180910482998959
