55
Energy = -56.01534415 eV
Mg 6.485076551612799 6.485076551612799 6.485076551612799
Mg 6.485076551612799 8.023885495109576 8.96778842705107
Mg 6.485076551612799 8.023885495109576 4.002364676174529
Mg 6.485076551612799 4.946268608116213 8.96778842705107
Mg 6.485076551612799 4.946268608116213 4.002364676174529
Mg 8.023885495109576 8.96778842705107 6.485076551612799
Mg 4.946268608116213 8.96778842705107 6.485076551612799
Mg 8.023885495109576 4.002364676174529 6.485076551612799
Mg 4.946268608116213 4.002364676174529 6.485076551612799
Mg 8.96778842705107 6.485076551612799 8.023885495109576
Mg 8.96778842705107 6.485076551612799 4.946268608116213
Mg 4.002364676174529 6.485076551612799 8.023885495109576
Mg 4.002364676174529 6.485076551612799 4.946268608116213
Mg 1.4398632837526133 6.485076551612799 3.3553520482097863
Mg 6.485076551612799 9.61480105501581 11.530288819472794
Mg 6.485076551612799 9.61480105501581 1.4398632837526133
Mg 6.485076551612799 3.3553520482097863 11.530288819472794
Mg 6.485076551612799 3.3553520482097863 1.4398632837526133
Mg 9.61480105501581 11.530288819472794 6.485076551612799
Mg 3.3553520482097863 11.530288819472794 6.485076551612799
Mg 9.61480105501581 1.4398632837526133 6.485076551612799
Mg 3.3553520482097863 1.4398632837526133 6.485076551612799
Mg 11.530288819472794 6.485076551612799 9.61480105501581
Mg 11.530288819472794 6.485076551612799 3.3553520482097863
Mg 1.4398632837526133 6.485076551612799 9.61480105501581
Mg 6.485076551612799 11.684704 6.485076551612799
Mg 6.485076551612799 1.2854491032255972 6.485076551612799
Mg 1.2854491032255972 6.485076551612799 6.485076551612799
Mg 11.684704 6.485076551612799 6.485076551612799
Mg 6.485076551612799 6.485076551612799 1.2854491032255972
Mg 6.485076551612799 6.485076551612799 11.684704
Mg 8.096620792535177 2.269138905501278 9.084747972283756
Mg 4.873532310690421 2.269138905501278 9.084747972283756
Mg 8.096620792535177 2.269138905501278 3.8854051309418467
Mg 4.873532310690421 2.269138905501278 3.8854051309418467
Mg 10.70101419772432 3.8854051309418467 4.873532310690421
Mg 10.70101419772432 3.8854051309418467 8.096620792535177
Mg 2.269138905501278 3.8854051309418467 4.873532310690421
Mg 2.269138905501278 3.8854051309418467 8.096620792535177
Mg 8.096620792535177 10.70101419772432 3.8854051309418467
Mg 8.096620792535177 10.70101419772432 9.084747972283756
Mg 4.873532310690421 10.70101419772432 3.8854051309418467
Mg 4.873532310690421 10.70101419772432 9.084747972283756
Mg 3.8854051309418467 8.096620792535177 2.269138905501278
Mg 9.084747972283756 8.096620792535177 2.269138905501278
Mg 3.8854051309418467 4.873532310690421 2.269138905501278
Mg 9.084747972283756 4.873532310690421 2.269138905501278
Mg 2.269138905501278 9.084747972283756 8.096620792535177
Mg 2.269138905501278 9.084747972283756 4.873532310690421
Mg 3.8854051309418467 4.873532310690421 10.70101419772432
Mg 9.084747972283756 4.873532310690421 10.70101419772432
Mg 9.084747972283756 8.096620792535177 10.70101419772432
Mg 3.8854051309418467 8.096620792535177 10.70101419772432
Mg 10.70101419772432 9.084747972283756 4.873532310690421
Mg 10.70101419772432 9.084747972283756 8.096620792535177
