55
Energy = -55.57477332 eV
Mg 10.228984879847593 6.531244937324525 4.60800320090694
Mg 6.442907459129034 9.770841624971752 2.9979046724005043
Mg 9.186218828888364 4.336085236620913 2.5285756930618772
Mg 3.4400127493765527 9.484931446601667 3.61497516276831
Mg 2.2977525545289086 7.322291276945737 5.261672846683481
Mg 6.642913369063924 13.225520477162503 6.925306854435102
Mg 5.106119979409645 3.3566860479674503 10.384896498082123
Mg 7.94693214030008 7.081374804389447 2.7835780965538914
Mg 11.049502949838471 3.615499820167368 4.7240766240198715
Mg 7.098749288104185 5.094693144909233 0.5191464606647235
Mg 3.174646053778621 9.655581119615999 7.018024734200595
Mg 1.4676312674115284 4.677665838612543 3.610328510826467
Mg 8.66930135738356 10.967908080087355 7.377632987467004
Mg 2.140770523890314 4.130898498888301 0.7346950908304706
Mg 4.188314786750701 5.823654419017408 11.42632674272699
Mg 6.245269932610615 9.437829634961671 6.070949341552819
Mg 9.90862771533502 1.543688038660559 7.068874108026147
Mg 12.728225084953204 2.8607634463764593 7.119859492595154
Mg 7.6499136992018615 6.919716286210852 6.353580182591472
Mg 8.33599464692159 2.009466010773477 4.600672660926355
Mg 11.729724271483333 5.831578758319864 7.1036643997707625
Mg 7.437506727362621 8.677527829276432 8.905579540712393
Mg 0.7886419552454599 5.029140276111234 6.533570699796401
Mg 10.719860322984994 3.780108650622513 9.123137272410812
Mg 5.478126944785959 7.771726634142603 1.1361904820825741
Mg 3.351804633464209 5.9552047792894145 10.906700916436408
Mg 1.8830800263376517 7.350152917190898 8.420041415885695
Mg 4.589168831414947 11.724766760797827 5.214374557074205
Mg 5.9592045944518235 4.282976859092769 7.409423585031942
Mg 3.918281582739832 4.744251386965947 5.32262272143033
Mg 7.767234422564403 11.908447420173324 4.5050842084577996
Mg 3.1632464851872117 4.478872583319111 8.26074524044977
Mg 0.5988108353536216 5.011884917760857 9.823341882742323
Mg 2.620196590035305 7.100016616334235 1.947922842603947
Mg 4.416058577057513 8.56692978477559 9.863270752257442
Mg 9.048034026581233 9.223525266434596 4.680905022092046
Mg 6.254641183680188 6.134587678994932 9.89189958141564
Mg 3.9453252763439077 1.602767474411344 8.186843601839634
Mg 6.964003053312893 1.4588786631797057 7.692214767584034
Mg 3.460330118618129 2.3120460145467976 2.915207591066522
Mg 4.674702356372262 4.993196632398826 2.353868719472887
Mg 4.8306299369111345 2.996939930001024 12.090645763085115
Mg 5.336955344015736 2.026800422387306 5.2753588267574045
Mg 5.251889742050314 7.193806612845547 4.256364021885916
Mg 10.385983704710158 8.503277846776825 7.325528880058959
Mg 0.785999840487131 2.3709483276428864 8.286639559730071
Mg 9.223497194079394 6.353615953435559 9.096156436942088
Mg 2.251335007969341 2.7122978158336424 10.814365381478174
Mg 6.8448278590166405 4.700072242744504 4.470940597614113
Mg 2.140632905082809 2.319416343591132 5.6207055425452195
Mg 7.8960425465773865 3.6125174368315505 9.650881386504098
Mg 6.577868603789412 2.488874951972017 2.3123802627437353
Mg 8.88773349153228 4.340837612066978 6.701979159282609
Mg 4.764657974218107 7.003135442396674 7.281963631805073
Mg 5.498869403471098 10.986226603081827 8.542924922845263
