53
Energy = -52.49500139 eV
Mg 13.116175749092388 9.176889177603353 8.145032340561258
Mg 13.54458409618657 8.39127526374845 5.338407618236878
Mg 13.396101876494376 6.197356140289879 7.601647631199901
Mg 11.356260750331222 7.360046563972742 9.898571444331017
Mg 11.45131579857251 10.54917613760644 5.893620305986123
Mg 12.497007694146397 5.769123949439099 4.5617857276717775
Mg 11.687349969369759 4.4457317248339265 9.479072852008224
Mg 10.785261562689172 7.496605551937489 6.69018898397647
Mg 10.216722959608285 9.938198312170007 8.644351916901018
Mg 10.388366003202359 7.900054742972193 3.6457042882063044
Mg 9.111659761520086 5.027817271518301 11.109986849545624
Mg 10.773427055206671 4.387395331251057 6.61902086864544
Mg 8.179601411588802 11.090688511829061 10.452212338292851
Mg 8.102793668801583 11.949659817574293 7.09273995674387
Mg 9.935253674619611 4.523396235625554 3.678160564983153
Mg 8.144434624749966 6.355505208832417 2.1700658696861317
Mg 8.669689617709436 6.32030528953117 8.405315731297366
Mg 9.61477427008913 11.11408073524299 3.6395431115237065
Mg 6.662285571411588 3.055549796293275 10.555996806064988
Mg 8.542026364553946 8.092595569073325 10.99899830789445
Mg 8.074226207494902 6.263828706492129 5.401580730611755
Mg 8.58426606079913 9.296657788810794 5.77187172250653
Mg 9.232584060916741 2.9447484256263676 8.780507825432455
Mg 5.713661029617582 11.89827676876055 9.131335338528066
Mg 7.176213601543784 9.251731816262224 8.326303009495115
Mg 7.291556372294177 9.057060384820343 2.917068734633003
Mg 6.7542282030955905 11.638436082837769 4.274838608049806
Mg 8.392482112439207 2.7145766416098143 5.669771227444111
Mg 7.0893207433579475 0.9952711512571971 7.906895185553984
Mg 5.624182626276445 6.808021332211318 8.536707538293633
Mg 6.569933751379467 4.07235497320814 7.786231826179981
Mg 6.222736207128806 6.035197079590857 11.39362096123537
Mg 5.572880703560175 8.48573494322224 5.796268396484657
Mg 3.9005530626300775 4.446431232357408 9.737301266689478
Mg 3.8976746145243446 9.576369399919948 8.539398004326326
Mg 4.438357579571914 1.6727665660314563 8.679899132800026
Mg 5.285125076774827 6.783911815710479 2.8810666895696753
Mg 5.19311695829294 5.495807722010999 5.635786689155342
Mg 4.730547285316071 11.53882748185512 6.326327533889693
Mg 5.701974829495868 9.125745788842428 10.978764366959695
Mg 6.7395801406372815 4.014066581453895 3.4601652036811665
Mg 5.335997836525242 2.1681025135746257 5.601070379842974
Mg 3.043366511887323 6.869223050385461 7.120424578206009
Mg 4.247361352602097 9.849193134267484 3.5152776315587535
Mg 3.2096475114197327 7.298005952251021 10.43743988455248
Mg 3.0060939588687083 3.6569281162402385 6.960177069938247
Mg 2.267596173342567 9.625614034228844 5.910592526217576
Mg 2.5555991186160867 7.215663519483088 4.113465874052536
Mg 1.0302577560820998 8.57616177148008 8.751917988095872
Mg 3.4157608041144787 4.166297118654835 3.794168843202254
Mg 0.8154290588903159 4.8846930455763395 5.318685131538403
Mg 0.9114863734940257 5.445883951241027 8.525647230854052
Mg 13.544584096186568 7.467572042568039 6.2363027013437415
