50
Energy = -49.60348184 eV
Mg 4.386990532292414 7.329953313083841 10.612162154172282
Mg 3.871152321440965 4.668435097316859 9.335025901552756
Mg 5.522839763270635 3.368472716666783 7.2477698357576
Mg 4.00275379269298 10.133851516960057 9.067166436243024
Mg 5.017778168356595 8.125174975317327 3.3253641244822574
Mg 2.580569170252942 7.997832978686064 5.168880033116302
Mg 5.34213900026679 4.8119060149384065 12.007901417186261
Mg 7.150615587835299 3.1911829494236392 4.740581090059367
Mg 6.924953806817437 3.3105012717593985 10.019345931179501
Mg 5.808597678019203 5.142099237762404 2.517336804753383
Mg 4.205993402719328 9.983910885862851 12.121054338557451
Mg 7.382867646554121 9.979026204135865 3.9629628727119783
Mg 6.975595374243628 9.00215362930325 9.768660644957327
Mg 5.482153832731271 12.219481300392625 10.717483997095899
Mg 10.153930859664689 2.79944990325416 4.855103029229332
Mg 8.840426665489884 4.445112379489791 2.6666622944098997
Mg 8.611555939683013 5.571961335410428 6.217991656699919
Mg 7.928400719651528 7.079767464511485 3.5734307032748385
Mg 6.960799394466154 12.596703726854326 5.230956192464924
Mg 5.640054542630836 5.9623695144178335 5.493771595472949
Mg 11.697308335120992 13.363535506461632 6.423669966860971
Mg 12.127952015547669 10.36189359378911 6.5296068181520805
Mg 11.437257032424354 4.31070911014882 7.035281570016116
Mg 4.169222451997517 3.404645381214083 4.3875873494699755
Mg 11.032179748483978 5.755217964182435 4.291165037407732
Mg 2.8982321864239493 5.820715818258931 3.274714091556924
Mg 9.912103832430278 8.523908977993335 5.325085456183886
Mg 8.605219785942875 2.6797879685413704 7.483500487642836
Mg 9.543061664136907 7.399964360332344 8.5449503286664
Mg 12.25924301239479 8.89725624819355 9.236505948669082
Mg 2.756087137050769 5.117500548655822 6.449515420127588
Mg 7.112226314780214 8.388487892792558 6.660822348870877
Mg 9.801904088798235 11.653255796907578 4.916329960140812
Mg 9.815591448034862 4.510129272607362 9.603430446314555
Mg 12.293233632094084 7.2319255516599 6.678656913052626
Mg 12.667833366637932 5.864398075739636 9.31854086891123
Mg 8.901410071122232 13.499371342794891 7.46915313779856
Mg 9.17904429130601 10.313912864926673 7.75246292614483
Mg 6.658405459945206 5.996086368682844 8.539082866658113
Mg 4.736783883377051 10.147027498703148 5.76035473480207
Mg 6.413206095834565 11.54866981188774 7.927543096016527
Mg 11.26664425019767 11.957643397868438 9.095740909861197
Mg 11.023108953761637 6.908612843680203 11.462704032922192
Mg 7.984083078876312 6.245668185068338 11.244692135360216
Mg 7.307072709144797 10.52005808959637 12.51044648310352
Mg 4.180694275355048 7.542326997663631 7.635036604983523
Mg 9.066445953326046 8.146006714992241 13.374072887545353
Mg 9.817546330412428 9.68060163585929 10.821137770022805
Mg 8.403774364349749 12.289372298392227 10.206403188806771
Mg 6.0963194230986275 7.795627210196072 13.044536770726662
