53
Energy = -51.30437056 eV
Mg 8.684028886158709 4.936940180530839 1.2463360634339749
Mg 7.2651997303882805 9.431674334428484 1.4572265474430457
Mg 9.668276738734207 7.7093280532253985 1.1459339604164311
Mg 6.514918372014881 6.802202835759315 0.3582339708921923
Mg 5.756648958853825 4.636725710256556 2.553026210105071
Mg 4.792849769511148 7.834901084612762 2.7813423063769322
Mg 10.385302283220408 5.889848156410806 3.791887373149301
Mg 8.350878750498625 3.492517372628508 3.7686975467657056
Mg 12.121365223305235 8.037901369699926 4.935743642047989
Mg 7.620191674475407 6.913589386734777 3.3572296385728935
Mg 9.450339046999197 9.242275952241735 3.972160399044691
Mg 6.354835505339349 10.443374769126837 3.984042664587848
Mg 3.381557320552504 4.046229251438825 4.287595722343891
Mg 2.5164660935468985 6.890180030405393 4.561121480649677
Mg 8.446522272298495 2.320540082393412 7.181353419789742
Mg 5.485482678686692 6.150201903343561 5.349853302402488
Mg 10.710030515779003 3.356311600628464 5.5824654940722755
Mg 11.125433471453235 5.8850902411688 6.968789826076299
Mg 4.402495902956762 8.965764685727486 5.727889347628339
Mg 13.014230164305701 8.03709274084681 7.806913776413113
Mg 6.005068382504936 3.2298027068456667 5.596275771344207
Mg 8.376358178599212 11.286699623451545 6.068904551400419
Mg 8.277520768769264 5.376204625982427 6.233270067371576
Mg 7.361765963782527 8.324161766873376 6.1168350850054285
Mg 10.164022006573125 9.03084571176524 7.0205430357135485
Mg 5.246859501382827 11.895929014186374 6.34503310036143
Mg 5.798529567153814 1.4010938534774473 8.005400732073817
Mg 9.438657270104418 4.295470034382203 9.253972875248236
Mg 3.297903834719335 2.1411938155223784 6.571917695296814
Mg 13.709883491837466 8.012255456066812 10.6676538333971
Mg 3.4607974571449183 5.118471821810573 7.288402776927544
Mg 6.4277841191635625 4.502948691111163 8.501749739257999
Mg 11.006774129109896 8.999287971371121 10.075197959801473
Mg 6.682448334542746 10.184093815427783 8.49609976886415
Mg 8.432989927667949 7.1901534937167435 8.768064372128178
Mg 11.767514987016959 5.916048561122413 9.94781275198181
Mg 3.560564636803724 10.102565948480668 8.38855302570865
Mg 1.9903595736633084 7.839615184318389 7.395318775823149
Mg 9.49431396792441 11.325593930356627 8.970044957766065
Mg 4.654468647393963 12.720070788974068 9.326429857884282
Mg 7.284518561905623 4.3873647093505594 11.519712238175526
Mg 5.2737815843665095 7.394819657602972 8.298956091351833
Mg 7.340652727215392 13.344957349691112 8.061772398059894
Mg 8.222230186454267 9.469530939788035 11.110607258132355
Mg 5.374452384756908 2.3263073996956023 10.740368219927136
Mg 2.696837870958027 2.947884461565173 9.375076177294488
Mg 1.5500420978847274 5.720331355409317 9.57440687592724
Mg 7.272187450021781 12.33120647419098 10.921063552106164
Mg 9.303944732343655 6.613807917744424 11.63534025335875
Mg 5.1097554715610505 10.134025901737942 11.105944419906923
Mg 4.366565036385797 5.162216296223817 10.66204089139793
Mg 6.283336980077207 7.268679469248265 11.24907609154301
Mg 3.251221336000418 7.925305841474097 10.615777255570606
