5
Energy = -1.27146434 eV
Mg 9.612209397588668 6.971897287665774 8.751285518387778
Mg 5.716634346708235 8.75920740160737 4.699896863364996
Mg 3.895085041191076 7.630643437954564 7.1601608618920505
Mg 6.980522370606618 6.961224723356006 6.976235135794954
Mg 8.631322727927412 4.269646031588869 7.207048778495745
