53
Energy = -52.74671507 eV
Mg 6.79656480189606 3.6356234807828196 0.2132638501922388
Mg 4.94388575505376 5.9551891227409826 0.8248460487886085
Mg 6.047938807539075 8.828074073964663 0.8925126175511453
Mg 4.162333788569021 2.907519056469636 1.4317163393988412
Mg 7.955862059117347 6.3505023744180855 0.7207998916494062
Mg 6.553796918555553 1.4672195921082904 2.2547449072368257
Mg 3.7085296528468294 8.130133768676256 2.705352667203221
Mg 8.94853256472287 3.852556360538585 2.4643096392722876
Mg 8.590813490181942 9.531012671944419 2.5255231879515914
Mg 6.112537173257229 4.437802956763979 3.401238303902618
Mg 3.0772062025732723 5.10427143743408 3.083676110780954
Mg 10.109843190888109 6.741353354780068 2.828540519944727
Mg 6.824655888346066 7.27469801281388 3.3451621537619323
Mg 5.7487595658958845 10.19956596619254 3.7070347522582088
Mg 4.499898795444014 2.1373969900245844 4.620207659961695
Mg 7.838270830081407 1.9965230128614782 4.790245444982285
Mg 10.480667106123972 3.4584265699195678 5.079405806633515
Mg 3.2984836626776164 9.577267289833207 5.433288092858606
Mg 1.6395266009307223 7.1184155248544805 4.683592728116854
Mg 10.47493973093741 9.025640106890698 4.8367230393869
Mg 8.448755403442188 5.649857957477215 5.343331526281876
Mg 8.306521154436686 11.40438383757894 5.05293230220577
Mg 4.8437021261992035 6.752062303598651 5.50046007858286
Mg 11.585027759539322 6.307611474790344 5.394773381560512
Mg 2.6723201657681552 4.516502129306675 6.0167476534776165
Mg 7.421232080659693 8.58564109209964 6.008740086070266
Mg 6.102266938991894 4.04309003522664 6.446308128104556
Mg 5.5454729219302825 11.352274158363844 6.535630366138348
Mg 10.279995191698518 10.73897926582727 7.311202755294369
Mg 2.1894593244730025 7.516387617157772 7.497790082572813
Mg 8.710689257317739 2.6691273192766896 7.569502955806526
Mg 4.70775987339859 5.745077267566847 8.43871111107406
Mg 7.764444386283574 6.1611018955039425 8.247932514483178
Mg 6.122454683462504 1.038627997434521 7.087770015861859
Mg 3.7297619549278673 2.592308483094227 8.070988877400909
Mg 10.447698299322788 7.7855424036584955 7.785676099543059
Mg 8.0441720892534 9.357336840729204 8.854687300828154
Mg 1.834274630937994 4.885487589727463 8.906461274809944
Mg 7.852862710697833 12.270335956594774 8.043382725297418
Mg 4.8735212616256 8.794301706928419 7.956200538972272
Mg 10.726353979616276 4.834683403475059 7.795084346306817
Mg 6.367144605215808 3.0069524444973643 9.550652500630655
Mg 5.6262459675853345 11.041318139298832 9.810729418256235
Mg 3.12166450139091 7.458038581305649 10.479638855799404
Mg 6.109515614386272 7.648077953662779 10.443045760222489
Mg 4.013647964708915 4.354717317309673 11.02251860709272
Mg 9.099292872795598 7.256331332744081 10.899761042751972
Mg 7.764248798153193 10.072153064134618 11.745263501787894
Mg 4.80915038580298 9.537458036741972 12.431438882557138
Mg 9.113350050743035 4.124443919722651 10.202776444729519
Mg 6.8376888983548 5.057838177905771 11.844097478284278
Mg 4.494891322917226 6.621439789802292 13.0554771901569
Mg 7.244811061853093 7.7147636069736505 13.43154725875117
