54
Energy = -53.52897524 eV
Mg 8.359243460039318 6.823522372874025 1.3358188202051562
Mg 6.13421372675359 4.524034076511388 0.9016944839222476
Mg 7.298811286170024 9.617926848521913 2.5588949243410215
Mg 5.413205164214393 7.170571654044342 2.357246461586525
Mg 4.3450286912514535 9.736271886976382 3.5729300475309014
Mg 10.29955382126984 5.310512280298948 3.266710046134664
Mg 4.180405397169374 4.412544386255041 3.3176332415560212
Mg 10.483542739829133 8.478140153093664 2.6785663904982115
Mg 7.389610960019519 4.944723914778591 3.519926161926237
Mg 6.2376424112686575 2.1094413396922445 2.7711073720233177
Mg 6.574994215263492 12.229210363498956 4.317223325320587
Mg 8.278509021143746 7.577207172813455 4.501012178214131
Mg 9.195296162768948 10.61982978283133 4.723869807844774
Mg 2.813371475770695 7.063984055619245 4.00779107065895
Mg 5.506136512343536 6.606677215837187 5.525148817222618
Mg 1.261061733470038 4.285598128752156 4.662668720735368
Mg 3.913079142460805 1.7580093479403769 4.850153942118056
Mg 6.402378811992883 9.5522528262455 5.784649822221902
Mg 10.78764156386222 4.102755539448099 6.165620147790649
Mg 8.985814697025894 2.505977838002672 4.264809484647738
Mg 11.246648729959256 7.140995550953611 5.453525872729136
Mg 3.9666614658996906 12.084145702384266 5.55461766558134
Mg 6.778654294265343 0.5922698980494154 5.320170909171664
Mg 11.012231267763974 11.620251928298318 7.0194543424385865
Mg 1.6973451146587824 1.9277333822548428 6.863702748270864
Mg 1.1215193481590082 6.88417956428689 6.450082201295595
Mg 3.5399664792627035 4.36514742042866 6.431911275330801
Mg 6.294215220719766 3.556083604879724 5.780793965875693
Mg 12.194058070210215 9.99251719571577 4.816923676285366
Mg 8.326449232384793 5.715633019594955 6.839165613048299
Mg 0.15877398019850142 4.3274235707096835 7.584186675607269
Mg 3.6638825546370906 6.686928581206689 8.100099720711231
Mg 9.145905617512504 8.69985886228093 7.198372931322311
Mg 3.3702752178649447 9.127911164738302 6.4400156926278385
Mg 12.33742809742146 9.081578911211853 7.678044344014155
Mg 7.9474365114305 11.61705724734861 7.445474941680146
Mg 6.370358708910795 7.860135838129306 8.26714181595221
Mg 8.60378691050769 2.1898459486836708 7.2595789434333575
Mg 4.932229986859319 1.8473537718022586 7.8956121783032165
Mg 5.975236931397283 4.721187169108286 8.585571134964132
Mg 11.168615223408036 6.390568355876301 8.341767103291657
Mg 1.1635460173146484 6.529255603839501 9.564487319577937
Mg 5.012307262483738 11.072719652720624 8.170090850891047
Mg 2.625027996577526 3.8007624858213624 9.258176689526866
Mg 10.168497154855958 10.223270213238145 9.598691647552764
Mg 9.354743923335477 4.221465770752119 9.339251474048123
Mg 8.780284883832007 7.216584970946544 10.016863318718398
Mg 4.0237808335108145 5.897051165349311 11.048171902768367
Mg 3.9635021146424694 8.937133478417973 10.02895225860495
Mg 7.219409426983809 10.140997218029439 10.045659918015714
Mg 7.346944690992536 2.086860315392346 9.952802979543401
Mg 4.789858873012559 2.899422889642269 11.085066880588686
Mg 7.132252756755269 4.914440789239095 11.414451262294957
Mg 6.2705711779271285 7.763984644377477 11.629591549179422
