51
Energy = -50.92324385 eV
Mg 3.174625124745977 11.544717987764876 5.111216840401773
Mg 2.940531643508114 9.288662533749314 9.746584013104885
Mg 6.41183398975743 2.598991894721907 10.36125942330153
Mg 5.169283826525058 2.8670187486503407 5.76668935429853
Mg 5.819322843678873 11.98469132086509 6.67379028821416
Mg 10.367252312868617 8.761029526060737 6.909797685059185
Mg 10.620481782664548 5.659468315683735 8.192112377309972
Mg 4.956745602618361 6.042509003882865 5.515682804426638
Mg 10.11925111988589 8.734621850567265 3.614363730035553
Mg 7.777810692351194 7.00752330054294 6.927418820252939
Mg 7.804054583574433 7.2126319475487835 12.332007129310178
Mg 5.716367967740056 8.734992650737837 1.3893229200479642
Mg 3.3614974286388213 3.9644509840448476 10.087645517643878
Mg 8.764817046873398 8.16417186178615 0.8416975434827931
Mg 8.462665894189483 3.959263713832566 6.919840154424296
Mg 7.650927596105446 1.8570903334259006 4.588809069472888
Mg 10.435070361010418 6.330525929065134 5.3220653875585535
Mg 6.105324249345397 7.644982363195723 9.36569574872135
Mg 5.329831016493563 8.949695688279673 6.653725272670732
Mg 3.6135904597360824 8.70387494317644 3.952808339190963
Mg 7.044006794845209 5.822813059767139 1.394437374687388
Mg 2.9009269340164345 3.960539696396645 4.041793441950971
Mg 9.330508785804398 2.430527100556498 9.343370944599213
Mg 7.638484011835789 5.013627239780322 4.317836696608032
Mg 5.0692935827843115 8.64287737063701 12.039952313251172
Mg 9.937086808915398 1.2108734539871775 6.516299942726559
Mg 10.150902626831249 0.7672967951148852 3.472994413981981
Mg 7.074154396247909 1.1878236148026025 7.671642749995043
Mg 6.990555614827111 7.893085203039101 3.956191404188922
Mg 8.679830419654154 3.121651155279626 1.9870964179787245
Mg 2.944251152645456 6.71030561110873 11.197274624630833
Mg 3.076821666298318 11.690489305681139 8.030876120441574
Mg 4.218752375602711 6.2133174043893185 2.452912327958211
Mg 8.214952317215277 10.396719019581505 5.345429766227375
Mg 7.934924941105753 10.098913152144668 8.260680030793784
Mg 9.95647579282047 5.862512378424193 2.3438230755966174
Mg 5.666006360399077 10.920243695367867 3.748135335885949
Mg 3.259505553790024 6.735262596286325 8.101786849408821
Mg 5.710301679118319 4.792608541953048 8.198874683755793
Mg 10.433199279620725 3.5364383685058076 4.469943523496126
Mg 5.4255065657907275 10.919947828468937 9.691818460834238
Mg 5.544273778147194 3.4423228081740094 2.7089228860152437
Mg 1.9099597102997865 6.469378075994559 5.2660928211744
Mg 5.5720839430799005 5.358260360081119 11.530124474873213
Mg 2.6364246148885355 4.00451015761652 7.031416448503885
Mg 2.0625902164731342 9.173003670366985 6.661936245837165
Mg 7.713830675461495 9.967558282765197 11.347472115997494
Mg 9.443776695236785 7.932893398755187 9.756071745656719
Mg 8.14287434340967 10.581984326792739 2.2354545309799034
Mg 4.245831014361514 1.7260678653469215 8.390646571080078
Mg 8.236423581830245 5.1710353409208425 9.981961017623012
