55
Energy = -55.74041262 eV
Mg 2.5209364483282934 5.332257607966493 4.568650818517399
Mg 12.777733118032836 8.191662474124588 7.044626296845182
Mg 9.160810089098142 4.783893843566757 9.225410030448518
Mg 4.994210131577123 1.353260819101929 6.562224724044462
Mg 10.023153184274257 7.938685177607546 8.601523598890429
Mg 5.537816105846893 5.102741659432313 11.88158151379812
Mg 7.559442348575901 7.165536524750551 4.329772841519513
Mg 6.916409980975425 9.936276107364893 11.529724799929031
Mg 9.602851986097273 3.8593626616095493 6.36786591764175
Mg 4.850924081723393 6.579527549739165 6.046047669669046
Mg 5.003416530516185 6.021297468126188 2.980931760370526
Mg 6.00998253371334 4.970783042689373 8.629003027614656
Mg 2.1477464557762813 8.459265767203929 9.781711889492522
Mg 2.1342828189581593 6.856066145445994 7.256165098927124
Mg 3.211709843799686 5.508336104166908 9.869501884002492
Mg 7.094848712868397 11.736583698972092 4.358791724418062
Mg 4.090690965177222 11.212993501779962 4.390137396535239
Mg 11.648737834103096 9.385309222157126 4.367016438737789
Mg 5.370548624310419 12.030694304520006 7.1253924611568245
Mg 7.454060794716521 2.393187450372634 7.837497517592413
Mg 8.994426112059841 9.329325275402239 5.941555060106564
Mg 7.330717060772647 3.0120214145067754 10.890178657790822
Mg 4.651944971866434 2.5514173462796412 9.508574509499024
Mg 7.39538400952646 9.609466090480343 8.509185673220427
Mg 11.864947096144677 5.349755886047336 7.941879916442635
Mg 10.479212516930403 6.654484828304395 5.562421317293122
Mg 4.389623319017944 10.642211585701789 9.847299046016785
Mg 7.439555119608764 7.125239550641306 10.255993929938494
Mg 7.73004235876039 6.8244073972817 7.206912811551015
Mg 8.771900946038302 5.303261292737874 12.362113926629819
Mg 4.439046480964166 7.967477213852682 11.73533239203231
Mg 4.976090983753268 7.864704779844667 8.668411500748256
Mg 13.9528238305145 6.916394701930862 9.491146427183256
Mg 11.260684883831155 10.769656081483335 7.351297041741647
Mg 10.148200250785177 11.928818369224093 4.595355983609429
Mg 9.633976329582248 8.46007512300139 11.86878129574792
Mg 9.592360892976535 10.906117642936934 9.963061890529293
Mg 8.482033671854447 12.158476355447338 7.177834690750087
Mg 5.783501967666327 9.151893769813881 2.7326379010328656
Mg 6.640524772006867 4.461634486739082 5.607701002477691
Mg 6.820797776385838 12.391088884529076 9.724819204069929
Mg 6.615353798980674 3.6509165109568267 2.0549121532720354
Mg 3.5346665466058207 3.9404935620977826 7.058299608830183
Mg 11.393597649757444 6.2252527950622705 10.893724015336327
Mg 9.003476031742414 4.588854008073006 3.5307589860494564
Mg 8.82487911712599 9.763292175175787 2.7599782145938527
Mg 6.994142843875475 7.45315739485625 13.3547510478823
Mg 7.548937436360127 6.654864091396412 1.463900247299107
Mg 5.972751227097144 9.275146381028812 5.9048733624673115
Mg 12.203302660136053 9.323957350504001 10.091976285545565
Mg 10.321506448527698 7.253340640499394 2.5824739428467045
Mg 3.137355538223453 9.818350743637527 7.082878613287602
Mg 4.406700343133222 3.0350888099235576 4.077395518312425
Mg 7.389895717744116 1.8941587224143566 4.569878636811363
Mg 3.196553797448241 8.358704703762792 4.309354875174884
