52
Energy = -50.18561893 eV
Mg 13.655564443801056 4.9129781170640126 10.19560038673448
Mg 12.380299991659983 6.806718024234686 8.239576176445162
Mg 12.45808949448195 3.822893611955917 7.674819640515224
Mg 11.468235882716295 6.680428015303732 11.165079363813039
Mg 11.276455682904325 8.673757428718558 6.2885427685429365
Mg 10.940559310689931 5.304394249519119 5.408456859883711
Mg 10.833939211134837 3.6616788919068872 10.472399995203585
Mg 10.479195276566594 7.5892004380347755 3.581850759812406
Mg 10.171098575795705 2.091830400169913 7.88358587367029
Mg 9.815183234109815 8.166449605400357 9.078094450488612
Mg 10.124488341980319 10.724633901979791 4.471228192950886
Mg 9.871997582797793 9.785643539943091 1.4907039338580181
Mg 8.189349950771627 3.6866867520816715 6.055406737606237
Mg 9.68464230735632 5.232929754412651 8.157238026998185
Mg 9.390875718330395 8.516154183327254 12.131919127730148
Mg 7.824259215553551 3.032352966150775 9.649617189387401
Mg 8.15785759436334 5.414773276185448 3.5883102432998015
Mg 8.546287792528618 7.2081498625887885 6.174919266038514
Mg 8.803352025612217 10.236759171960633 7.2394795146891
Mg 6.604160030041113 7.456287502015901 12.462420353415595
Mg 8.415160097681117 7.144790840043277 1.2421038599852645
Mg 7.936842160133441 11.883349361649266 2.5507527803236227
Mg 8.555222247783773 5.768191107701723 10.873050708045012
Mg 7.767922308735535 8.902109784264214 3.758593401530035
Mg 8.345017094954892 10.64164004706249 10.280379121588282
Mg 7.648667503500035 0.823123500902974 7.475717611007344
Mg 6.009411652574325 8.816507401422935 6.320990804352994
Mg 6.76681063290808 9.625130797758834 0.8331943226220453
Mg 6.7843082099601855 8.242215920547668 9.27020635576719
Mg 5.5130762301795775 10.04560973731169 11.34595481020973
Mg 6.594702971019947 5.510209864460069 8.296972905151453
Mg 5.869123866642648 4.626722479790623 11.376367903239625
Mg 6.147598758827417 11.256962085217365 8.282643038117035
Mg 5.532707767909335 7.228915389797517 2.3390815140709242
Mg 5.665174255501661 3.3240208503839326 4.08247205078123
Mg 6.986560132376793 11.661037562808383 5.325323078908331
Mg 5.751490444849142 6.031863143931482 5.300364481763277
Mg 3.8181177266671895 6.803274225826461 7.4962447769681315
Mg 4.267651006793932 7.046910109278882 10.58473697034773
Mg 5.562673342844097 2.803620765414607 7.173071427685942
Mg 3.930733577456488 11.048480134538988 6.0328446514511676
Mg 3.4390641052825393 5.371755760748149 3.1951815533175965
Mg 5.147242054536146 10.32930325931933 3.3384245795770244
Mg 3.725916415867716 9.574470269769002 8.96866303885207
Mg 3.8412393920795194 4.240340703834237 9.219943646414404
Mg 1.6689532157299274 9.052673745029502 6.876652239295627
Mg 3.249999181670645 4.042099274455935 5.9289075588092315
Mg 3.580610253515113 8.17479229165234 4.621099569284751
Mg 1.2350364066892474 4.875673981024919 7.9890591414762815
Mg 1.5297243230616877 7.505443520141605 9.542201550254907
Mg 1.3272617931941004 6.2900128161663105 5.275219899405691
Mg 13.655564443801055 7.162118704510356 7.4382007841651125
