5
Energy = -0.76638107 eV
Mg 9.533499581697477 7.297897023294558 8.237406703973953
Mg 8.17640580797195 9.892858262981918 7.835385369138183
Mg 7.90882518221055 8.354349348943662 10.459822625531388
Mg 11.344214117706873 5.1785743764335095 6.945727727234126
Mg 6.841212968526455 11.141493095856811 10.215784122116139
