50
Energy = -50.27188001 eV
Mg 4.262618937077979 4.4050500107379404 1.013989951717722
Mg 5.712749813066826 7.022833809386418 0.4774364627298546
Mg 7.254794695707866 4.447430584934754 0.9005805045182639
Mg 3.5314494007948647 8.600826849555968 1.9065133831705732
Mg 2.0088047530114634 6.056212195774506 2.1970360818566324
Mg 8.984507695882979 9.118040659307436 4.377269981090461
Mg 6.407489494444051 9.25778711887786 2.501027182118923
Mg 6.1103439575979275 2.991372163334349 3.225583293076168
Mg 3.234832669222679 3.8417931438677297 3.9480472012980443
Mg 8.080443689160512 6.74009549100424 2.6922250365906892
Mg 5.109389737375989 6.159353239778713 3.380596998500037
Mg 9.168694828279689 3.840569653094024 3.3008171984286445
Mg 10.395802502260636 6.441880272600203 4.588466122420725
Mg 2.6769842942225393 7.711952277860466 4.740521658327939
Mg 0.7756658180464077 5.41552726437807 4.959594845846497
Mg 11.03462790737733 9.096259770510043 6.577923361799893
Mg 4.19425389098065 10.288362747476217 4.496971930816639
Mg 6.283900853666432 8.026217958714222 5.458030238589305
Mg 9.456817881220465 11.817642672260279 6.251575375007659
Mg 7.266918281121422 5.099627126653372 5.286973835287988
Mg 5.097770297351452 2.7004116763206385 6.068433842884663
Mg 6.9983093933103415 11.29561208439348 4.670754987366402
Mg 8.039545851149265 1.9842986253018717 5.6209616315042545
Mg 10.117783127748636 3.9778760674381433 6.307859913567381
Mg 4.452831212975496 5.738176452115192 6.359313305371949
Mg 2.1480112062658856 3.557997327983767 6.862239721277495
Mg 8.804731711034197 6.736907153335842 7.239246356835469
Mg 5.341053114400793 11.597569439270481 7.061800016245611
Mg 12.0671614397819 6.264711685381683 7.220554744104712
Mg 6.549998142676668 0.6888758913568316 7.910278281503499
Mg 7.82906659193557 9.553279858583853 7.489451087772395
Mg 1.8080855060385868 6.583653302287968 7.693146075615544
Mg 6.930335287350374 4.309287482323831 8.237992636483133
Mg 3.7647629147980233 1.6613054216475978 8.607307376461693
Mg 9.098610306642518 2.0716884301813288 8.574064229825634
Mg 7.702336136594247 12.285161785943188 8.907326718956677
Mg 6.031789491455791 7.236685028172054 8.529308004657175
Mg 3.7747188609373783 8.949091580469515 7.318732938587438
Mg 3.803850125922225 4.627154673592063 9.164487505105765
Mg 10.421633631836503 11.048599222496767 8.90660023335521
Mg 10.397569157466526 4.79383352223594 9.233918469544339
Mg 10.6863939033963 8.041909580898734 9.372187485451951
Mg 5.342923041881184 10.200037388598089 9.717649637114445
Mg 5.987957866167968 2.1887972093857 10.498692041269344
Mg 8.289537684226232 6.58965899233876 10.465480086485588
Mg 3.445858720741717 7.529638163730762 10.1054773562609
Mg 8.256460585295468 9.64100014811086 10.522059519102012
Mg 8.43275376156174 3.6319883717420014 11.192629901041737
Mg 5.735232694635664 5.188855357190103 11.30110229361309
Mg 5.901573681285484 8.15683961444846 11.769499506824502
