5
Energy = -1.54504965 eV
Mg 7.571102068527288 5.339888217784529 6.679604457633018
Mg 8.165847709848126 8.41577556066993 6.219165309763174
Mg 5.307744497905259 6.867177092444396 5.31590629652333
Mg 10.809760771776176 5.733470580932258 6.062090441367935
Mg 5.588843896968653 6.746511897980464 8.756121487596381
