54
Energy = -54.07678633 eV
Mg 13.775540841715971 7.891276514624971 8.317283397317834
Mg 11.820993691172433 10.343842363611605 8.323962099902452
Mg 9.692464912997192 12.652220589339908 8.294567980150124
Mg 13.299952677474884 9.416167955852522 5.862289706396395
Mg 11.706837270850905 8.052873604628278 10.561751236837083
Mg 9.333902573875744 8.10772328312723 12.555146252814895
Mg 9.388553480458496 10.017928616154762 10.145350027377138
Mg 12.744858718588175 6.393868864271688 5.879806414488822
Mg 12.268695867811914 5.311892373433213 8.870499457482705
Mg 11.079666248501823 11.50022284918499 5.586916553205808
Mg 10.459663509186822 7.613635910467833 7.7395254652657055
Mg 9.713852378698776 5.789280824734029 10.659535432056735
Mg 8.70789508307385 10.106969307271637 7.099203369763503
Mg 7.837366950705257 12.600766508486332 10.780169125016883
Mg 6.787224619623082 9.627218091931708 11.92587895603556
Mg 11.401492883603987 3.7311552106509245 6.469318969451969
Mg 8.502880423818743 13.057256369763856 5.521231563603025
Mg 10.730695350889143 8.54231765785172 4.74006215016626
Mg 7.766056383474484 7.665168940745305 9.182703181407373
Mg 10.191196953764123 3.019975473200219 9.296513258054926
Mg 6.460082821963549 10.506474821252446 9.032757813229976
Mg 6.898307833899344 6.511036495938245 12.070310325856518
Mg 9.962197211821028 5.556919353071262 4.615212776036736
Mg 8.524218562498664 5.03542647354995 7.561970036971528
Mg 8.44070317991326 10.423516444128413 3.9986482319952623
Mg 10.073224006409642 1.15830905500363 6.963883282541805
Mg 6.698564184788498 13.38563426700817 7.884401228520389
Mg 8.29309418875407 3.0672456221586413 5.282430398050319
Mg 4.9748588065152655 13.31357385375888 10.363068594816843
Mg 8.026619848779786 7.532648735720108 5.900095480650379
Mg 3.8919581807570176 11.843652446016607 7.861074536881699
Mg 3.873287229372498 10.659610621342026 10.860455125538627
Mg 4.854146624307623 7.877518483695549 10.22892343849204
Mg 5.561985599492117 2.9716791670562364 6.704870809520725
Mg 5.516390538039746 8.445622519477192 7.120224552025004
Mg 7.580773721511488 1.5637549813360503 8.430293472055853
Mg 8.365090830987556 7.5471326639007605 2.817135179172438
Mg 5.561332123147868 5.6431472676491445 8.169567412267654
Mg 6.0259297492488395 11.250500565323726 5.737551645680954
Mg 7.265208410807041 4.030541564113196 10.263215451236245
Mg 5.992163088618107 5.601976787989 5.094503979811536
Mg 2.2184919779163836 6.517280444225879 9.60217185476423
Mg 4.340716355294554 4.809011702225024 10.932967576878774
Mg 2.5530167948227183 9.248912165539872 8.460076470287659
Mg 4.939215911307946 2.174431577674331 9.621279448441692
Mg 7.655184368812151 4.617327013570441 2.683973348692124
Mg 3.3011106440087077 9.731250765377213 5.544490786254401
Mg 5.797660586125786 8.693619797906242 3.976992106468652
Mg 2.964954117611883 6.752985028073686 6.656687761365161
Mg 5.703240268789343 6.685672595317792 1.5773256332847831
Mg 3.1747205924663082 4.115662413882819 5.148824216497955
Mg 2.966360534468271 3.95752007180254 8.217348451965206
Mg 3.446341877403749 6.798061978257809 3.608351306385677
Mg 4.653962284855235 4.120136712155509 2.5838606786333593
