50
Energy = -46.94207609 eV
Mg 12.715169252999365 6.714642602069662 8.239737213533635
Mg 12.15161883937579 6.3556537306209995 5.25685162361167
Mg 12.152316061138368 9.448107559776735 7.291346890228895
Mg 9.862178591828592 1.874729633026088 6.497240876613115
Mg 10.517998154872163 11.104143905938008 9.1587128223316
Mg 10.32267383894926 5.160295569355338 7.361180629217907
Mg 11.245349984429605 5.177493821559485 10.343143902473976
Mg 10.423474858720779 4.071833265949172 4.455592201165684
Mg 9.990785862198482 2.7292196533254702 9.30966085282036
Mg 9.459393215953838 9.707966930991983 11.60940366000606
Mg 10.162619235355182 8.007773652565174 9.193917203563194
Mg 11.3052835829342 9.09388989682937 4.43954016865299
Mg 9.386547406573603 6.802796016237105 12.041450132341062
Mg 7.970944064030603 7.092649350883891 7.389770864466136
Mg 9.16022276396517 6.907971113147494 4.720629332619769
Mg 9.145022790400956 9.710081595625917 6.5815024378156926
Mg 8.415869745879805 1.6764538037876207 3.844300293755887
Mg 6.645679426632282 5.723369439554332 12.326764276060034
Mg 6.62716975222051 1.060960730373988 6.219679912372834
Mg 8.014159716051106 5.076370301646987 9.621958600648277
Mg 7.462458946594408 10.97715833002344 9.824841141987516
Mg 7.762715708965476 3.9838089222177753 6.393154640992717
Mg 7.133548281991342 2.1080033921716144 8.938825547137075
Mg 7.856160402706808 4.598236683954342 3.088723612343129
Mg 7.101162143323447 8.044751693723766 10.28870140847993
Mg 4.940777714392295 4.843822877705163 1.8929301629845015
Mg 5.51800585135125 3.1662227727031578 4.3655159932833465
Mg 8.598120554998845 12.681327620392883 7.597546739108537
Mg 5.217866658458982 3.9239357373676422 10.41854343689697
Mg 4.895738270619766 3.4963862257790286 7.3261621528008645
Mg 5.32870709308913 6.445594578986726 8.318917632397623
Mg 6.982479198030681 7.415477416686623 2.5045606823053315
Mg 6.090464938102007 6.230127152087563 5.2101026093694465
Mg 7.313923185857953 11.813495940503815 5.115269693747912
Mg 6.1583448769281866 9.463219605429545 7.2301716648699434
Mg 8.704115776655831 9.737643479227335 3.419993439609727
Mg 4.263048634199907 7.049831583988098 11.154608539318824
Mg 4.6960076485829 9.97740956922133 9.942744297643253
Mg 3.9450267277913973 7.374148606920477 3.1619525323974296
Mg 5.61551140001106 12.361618396540587 7.867228863428971
Mg 3.2492685632486253 4.995073261493993 5.051141117917664
Mg 2.8211090446360965 4.936766513764943 9.066812656011553
Mg 5.678245479876882 9.499904811572929 4.232035994692928
Mg 4.415916914629445 12.290287747849407 5.019357944231036
Mg 3.6616470588315675 7.85624453122065 6.088894208432007
Mg 2.5738329191334994 8.02495726064754 8.931823997876721
Mg 3.2078675769856213 10.659915146369793 7.365006964218404
Mg 1.171475096099403 6.151580320693741 6.901394916971429
Mg 2.548085044391235 10.056964197626991 4.277683546229645
Mg 0.815563195156954 9.076807899516545 6.5749805698972095
