52
Energy = -51.49795153 eV
Mg 5.3301434719820735 5.648867927950664 11.040691873039929
Mg 6.4290467166732554 2.8339870611353772 4.359708632712897
Mg 8.214127234761062 5.437985577128193 5.825143264039261
Mg 7.018580690450536 8.423425233584478 10.840691026826631
Mg 9.741523710107863 1.0236753884277778 7.913744737386191
Mg 8.332147653487596 5.6756791519564045 11.270056251975625
Mg 9.810365881586282 7.389570440475425 4.050271529984803
Mg 2.3562334409682157 3.01270317401373 7.451840737990386
Mg 3.9739982341105446 8.966013084460291 4.116214089838737
Mg 4.173267261930944 8.293485931430158 9.762550230407886
Mg 1.4260406615772907 10.970401518816155 3.8781108255632324
Mg 11.137617827242131 4.791414831422072 4.409928414885935
Mg 7.1197264452483395 2.9680797652700193 11.116622823648239
Mg 1.0783185626346947 8.346124486638514 5.166286643587888
Mg 3.256530704110239 10.71855849279367 1.3752151006692084
Mg 3.291382244524679 3.457034427290028 4.551400717496577
Mg 10.027679216465259 8.095236114552595 10.447494531294987
Mg 7.475376530799886 7.579630691970967 2.1071739098134925
Mg 3.129660178378892 5.592602748816409 8.967071494659471
Mg 5.166757330524385 4.587710663101407 6.622423663854176
Mg 1.6309686391670484 8.315047854213546 8.068970981406
Mg 1.3966476684033127 8.548534744360143 2.058114688158214
Mg 8.78886434839581 10.564243754171276 9.52877887823838
Mg 4.211474070589145 7.4310520861730005 6.654103714784113
Mg 8.90965746234372 0.5633030373095358 10.773687796909886
Mg 5.517512271149042 5.667158070883262 3.629031951363575
Mg 11.727672156493918 6.910147864463411 6.61243535988483
Mg 11.12351417144904 3.7023184390907904 7.181259380045266
Mg 6.636738543967624 6.543897396143318 8.40788220818727
Mg 6.748254784102083 8.029315002238382 5.109323830341634
Mg 8.456186233077268 4.7935992312705675 2.856972932981438
Mg 10.0515009489593 3.2322707325781037 10.087574215908315
Mg 8.778983823108987 10.151858898054112 3.909557118903845
Mg 3.38930843028218 10.475329587000628 6.702624019021023
Mg 2.540892990263422 6.170047091019094 3.449156816542174
Mg 4.389248143423862 7.748486615653239 1.4266348475609016
Mg 7.428663391199152 0.5222387932686121 6.062365403054307
Mg 6.112934200737734 10.280615478724952 2.416407853008188
Mg 11.337080337488219 9.680741990715545 5.432808743779887
Mg 9.330313428559878 2.532909305417557 5.01475315431931
Mg 11.518446642521084 9.69606079509348 8.353608225731522
Mg 9.644108464714028 5.804235766475635 8.58211322998733
Mg 4.060541921764479 12.178122253603535 3.876719025772827
Mg 4.704700771807119 1.4283207733208874 6.578513011300187
Mg 6.294471901500947 11.097584401488339 5.497766541652689
Mg 6.211859737551785 9.71694962734686 8.101186143442444
Mg 4.725141351758302 3.05216420828926 9.356251696795505
Mg 1.5925684251427212 5.605442763650633 6.2804394008001365
Mg 9.146125053251433 11.409268596127568 6.695649573009239
Mg 6.566800940893817 0.635484042330158 8.959028781817166
Mg 7.695010449151234 3.3849835864103572 7.943891604303566
Mg 8.884301418877646 8.35509762153975 7.158765490974031
