5
Energy = -1.72515606 eV
Mg 3.6479119657213315 4.769588507795106 2.1681308150141256
Mg 5.123677708349082 2.402752557550986 2.855112753321533
Mg 3.019325214086215 3.773119096894921 5.004496441803287
Mg 5.827459176948775 4.948979306369893 4.6540567302653395
Mg 4.376481405827595 6.101881001577916 7.311736053378027
