53
Energy = -53.91359713 eV
Mg 5.516354587638833 10.258995609595164 2.4809695292952103
Mg 7.919989573507684 5.020432864286896 1.4320590456153242
Mg 6.560982702034704 7.580134703770873 1.704960244942413
Mg 4.679772255819559 5.187539818242756 2.223407650088897
Mg 10.988627048491407 4.828515721785767 1.6866498628868425
Mg 3.5697346726891275 7.954133468296487 2.738004313082161
Mg 9.688910853800225 7.552611207530592 2.1241782480435014
Mg 3.5587866477700296 10.432290077217607 4.718454140943246
Mg 7.812986105278245 9.104708752612703 4.057132422427751
Mg 1.9118133958958112 5.406886845749539 3.5045105228135363
Mg 12.09791681600745 6.512643859244025 3.7664455832512114
Mg 3.4856222455736643 2.5953211285156548 3.7718162176342727
Mg 9.291455886668208 2.6821624080463735 2.770413387386266
Mg 6.5162942900360195 3.4980872379543437 3.764282969997847
Mg 3.88214316783937 4.670347295686014 5.86270267596957
Mg 8.839366940735998 5.6992552308722635 4.4441123402181155
Mg 0.7656237588054692 3.141173291562063 5.216567856029387
Mg 5.843254563211834 6.828731052234333 4.702972159009006
Mg 10.578864104821582 8.686587084193995 5.058825394609213
Mg 2.983928076680524 7.629053760079011 5.6871330500999715
Mg 6.452931192893149 11.97037197959783 4.7877518229788905
Mg 11.20045950472586 3.8003518349978562 4.821364374144652
Mg 2.790189830113286 1.6920453122822123 6.701895293071702
Mg 8.846559594561171 10.690273291169245 6.428955788187809
Mg 4.972514725570309 6.657851308882303 7.870278693360516
Mg 4.235183290160702 12.518147261912064 6.818555957550216
Mg 11.267873441423678 6.319411154324495 6.72956075189526
Mg 0.5380174324059076 5.906416308630982 6.173653336240536
Mg 9.780810778716848 3.973274262372909 7.671952173847521
Mg 1.8420295783663811 4.102857724798334 8.238913094584765
Mg 5.653085045017487 1.7203780465672132 6.067560486587778
Mg 6.896003733979913 4.5298171950451245 6.569367730943678
Mg 8.635399727347615 2.1396155017232457 5.621647162511193
Mg 8.203901442618937 7.40898042897848 6.848136330159411
Mg 5.859627808360381 9.419676082761757 6.568466235935561
Mg 10.409982803867404 8.728815928571645 8.415911940710803
Mg 7.044259716989576 12.842688957096877 7.582546250712196
Mg 8.476635997804692 10.864895081509792 9.397610921990472
Mg 10.668778732847764 5.906868916204213 9.834981856573698
Mg 5.293504178659521 11.106641786711217 9.351819443906955
Mg 7.580895511107763 5.540642529089221 9.319004873056185
Mg 3.003766531995027 9.817687097995236 7.811051584994569
Mg 1.952460107309025 7.0653522581997334 8.594711451640137
Mg 7.511207680826999 2.137707269986626 8.594285262628404
Mg 9.380161901898775 3.1317888398805924 10.650613785823245
Mg 4.796217530951777 3.3848171586872415 8.582133887941962
Mg 6.789435783709828 8.483913064174809 9.370149412826
Mg 9.08092850174334 8.065019927476373 11.141597256581063
Mg 3.977595275986163 8.460204445587904 10.384839487651176
Mg 8.816131390000026 5.343216111274474 12.453686474705803
Mg 6.368276200086551 3.648519997300699 11.293240489738086
Mg 3.8072088429653466 5.4133161909337035 10.501449017836789
Mg 6.1726792134762665 6.735966049590644 11.883850476130378
