50
Energy = -47.64976103 eV
Mg 12.333921920360641 7.692312108677293 9.962512968167525
Mg 12.173390131109944 6.149005273107939 7.505876227284393
Mg 11.012462273811204 4.198877769141988 5.563072310715808
Mg 10.840228015518793 7.127838846143704 4.989839000529224
Mg 10.759853599343026 3.8603071436452896 8.760974430007495
Mg 10.24924847749357 8.497720167582978 7.868282603485492
Mg 9.581449631862517 2.292010413660077 3.7395938465134457
Mg 10.599085466968287 8.810581763505416 12.067786013559877
Mg 10.508364416585746 10.024044543028806 4.911102148027014
Mg 11.432995762718166 10.68315187309676 9.67086209273015
Mg 9.032525881519401 5.220819817272564 3.3221519969889743
Mg 9.173709788965525 2.152914283385753 6.944447277117877
Mg 9.527822674957525 6.2460608890854505 10.185004052323874
Mg 8.785885475910966 5.765913715447904 7.025040328588447
Mg 9.920777121575316 13.008451730694825 4.7102284414158575
Mg 9.46144881774731 11.467262509685396 7.471249657355369
Mg 8.468810284827079 8.154058837002397 3.3261529029952186
Mg 8.552880944865219 10.370717025976084 10.337274303388272
Mg 7.202885908954001 3.6926976863801344 5.091870565002345
Mg 7.533458544924374 0.5009942916735605 5.035961008227547
Mg 7.87070747319961 3.720154135818293 9.264886106971684
Mg 7.868184609488179 9.097639379808326 6.1126207836025355
Mg 7.771562218971682 7.961142585892936 12.119076899442247
Mg 8.125703997712925 11.084588938402812 3.0751127350103813
Mg 7.3045031552498125 7.9074434866814425 8.89970377829389
Mg 7.08853347359723 12.214963059000413 5.696310465309601
Mg 6.542313113217092 6.259713581409298 1.8276027029963673
Mg 6.364935004510578 5.67555699240618 10.863107190875072
Mg 6.267258951134034 9.233016594082036 1.488209186342145
Mg 6.18944194546772 2.013592916763725 7.46746454369377
Mg 6.48384651199689 6.63618710248559 4.9925740973395145
Mg 4.853429815815126 1.8169196182067842 4.680362672905455
Mg 4.849893852024742 7.694398920496775 12.848350391915472
Mg 5.564954096791686 9.946233210209018 4.256019951093357
Mg 6.464996849372088 10.988761222846565 8.324264658553576
Mg 4.78152427796016 3.325987760480975 9.737526397228942
Mg 5.66257516596534 10.096649463681477 11.12151963746589
Mg 5.007026789400484 8.587226372616115 6.973731339296836
Mg 5.762753919912491 5.395369745199508 7.665341470556737
Mg 4.03753360874121 7.608732971847141 3.0210676858430907
Mg 3.362820652518849 5.319787625869499 11.574474417833631
Mg 4.6409845584415415 4.611649413324892 3.6489343967344587
Mg 4.314473816816839 7.657580548501303 9.792165293312529
Mg 2.578406953812432 5.393827251247971 8.699788636661214
Mg 3.4166022209565625 6.261818108299216 5.8108179556505855
Mg 3.511361255364091 3.3649405560737424 6.814534251465468
Mg 4.157181490024698 11.70975226530202 6.350828994736471
Mg 3.499477261286403 10.590650204197397 9.019561818095077
Mg 2.613280977485426 9.338246974497284 5.042456422409387
Mg 1.979912512695653 8.229527100896911 7.795572516873944
