53
Energy = -52.23087475 eV
Mg 7.745655767365838 0.8099653101692572 7.300028123746755
Mg 5.1273230353462855 1.0602431918880135 6.002495928731199
Mg 5.263053335246931 0.7457942940733677 8.964161722749537
Mg 7.7359530502538485 3.379139952585279 5.034198962506748
Mg 9.645726558824597 3.0620877369014696 7.526135829744784
Mg 7.76191937040164 2.409496200461808 9.971959497218013
Mg 9.850618501707936 4.716297429889761 10.071262010552005
Mg 6.254910184176554 3.751456014617172 7.613167384250582
Mg 11.548107708582398 5.559106556851791 7.747055166016761
Mg 9.448129427057987 3.9702184529782545 2.4035657237066848
Mg 10.748393566914462 4.509256571440538 5.039974896210213
Mg 4.614107900939732 3.732927137543981 4.783814698643727
Mg 3.3429424070396383 2.931750034862118 7.66675748038045
Mg 12.137815818399641 6.601058009714618 10.622130515978137
Mg 8.754633290217123 6.477401927722435 1.0993219364619038
Mg 8.411490820113059 6.32255374724081 4.247875632139544
Mg 10.777877301801661 7.879019598011835 5.806441863773
Mg 4.807040325983262 3.2210425008836867 10.46254830658207
Mg 12.889961240900009 8.12941509714716 8.20943698306043
Mg 8.39993965445129 5.877585022977425 7.262197953707174
Mg 7.019778307690886 5.5927456870387955 10.152148467364567
Mg 6.41086649612237 4.829076844401653 2.45614363404081
Mg 9.401288452833521 7.210614344497016 11.778289276621184
Mg 9.55733428196918 8.080228034239381 8.831148932228551
Mg 3.845918742149917 6.285229695908372 3.204199063952134
Mg 2.6007010285245307 5.510988467617258 6.122782215361244
Mg 4.373740713809507 5.852318934846778 11.878977728785975
Mg 5.664636178353359 6.4542942351133155 5.887648401001278
Mg 11.65369618099159 9.585740084097246 10.644905266871469
Mg 6.414523167164984 7.958667071141662 2.469677185735207
Mg 7.792477963912393 8.71488087843575 6.004428599846906
Mg 4.1698889445867575 5.79667683264635 8.756907485028865
Mg 6.498128555587838 8.064854436020934 11.919921725310855
Mg 8.733001019715536 10.10842137264394 11.278482055264496
Mg 11.26908684711552 10.463497970224259 7.6551096980978794
Mg 6.374177878661359 8.246308147903765 8.646330728049332
Mg 9.247879918865488 8.934906809305565 2.9398283434515613
Mg 1.7366512683688542 7.937431238348315 4.628525468809827
Mg 8.19262552671006 10.881483351440068 8.27857384767729
Mg 3.7699711714152837 8.383468913283506 10.430211200119002
Mg 4.497416017918093 9.090042283125094 4.350327208913799
Mg 3.4873699058621974 8.340852329645752 7.217122848273337
Mg 9.760954538355357 10.932713315748293 5.091782719139516
Mg 5.563910903440069 10.708743539747024 6.618212852023148
Mg 10.445086476789092 12.383845537967963 9.89885520492416
Mg 5.797431560529999 10.704928102098387 10.675114374817708
Mg 6.974188246956732 10.82476838139979 3.7157353832919546
Mg 3.540862283073329 10.927964387282788 8.806672320257606
Mg 7.54697392490897 12.980529881645845 5.993001673936693
Mg 7.690601441265661 13.007523511490444 10.929164765114699
Mg 10.413441585465717 13.275544956840506 6.9373278417596
Mg 5.775439829766529 13.052616686236314 8.598330257027314
Mg 8.433794236652917 14.526842684322235 8.543177526552196
