5
Energy = -1.01127958 eV
Mg 12.01855355484179 8.157090357274567 11.109474519077004
Mg 7.387248001630987 8.70779842508374 7.327166589555656
Mg 8.52672038556783 8.255802841636767 4.252115234566657
Mg 5.714941196687045 9.048794566296504 10.039453581818528
Mg 8.89451640436444 8.715089073236195 10.130466065115836
