52
Energy = -52.01198454 eV
Mg 6.795478579010892 6.993444688528305 1.4482194134132873
Mg 9.152045211424614 5.83593047044225 3.194489233984249
Mg 6.573245757125228 9.780959991320142 2.4547885773823235
Mg 4.58520523673187 5.072128206535902 2.305883425490098
Mg 9.305052912803411 8.744254455248363 2.2409994409462946
Mg 4.1506759450491275 8.016001165836915 3.070086328177473
Mg 7.282560057097329 4.001671253507189 1.8062143010214207
Mg 5.74497614537 2.084416529274304 3.4689621802043615
Mg 11.279850928137453 7.566687859444207 4.24597014483577
Mg 10.888504237829942 10.728684933216357 4.026535929304975
Mg 2.7654623909946046 2.9435859733832466 3.7119502132431137
Mg 7.895313036287318 11.803726184538615 4.330486083675328
Mg 6.584564297287748 6.900118553063202 4.641370662276781
Mg 2.198855941519971 5.996423858666573 4.095515604569026
Mg 8.60837792779763 9.05685578685133 5.265189058611741
Mg 11.516563904793669 9.255710099661023 6.737580150318014
Mg 5.394828014259577 9.959524836957554 5.122655245111605
Mg 4.818602553737127 4.489105375483887 5.310920024978934
Mg 11.026908347564476 4.403753917242408 5.040251543612456
Mg 2.2777378020452512 9.213700000118344 5.4932734868149975
Mg 2.0634323088152726 4.131222484820381 6.540950806158512
Mg 9.021660518311714 2.186692573980327 3.6036534457807776
Mg 7.317900671187073 0.802241633467537 5.675141328734054
Mg 9.924965427099162 11.834570230327035 6.597687895764637
Mg 7.727166535669901 4.105800816753154 5.3538023302166495
Mg 1.4977842409381839 1.0216810550097806 5.812391313623715
Mg 9.665882714067164 2.3203936479748193 6.880368304001061
Mg 12.754259342991343 6.521911872735049 6.646906737432304
Mg 9.266282540342596 6.481226439108913 6.628927073738835
Mg 0.7319839052625982 6.877142917836408 6.615053641583516
Mg 4.501745744460983 1.7088069898478835 6.39910516381802
Mg 3.9326137878948106 7.00196056861979 6.569197995528698
Mg 6.685286476366408 8.354161676688161 7.410592643360285
Mg 11.8006856048589 4.156829203072605 8.00926863007132
Mg 6.524543172204175 5.472311641493518 7.68957738256648
Mg 6.887279349744271 2.4291452503032454 8.230889810796103
Mg 7.065994219666106 11.439219466478555 7.360525035112503
Mg 9.228827795680392 9.585286218424162 8.624663924357245
Mg 4.240123641494821 10.226264215451993 7.925266140289404
Mg 4.170743544459005 3.8256996104822036 8.721490974976014
Mg 1.8045118675277034 8.727670706628832 8.752957183234244
Mg 10.95995833379187 7.006802797407036 9.092170311790817
Mg 1.8561405424467283 5.72439088178016 9.193243811033028
Mg 9.07475258307907 4.432194169078499 9.102270521577234
Mg 4.612605675332269 7.197248371520371 9.388925409095823
Mg 7.972310822022117 7.1458482100649965 10.033217925168397
Mg 6.486221562987129 9.838618379897378 10.101715724374426
Mg 6.456747256176517 4.612242209590521 10.709167758998728
Mg 3.6544445637501153 9.929673102954348 10.91939215356977
Mg 3.652147523308362 4.9959374768674225 11.614368925823696
Mg 2.2090906183250314 7.5404861153441365 11.651761108367369
Mg 5.40709788287349 7.519634926674269 12.134007541086433
