52
Energy = -50.39293019 eV
Mg 14.168737953942216 7.141874380966405 9.690230775066075
Mg 11.685651493067656 8.946294928550513 9.685217976826
Mg 11.498742933492506 6.110183223488279 10.667690210021085
Mg 13.06901554016572 7.930139233946503 7.012551060822382
Mg 12.791496828193749 4.982351432124198 8.105787835467568
Mg 9.260110728890487 10.71043447864675 9.679198470264843
Mg 8.955413419150759 5.02076780516769 11.709036067915775
Mg 8.854579287734545 7.764447666326362 10.361431149834953
Mg 10.862123180047247 9.952489041261794 7.002688505869942
Mg 10.228139824186963 6.753402674741606 7.875611395265864
Mg 10.239829705752978 3.8395115257853165 9.11425350222102
Mg 6.695927743952096 12.291881653569908 9.703163788466451
Mg 6.240002592851849 9.308615010460422 10.193162819641572
Mg 11.044565332497159 7.360400286537303 4.9408993256839375
Mg 6.52686819374815 3.794572102406125 12.944298489675834
Mg 6.421308924046649 6.621466344479341 11.768385388375211
Mg 8.556455458855423 11.747817467386524 7.021637326191394
Mg 10.818397156497362 4.383624551077119 6.005506279030316
Mg 7.568479355691855 2.9009828241329214 10.178869310789613
Mg 7.931226849353973 8.671629337850076 7.549027178766407
Mg 7.1487293136518595 5.686497056453503 8.676209090905397
Mg 10.227015341132395 5.031349555134914 3.160170457223496
Mg 9.16669275919046 9.716586173648507 4.637956115696546
Mg 8.289184016229976 3.1029986267026985 7.0626143464768
Mg 6.175344495069121 13.538979805930689 6.940145500182947
Mg 8.120928229225562 6.1589147839988545 5.612476182864743
Mg 8.356058416037929 7.286316409849345 2.669833181745738
Mg 5.551032909499634 2.113366566471667 8.179660100213264
Mg 6.345096394323502 8.652213275404641 4.629813889322491
Mg 7.897513217201666 3.4252000619374283 3.8627781989476433
Mg 5.644701089090968 10.475702979573665 7.308349968659428
Mg 4.761556314508613 4.165185344653623 10.532213649987623
Mg 6.749093708889342 11.747543282932787 4.631215439702878
Mg 6.4821896310056815 1.309168408793404 5.391077604097994
Mg 3.8211381263909656 12.675604127552651 8.808253609399122
Mg 5.742928067984952 4.225493619211569 5.99309502402157
Mg 5.106373612125054 7.07597175485928 6.670216336572392
Mg 4.446954069278823 6.932647203090665 9.531451388004992
Mg 7.481181927151795 10.208874995691758 2.235703909906308
Mg 3.1717338802754336 3.9926866027966597 7.784595642876569
Mg 3.8511801910387597 12.328832389719462 5.58053637616752
Mg 3.3053257474427213 9.631802509483096 9.015070023191393
Mg 5.540685136197658 8.001244052600565 1.3493304697878603
Mg 4.412466729913185 10.538242598250445 3.0799422468233613
Mg 5.812216462814765 5.723962427413889 3.3143555881260807
Mg 3.4650116138373317 1.9061912739352926 5.648705818959814
Mg 3.0211957980222026 9.546371207973435 6.048378654720899
Mg 3.553968349817998 7.701328523182587 3.8230951261904087
Mg 4.906786671253923 2.8346514565822276 3.189154217265899
Mg 1.9500098472156955 5.31494291540701 10.065889240085692
Mg 2.1929473458502775 6.964523928411625 7.475266286016724
Mg 3.082966419432645 5.013945692500849 4.900549741704017
