50
Energy = -49.72381349 eV
Mg 3.0685532847653882 7.049520647657198 1.6208369058623389
Mg 4.009190840758204 4.292750903885201 2.493409175058733
Mg 5.9415448226827925 6.694146960513288 2.850746752292329
Mg 7.03240496043733 3.8796820287250444 2.9426843409182646
Mg 8.762448090008313 6.252604950252468 1.778225753645667
Mg 7.349867261345776 9.265856601758871 2.4194463861153555
Mg 1.0335445003859876 5.216198775235426 2.66474842720508
Mg 10.308754179521523 8.81415412355391 2.2777847443852504
Mg 11.691443910621699 6.286978069361102 2.834119529304409
Mg 4.285509154212862 9.351520764359353 2.9862953609848653
Mg 9.848304591146265 4.097926214229618 3.8446806166528877
Mg 4.952728053372596 2.5781493475141066 4.788251858883725
Mg 2.059830855898454 3.128222241766709 4.562089299997506
Mg 7.8897572203448485 2.3186689663793785 5.406726607440678
Mg 3.6358226604960158 6.376746309528719 4.819936424798757
Mg 1.2609298995994223 7.98482494863811 3.995232426425273
Mg 6.13323919519897 8.451575658223792 5.410775926648677
Mg 6.154842015617556 11.334582212147657 4.490954962372636
Mg 6.273613859729874 5.2759272021644055 5.809139160063791
Mg 9.144506521490905 10.319926200672436 4.630466498294078
Mg 11.676671069770771 8.449529665235351 5.005496372012345
Mg 0.45157225468834195 5.322383537287591 5.563413288937605
Mg 8.851310925316687 7.071852839165968 4.7581816374707735
Mg 11.897776672406538 5.42512494993761 5.677037469341322
Mg 3.17957731537078 9.567631252962952 5.764861387504418
Mg 4.8940818440408895 11.374360629882192 7.269489553126406
Mg 1.5980331140267987 7.4021319031280495 7.188799837300064
Mg 7.906391967724398 7.576945128151077 7.707805333118226
Mg 9.038805089888625 4.829351664547129 6.857610569325446
Mg 7.757555274745297 10.767561202725739 7.203143916399282
Mg 3.3558551979091598 4.412555110947807 7.079222101685221
Mg 10.640892744592843 10.18312462544833 7.2742365354384955
Mg 2.9626760804196164 9.498302717498643 8.858130148095071
Mg 5.7817536573742165 2.3342508484261124 7.634776110416505
Mg 11.05484455469564 7.288445899930655 7.836569555564271
Mg 4.757903888631062 7.173104533225013 7.798995638004995
Mg 3.9027551670049903 3.253935536795677 9.79576609801459
Mg 9.256382026125497 9.335765837142821 9.854888817670568
Mg 2.6211011016604626 6.032144970720547 9.712120157467146
Mg 6.078598179684539 9.645485443517623 9.411356003792752
Mg 6.712491166854563 5.039767834922392 9.010459696824427
Mg 11.379515187073116 4.246858311290426 8.603326223344641
Mg 8.720402049141985 2.130674052387311 8.281701990891559
Mg 4.119454819866975 8.171804112632087 11.230370281333487
Mg 9.53777932597384 6.18125767324239 10.177447765554158
Mg 6.6732098459318445 2.473380720848907 10.738321527820636
Mg 4.913468433256416 5.288783088424042 11.697174386968085
Mg 7.10107444322662 7.553873810703422 11.238560984762719
Mg 9.628410473385616 3.1846004230704086 10.83786500021896
Mg 7.7455797315247565 4.847808029183129 12.339079934192332
