53
Energy = -52.73375144 eV
Mg 10.206905622517793 7.81095685314189 2.0911235262774386
Mg 6.921114548813473 8.633958217051168 2.426145971080963
Mg 10.600748760883118 4.768531106318693 2.960853295195899
Mg 4.728653871913679 6.4431551132918425 1.9582703270820339
Mg 8.303577125551358 2.7829251745907286 2.3338204568504946
Mg 7.854014560902343 5.80704827288455 2.220102246842262
Mg 9.034407090681539 10.572407795863551 3.030247951898982
Mg 3.0460641773379864 4.070092264724125 2.3296811436776346
Mg 4.0922092753475505 8.606434606931488 3.9011227658653973
Mg 9.963788240128645 1.9239681804477085 4.555935843849377
Mg 1.7090345484976497 6.644135197759519 3.469793129918333
Mg 12.24040875708756 6.8288620789975525 4.475726037458966
Mg 3.853313086587118 2.0234989485063606 4.644866076486789
Mg 5.822507605225254 4.0343494358340655 3.569466676992881
Mg 7.045168579926385 9.697766292470751 5.518088778429536
Mg 11.735864439711639 9.735176183449687 3.9683272194353307
Mg 1.1270616544953267 3.666657759666006 4.469831927433495
Mg 9.254413970759542 7.677986549129509 4.857611451623481
Mg 8.583596029477013 4.6360310351570915 5.349401718933158
Mg 6.391122505666184 6.752067926365391 4.8387463751496815
Mg 6.915886708127119 1.5712290146986696 4.8203236295888585
Mg 1.9534870025051718 8.628145334008192 6.005496224047289
Mg 12.089634354086034 3.8244692699357015 5.389739597731057
Mg 4.252826503101265 10.842523229524067 5.877668939581657
Mg 3.699466654422864 5.474979744524496 5.318372253321114
Mg 9.838270544327463 11.189523994282665 5.788444707677811
Mg 0.818774200097175 5.876310310960859 6.481662144154338
Mg 2.5480454070414265 2.9700934678411763 7.1260806054952
Mg 6.01136572707262 4.357618389263873 7.003525723783345
Mg 4.716418939117553 7.851050006301536 7.17307862119919
Mg 7.379489828316092 12.511273321555935 7.014740426602415
Mg 10.874440554346764 5.899752968593789 7.081526858186692
Mg 7.815928266360736 7.327773274233229 7.496535099943991
Mg 5.28687966317848 1.3899090650292172 7.435485367811429
Mg 8.454422507120317 2.1571166005261557 7.30432590522635
Mg 4.687198249022678 12.97358048137716 8.035873396414557
Mg 11.262972756398659 8.788624640242302 6.9556615027497255
Mg 3.2084292081883774 5.545751291739316 8.325381490825906
Mg 2.882974459750061 10.497716087137984 8.501561188054591
Mg 6.014208401368049 10.167663820066231 8.561682866633596
Mg 1.62655129392741 7.884720229630245 8.998826910412964
Mg 8.83619619087702 4.712327138214406 8.786729425922314
Mg 9.016364374330593 10.128828540495164 8.488471045078315
Mg 5.983675951362515 5.9805453670067 9.562100501913495
Mg 4.1452377296279925 3.1596008047816975 9.73868605692669
Mg 7.046498970423879 2.7136188839417077 9.870172078933992
Mg 4.264616588603615 8.549774614508665 10.443720104689756
Mg 10.11486655043887 7.416238245413614 9.679945693433075
Mg 3.2773164412090887 5.849079820533173 11.309926751228504
Mg 7.498729518699911 8.547823515177251 10.707695291799281
Mg 8.309876559601783 5.693273638484225 11.614170768331123
Mg 5.711355864487501 4.137071497095698 12.216926019181603
Mg 5.715792925652016 7.038157744994773 12.68847322734095
