50
Energy = -49.5757465 eV
Mg 12.66583879918364 4.206715189544793 4.601424502014104
Mg 11.117914918646763 6.706670437817964 3.699442265108808
Mg 9.920303162806674 3.710752243900111 3.374215442821274
Mg 12.862442720167016 6.655335902814477 6.190698235330794
Mg 10.98177553000478 2.316798134812317 5.957789245755274
Mg 9.304470135792872 9.189949686075847 3.4566880562320774
Mg 6.872407442065226 3.5526769177477724 3.082781951479187
Mg 8.12921810606849 6.334191945983598 3.2726887306392936
Mg 11.115270257546282 9.050581750179425 5.8405866045518
Mg 9.692075808518274 5.265024614939713 6.068823479178177
Mg 12.060550556220509 4.363954209249267 7.9530776507843
Mg 8.046163578332788 2.455013246041071 5.6798373426541096
Mg 7.766344959037148 11.722260713177494 2.966888591048418
Mg 5.107375011042821 6.286782989796627 3.205735849155161
Mg 9.479867121131837 11.605075384266442 5.520682594923262
Mg 9.332537339237328 3.0250926521193104 8.449355625625847
Mg 3.8817399674759736 3.5657430362848244 2.977100865596891
Mg 6.235811326748561 9.069825169542197 3.4021210382994065
Mg 10.695163760977605 7.253480776683967 8.24814840902899
Mg 8.12718932335264 7.891074577357674 6.078672950054545
Mg 5.014305992048893 2.470282945959614 5.507559559763425
Mg 5.0001830196016455 12.070486107666655 3.810830889645378
Mg 7.407471690897156 13.780042185158724 5.0642934996807805
Mg 6.5526830123993305 5.215581690742252 5.81533701672768
Mg 9.188609394953449 10.064697458273082 8.171594219268782
Mg 10.362071135581067 5.134153079452539 10.430011486135719
Mg 3.4845070174142885 10.676468576061387 6.033611959184942
Mg 6.641596903938112 10.548540482221004 6.080478782547587
Mg 8.96043679483672 8.176383565440744 10.55146797493936
Mg 4.8158539428972285 7.91914515923178 5.885416699500631
Mg 7.6460698963576625 12.784645041121781 7.9740834150137685
Mg 7.923801413546062 5.853162291088678 8.569808946253811
Mg 4.971515479257991 13.296117644900757 6.544469026231056
Mg 6.277890272768683 3.0365010108911106 8.26280052523229
Mg 3.3752262689049974 5.184386120916662 5.493882330974243
Mg 3.1541289472027088 3.218040270596277 7.844049161776689
Mg 6.3929043872445 8.605919127047141 8.590567472370346
Mg 7.590527335090381 3.7904677017172137 10.92323554047695
Mg 4.931953254123973 11.318580839133064 8.770530623757162
Mg 4.8009562743581204 5.922705660511555 8.267981270254829
Mg 7.073511195719483 8.941764732157319 12.79851833105571
Mg 7.394675004117087 10.952496961230052 10.559653302803365
Mg 8.485858919340757 6.048498690335282 12.640356852422851
Mg 3.1559565735154527 8.786493652142271 8.440734617135078
Mg 6.043944903338332 6.616021168821344 11.061066367024445
Mg 4.544800825824111 3.925910443834129 10.725348751697585
Mg 1.7550317170707421 6.111870593001765 7.936791147765898
Mg 1.6110681241831664 4.142414514064307 10.208313307896072
Mg 4.648042072187368 9.409980755150295 11.14700294097817
Mg 3.0109055582977593 6.779474267836186 10.765979268950819
