55
Energy = -55.47592996 eV
Mg 3.4299921778170845 3.1115371968038272 1.067325089490765
Mg 8.129769310289166 1.8414669084115458 4.764518103159787
Mg 5.39494977760377 1.4071405367362892 5.780457895569333
Mg 4.696415161183342 5.509410238045219 3.121568852879417
Mg 2.6083830005571 7.935299989170336 2.4940769330867103
Mg 5.268873973220867 7.6901657750187695 0.9187538716216047
Mg 3.0632519510219876 5.8053580881922615 0.19537223350613037
Mg 0.6126462505899357 6.435664014466438 8.055880473134145
Mg 7.709955011069036 3.926653441058287 7.400978595042902
Mg 6.6016484235005795 7.931466931423074 3.906858059134332
Mg 9.26893112912863 6.339711176162994 6.4545403591847865
Mg 7.375024899420094 0.9424772803253686 8.171879208593218
Mg 1.620298148895736 5.068777146766502 2.8598885528408786
Mg 4.026485264476458 3.919665133590107 11.110842775365002
Mg 1.8576659441637438 3.6625622813362644 8.882272313987633
Mg 12.448020457987125 5.888097545267425 5.737365186223895
Mg 8.594800683224056 9.30506757386655 6.016764009580552
Mg 10.36775778460492 6.296959024933012 3.492537834815801
Mg 3.785108677809364 7.283831334428599 5.420961125363463
Mg 0.8592177552937345 9.307878138131647 7.2817198273505275
Mg 3.1229486310939722 2.649171173109358 4.002659141591512
Mg 6.773712925228488 10.440028376708906 8.196869660582335
Mg 6.068466813811572 4.60350272986187 0.5302408389530048
Mg 11.239823045140724 4.136224558814443 7.864663975204795
Mg 9.64225999345108 9.126651679898078 3.03679572369412
Mg 11.569221799140966 8.622564617842059 5.338435253943308
Mg 4.694610913944344 10.201152544847423 2.6472124534207344
Mg 6.353535097431733 7.158351662660189 6.9854024262462575
Mg 3.6718588276020787 6.135714671753057 8.392195634337483
Mg 9.282601430625144 5.275413600374674 9.764880122637999
Mg 10.126278428508808 1.4440363611601983 6.960037462994309
Mg 1.8561270852881986 4.660178180013049 5.964506765250581
Mg 3.9990956897442302 6.792935338167152 11.801788429730646
Mg 2.083607948855682 8.459397071881034 10.027588772808981
Mg 4.931419280715644 4.473724542705732 6.0454895541150595
Mg 8.737507547624928 3.746298757841229 2.18632302632808
Mg 0.7637328436482523 7.336739534803284 5.003180425830639
Mg 8.091082271782636 6.682320042510708 1.587320469730337
Mg 11.41560712815671 7.363254774531944 8.222487058267976
Mg 2.5352345498560025 1.7222391137789381 6.8100021732745155
Mg 9.689360505156474 2.262210748448183 9.762780140017371
Mg 4.877483339159778 2.7922268454240435 8.539632987845078
Mg 6.991643580005563 2.8574818504721273 10.70913541396878
Mg 7.614726036702143 11.275655453746852 3.6727055593086715
Mg 5.515856325806584 10.26888437604608 5.509973821821013
Mg 2.4662322013509113 9.970012273888006 4.7787418932970835
Mg 6.328572100929605 5.636562820523633 9.736553430494869
Mg 3.8085623956474497 9.352976765660907 7.706175968477265
Mg 7.37234348372418 9.764565567411758 1.2105534228867718
Mg 5.526995648529349 8.51689425375889 10.00957482204582
Mg 5.912996245222111 2.5808951032234515 2.883776045598934
Mg 10.380373814954574 3.7467067210599585 4.96278297555122
Mg 7.421645585787008 5.070714471621149 4.507264059750395
Mg 8.500995775848237 8.092705456446046 9.045381919031753
Mg 1.4234892792868514 5.681622556491349 10.971531222649654
