50
Energy = -49.83871592 eV
Mg 3.5039024780482757 6.912904633283832 1.091038769180507
Mg 6.08652850824782 1.1175926575461064 8.130525746563649
Mg 3.4093434822120714 8.573175001250611 3.7205724050746984
Mg 10.588305895856688 9.045544687325561 3.567012796688847
Mg 5.530656747045578 11.084383236368529 3.960026392388406
Mg 9.645348953244712 4.327757520781601 10.502188104349159
Mg 5.3999083267520795 6.187141883819622 3.8485021522336558
Mg 10.087742379971838 3.2174906882209258 5.396171703212793
Mg 2.453679249622404 8.18756217577211 8.700323093993521
Mg 7.1656765509364595 2.285697939610827 5.519213275409945
Mg 9.555957172086078 11.295738322221965 8.093325430116318
Mg 9.582528972867834 7.149479020089145 11.499033995578905
Mg 6.949529902985513 8.558361209092405 11.125976122316308
Mg 5.911404293429465 4.214385195143642 8.333335166166576
Mg 2.3570470675696273 5.3961016923567175 3.5108373864792437
Mg 8.284238600141142 7.159294641662036 2.835333846516399
Mg 9.370073524951115 7.801171495746764 6.070520799102179
Mg 3.4629929088101936 3.9673535811998857 1.1033286921876542
Mg 7.19049592812892 2.5168497554479456 10.728298062333378
Mg 2.329334266065968 6.896808044474037 6.0357256524941905
Mg 8.737688376469267 2.9124116211423154 8.035904213661968
Mg 11.519758101465163 9.953921299349842 6.26046200355667
Mg 2.5092065767373977 2.341002117707956 3.4790883557840386
Mg 2.7986406386042226 5.1809683903913015 8.54001342685277
Mg 6.62533250597658 8.601957233729681 5.089238910582235
Mg 10.643593757772988 8.24838175630552 8.79225633372794
Mg 8.763130005726852 11.068400261529701 5.220860166963917
Mg 9.571876407665336 10.06427222565374 10.87051496735745
Mg 1.5865063301194526 3.495622760293785 6.164102975123987
Mg 8.093630497235667 10.293646214576047 2.4442884177939703
Mg 5.223882944639835 7.012863040107049 7.225033099112021
Mg 7.613714584965536 5.36770302883143 5.88097522377082
Mg 10.652428857966598 5.849338128201634 4.228845750775919
Mg 7.1707969166551715 11.578104972230427 9.967976882154026
Mg 8.253827068144952 4.1358923313212355 3.1045628757557058
Mg 3.859986362909785 9.786660456941409 6.401953612420176
Mg 6.986650606785322 5.405214139594597 11.772565151357071
Mg 5.759334283898183 8.65941452239466 1.7698891230279166
Mg 4.691737169317798 6.789989296766671 10.280806545887604
Mg 6.206845163214167 5.428188448501313 1.0433549488647695
Mg 5.397907218346033 3.049995901348652 3.1824504531012487
Mg 4.216471904556915 1.286302639563147 5.737950273887499
Mg 4.759769644199543 9.85912655884297 9.300735493143685
Mg 6.302662347933742 11.647096480319114 6.947259560198718
Mg 4.434724252088566 3.7751985090890123 10.940732464600522
Mg 3.3665545792467633 2.2673530789308467 8.406438757051093
Mg 4.391462554383816 4.3108001005366985 5.848027923369932
Mg 7.44938436102829 9.086668954286468 8.033128809079603
Mg 10.580542680271991 5.330182111673557 7.4431177759305225
Mg 7.967258092695518 6.318530038418838 8.816175912715261
