54
Energy = -51.69138866 eV
Mg 10.372286547089852 3.9909900569592676 3.773483715195499
Mg 12.635023045234748 7.442599674635933 8.045252568876794
Mg 11.486805755828902 5.525914148218491 6.015420724884604
Mg 10.883603977366171 6.831402031371884 3.1849544572553277
Mg 12.188507455129953 8.475730473311208 5.3664448254597685
Mg 8.262682409987159 5.4807124510277285 2.2233947017420426
Mg 9.069367314790648 8.357176581130702 1.3940266351387494
Mg 7.810735097041665 2.725797667764711 4.423161086987057
Mg 9.68246776228524 3.2084334301602135 6.949023772762211
Mg 11.660827537606393 4.629586472430227 8.830788856587311
Mg 11.009926764186467 10.099853076644735 3.0689545762966737
Mg 8.417457682255543 6.040095419681332 5.3044893716536805
Mg 7.402225239062659 1.2640585499425157 7.23847197871128
Mg 5.735672001012154 4.974561160717951 3.8855972974112465
Mg 10.604112254217847 7.421800353760305 10.230679285264502
Mg 9.593660663017504 8.127951887285338 7.29654033867495
Mg 10.732927892110524 10.822713198037176 6.4514316573765
Mg 6.345036472193407 7.705222553570519 2.9349917455880097
Mg 8.663973379208567 8.95050518160368 4.554806460638017
Mg 7.230348841497775 10.54235615011597 2.2910196819701407
Mg 9.894214657483797 4.4762189744142535 11.121408501039255
Mg 7.61047601354605 3.009024721744758 9.736107467157483
Mg 9.954006583369127 10.38706215976944 9.327956601906958
Mg 6.667177267996028 4.22276863948564 6.882457364877164
Mg 8.736437194365102 5.616303484154975 8.483296046970047
Mg 4.811919901972165 6.573537210386247 6.432423991969816
Mg 8.897062144940964 12.051820537618388 4.328276895731412
Mg 2.9280904195554642 4.537179490407607 4.826333020947621
Mg 5.018166673140805 2.2147804876049735 5.268138374791985
Mg 3.4748440279707937 7.423802853973061 3.861078507801962
Mg 9.285980779954471 6.853873385084111 12.990923881346294
Mg 2.259021384320111 2.0338424378924236 6.4644352395029365
Mg 4.729185613651976 2.409631255567574 8.428882453382005
Mg 6.950124985481953 5.117695748124993 12.073849121918924
Mg 7.564007550686448 7.731478789499001 10.417978268824164
Mg 4.3235062283421675 10.128539588210883 2.675223110833683
Mg 5.64290807133093 5.526874934711678 9.316992538517015
Mg 6.035144652421722 12.49089026821712 4.80340676595611
Mg 7.804872795294324 10.838887514403801 6.9517927523412935
Mg 5.59577145575694 9.422783345376933 5.322179667134757
Mg 5.908268712264619 8.6130360609326 8.138299176280904
Mg 1.6412923978425922 6.99469746893112 6.302542743697813
Mg 9.086254558604768 9.746143402315194 12.146536225424027
Mg 5.084318641703309 2.924194433037848 11.386581684716845
Mg 7.013080638754211 10.796600400924175 9.890677274660828
Mg 2.515344693508585 4.664574980421247 7.92852164351815
Mg 4.991374698144905 11.628166632320289 7.606801540682152
Mg 4.678962055247948 7.367834181798558 11.697145369995724
Mg 3.22721605281459 11.641064552940705 4.970866924019886
Mg 3.182632258950782 7.367714846228446 9.053975683040889
Mg 5.995015284935354 9.882570590083855 12.575431424046178
Mg 3.033730265448913 5.001831919012122 10.934491214360666
Mg 2.8327876619059107 9.607828697743901 7.1133832732275355
Mg 4.022315788522005 10.117955155754712 10.03748030851966
