50
Energy = -49.88522314 eV
Mg 10.57642296628909 3.578785680564511 4.88314850821324
Mg 11.011919401310932 3.7270919697920757 7.771053460641222
Mg 9.81233996051075 6.179471358604072 3.708341959748547
Mg 11.313300760355984 6.365751885510603 6.2081446130867945
Mg 7.861666028800027 3.546666496388821 3.598697974779081
Mg 10.740153420795986 9.085890332275508 4.746897740126918
Mg 8.399294156624375 8.507156936688645 2.667663373622224
Mg 7.995781794983171 5.516746113898203 1.3639005226736574
Mg 12.090117316847564 9.023646689857483 7.531391280575445
Mg 8.067288514425954 10.813528489414697 4.666965130634311
Mg 5.82282980858265 7.31290563794818 1.1511156738055814
Mg 12.483762902235442 6.2651890229519624 9.048802036249056
Mg 5.747622206733502 9.927398866180955 2.747511228684235
Mg 8.785470998173954 2.2761692005946976 9.202921042510747
Mg 9.987188211944298 4.822838013362191 10.314602478845572
Mg 8.283748739846716 2.039428352122042 6.250217575599613
Mg 8.268399449175433 5.0920529999765956 6.799267431844699
Mg 5.280672781117708 12.265803880753632 4.580328399586436
Mg 9.650234788211911 7.501450878383115 8.694977101455798
Mg 9.437902702281365 10.569389886142606 7.412487649998849
Mg 5.450123100530293 3.374181304717142 5.362167998476358
Mg 6.540379446396576 6.4191684017804205 4.335806148035063
Mg 8.287941559990033 7.9940969933625565 6.051814475840502
Mg 5.036506559221376 4.6286478412370675 2.544173153382282
Mg 10.591543489229865 10.089428048346013 10.16901949721374
Mg 13.340133527115666 8.84661690511815 10.31877263952326
Mg 7.1183866459254785 6.034127634822704 9.519772194343409
Mg 6.946664832355034 3.5913628458694964 11.305198048364941
Mg 6.631810191716031 11.736685772315285 7.188981134401533
Mg 2.974837404196092 10.51003656981115 3.9568423528513814
Mg 6.109858795257134 3.066247548153953 8.269590583330324
Mg 8.554389700885999 5.7880663043128076 12.745563729777674
Mg 5.401784957450105 9.093063790150389 5.717942440414315
Mg 6.752078479151875 8.838766451319607 8.491600310419077
Mg 7.717639640389371 11.225775261009598 10.041712548681376
Mg 11.044333407555051 7.375674725293644 11.61261885119306
Mg 3.8498039231025585 7.56391319688591 3.3956645687481646
Mg 3.0833158515949353 5.289012789763182 5.121838742532979
Mg 3.275732684985257 3.4394700702667893 7.43393589616819
Mg 5.273811581845949 6.2791868484087985 7.152813217182191
Mg 4.281464029364521 4.721325439150421 9.95646118206451
Mg 4.724320962428117 11.576010314242849 9.507252089134091
Mg 3.409309605467797 11.347978034135664 6.793593572396888
Mg 5.665779969276936 6.429932171744092 12.245685338129784
Mg 8.165916394951177 8.445463875392985 11.3543952049687
Mg 2.3280276102569086 8.251046591986748 5.925487883574971
Mg 3.6455901347601474 8.853400119028212 8.555456828300956
Mg 2.2087211438220304 6.156815209766951 8.133896259097085
Mg 3.1108016189332814 7.242789238520129 10.942148828010765
Mg 5.249405030485001 9.36522757145751 11.385227388986646
