6
Energy = -2.05607389 eV
Mg 9.758582835133945 12.80494334266963 8.93808030898879
Mg 8.474393724995323 9.94827069749494 8.159213679511389
Mg 9.01241424795138 7.646793520043146 6.220971654580369
Mg 8.828128397418913 4.490655335080328 10.753209389731692
Mg 7.935713820702841 7.058805348701208 9.009021888565043
Mg 6.146964865188632 8.403057992855187 6.924550708597284
