6
Energy = -1.50189912 eV
Mg 10.901900417475712 6.213082799961197 7.536789387326445
Mg 8.97588984500244 8.530697560621977 7.9048218842030264
Mg 8.522808224446626 11.051106929799102 6.271965005231919
Mg 7.181392944108756 10.935351494274128 8.997775696451633
Mg 7.2374911728284745 8.323490742621507 10.381159184869425
Mg 8.786004141385261 5.896987612150535 9.69579468359698
