6
Energy = -1.13695621 eV
Mg 8.69093137952777 4.202984709151291 11.988932130184594
Mg 8.81125606205118 6.175618729029434 9.603053450546009
Mg 9.81810753906157 7.879525607147967 7.4051300594746055
Mg 7.273919030426748 8.625939144202485 8.877118777689857
Mg 8.509289181329434 10.481494304946262 6.896458034624038
Mg 7.677566141930547 13.379551700955677 6.1960779468785
