6
Energy = -1.47879032 eV
Mg 10.774270752488505 5.286941370398616 9.095763946443284
Mg 9.612841138960313 8.003270716480444 9.640171809069185
Mg 9.18752909904183 10.963959250820643 9.01252742260589
Mg 8.403924914073748 6.126397234545732 7.390155674068522
Mg 6.4158538497001745 11.663555986547554 7.977431275958286
Mg 7.0633614850329245 8.742157485817026 8.235810957833834
