7
Energy = -3.15339113 eV
Mg 7.2291168915146695 6.9702909182509165 3.348887298098856
Mg 6.395354194809642 8.352515977314981 6.067687492008049
Mg 5.385758178214087 5.362098070189206 5.182264991724003
Mg 8.3612847580798 6.257724992895164 6.202050678818689
Mg 3.9037626801425542 4.129228204317362 7.560568665761716
Mg 5.996430178001414 6.170792688661586 8.49641518120561
Mg 8.228293119237424 8.257349148370114 8.64212569238241
