7
Energy = -2.651328 eV
Mg 11.67572456732384 4.8973205590262 8.956208166956296
Mg 9.41650413933523 7.265142563129126 8.59126289676166
Mg 8.538440558234093 9.41366439587836 6.243608340669642
Mg 6.895619065907061 5.510266415010524 9.387501109651742
Mg 8.784162802990704 10.487261630783676 8.985844483190727
Mg 6.489844959161773 8.507868331902033 8.367120349120164
Mg 6.323524809533456 11.487407968479506 7.217405672960179
