7
Energy = -2.90287239 eV
Mg 9.015715582448376 12.178234001480714 8.748468932278842
Mg 10.206374592807125 9.80804461763894 10.747711162853554
Mg 8.197099267519608 9.26697946774139 8.35007119767963
Mg 6.713086431269655 8.193962425681475 5.91575902124108
Mg 9.533957400078974 6.750526415866416 10.32417174198067
Mg 6.780639620431291 6.567736569458102 8.690378529481064
Mg 9.280259936416314 6.681260129941802 7.140989949564357
