7
Energy = -2.9464624 eV
Mg 9.270789050587677 9.711040388365548 8.761160847060118
Mg 8.95231977421097 6.614677991543148 10.312719701828545
Mg 6.30077781451135 8.753510206159868 9.033235649646139
Mg 7.0171051721827595 11.228783369175417 7.491350893563089
Mg 10.333514135199733 6.5651334344085015 7.570604678894969
Mg 7.4619486909828545 5.521848327994508 7.861612665693552
Mg 7.743393986784428 8.5927638863153 6.25704839485976
