7
Energy = -3.20453321 eV
Mg 10.027381780805378 12.75606382358493 10.410322564266712
Mg 8.179797683790465 10.734954625657723 9.027156151873967
Mg 9.08676742268138 7.412540376585653 9.984046280199607
Mg 9.333307369863835 9.647889559689116 12.059375722455377
Mg 11.158164546028754 9.847838414939867 9.513484475449088
Mg 11.67447662037066 7.668873808692096 11.660553604763274
Mg 10.47351971821309 12.053132045737298 7.433599358079336
