7
Energy = -2.96650984 eV
Mg 9.729638971491259 10.510117373227787 8.545892668745601
Mg 7.711125077707713 8.080869648936481 8.165315415797469
Mg 5.227828661716353 8.08346361731849 9.935779121869588
Mg 10.554179252850549 7.9234387435595925 9.5925385272161
Mg 10.255438612147602 8.190568305120138 6.443257050209719
Mg 7.480453323186067 6.896819361428243 5.365813985607171
Mg 8.048756583927233 9.322143433435567 10.958823713580175
