7
Energy = -2.68617173 eV
Mg 7.2264735091671035 8.13927378663742 6.386668671410191
Mg 8.696830819483903 8.853243121195256 11.415107420136458
Mg 9.450219173874945 7.900389588661494 8.541239984946028
Mg 10.444860883600079 10.586888090372303 9.791425302311447
Mg 11.618947337219176 7.872070351626727 10.829547488085222
Mg 7.322734771793185 10.233846634136578 8.70616073960888
Mg 5.044142569899088 8.150675670473241 4.025756338484514
