7
Energy = -1.69281773 eV
Mg 9.907119627282372 9.128256708836155 6.7657898275988675
Mg 11.032068832780412 8.439815931980544 9.552544957095016
Mg 9.626459577601036 6.3972306168208535 7.660484059231192
Mg 8.45275389436646 10.173038055225856 9.529982815361729
Mg 8.206874932179792 7.4352514672306755 10.395790587447145
Mg 7.0587028329505594 8.137612837811723 7.60859910384248
Mg 4.211463820242457 8.838093208096653 6.727331901190258
