7
Energy = -2.55344921 eV
Mg 10.027164930449207 8.282220360683109 7.637298430888973
Mg 8.49365701693802 5.646492410743703 8.616775685378384
Mg 9.099347468017482 9.242415442601073 4.888595853441868
Mg 7.105044116865591 7.8132789887063145 6.709868110195429
Mg 7.532741837005173 6.093319125858231 11.421878734504578
Mg 8.106369898767156 10.775054668388593 7.240296685348174
Mg 7.717333261595947 8.44571388443967 9.646901187049016
