7
Energy = -3.11027026 eV
Mg 5.411023385437993 7.980863107858116 5.400860674606557
Mg 7.038910549486311 10.15016067462308 6.885370746536556
Mg 8.160643492758451 6.940332896514124 6.286103910820286
Mg 6.142212805353138 5.082379985694278 4.588695498354302
Mg 7.653575758527444 8.083894900046952 9.103190740677485
Mg 5.978145955866604 5.481456329201164 7.602169439332398
Mg 8.680913598384413 5.166961579772757 8.966437507156273
