7
Energy = -2.40683501 eV
Mg 9.632906963931465 7.3543855039574435 9.198989879932345
Mg 10.644360013892229 10.103998560664026 8.225352443279146
Mg 8.56284799998259 7.0272507090951875 6.323268002285075
Mg 8.266183851815256 10.05238003507957 10.008920238243606
Mg 11.449662547502491 7.635019501247726 6.755741407141185
Mg 6.59428786477539 7.592650213057458 8.481545059808367
Mg 5.2489498217636985 9.92877999206731 9.84846582371512
