7
Energy = -2.25439691 eV
Mg 9.031202600297435 7.539717794764935 5.795491511134163
Mg 7.057601154895482 9.668098996934464 6.247084751465365
Mg 10.342962135654432 6.245813768569299 8.084990655270431
Mg 8.430199854826602 8.43305164602316 8.530427447669295
Mg 9.705981044844497 7.116773822506834 10.82061117962455
Mg 6.482020318340992 10.58755187434341 8.976433360422561
Mg 7.824492234656108 9.330139881586545 11.26486326857467
