7
Energy = -2.72676621 eV
Mg 9.64123068227475 9.234301894960796 9.924839118019626
Mg 11.195578959776572 8.49176709873186 6.724982211449196
Mg 8.873240902679843 6.790222231108858 8.055163536135284
Mg 8.159768952761528 9.464333918286831 7.133924934354951
Mg 8.982427793792107 7.2949295784413 4.821742993273405
Mg 6.627415376790229 8.388173511064364 9.747076177539613
Mg 3.9341592241308674 6.742463794081218 10.529241877826585
