8
Energy = -3.47769118 eV
Mg 8.689379628216956 5.901120201449402 4.938591254172956
Mg 9.553441724786756 7.626763856677678 7.0094779115211905
Mg 5.970694250917617 5.124078738942852 4.782062996979093
Mg 7.134806152865416 5.608467843102095 7.771592087281105
Mg 7.695852545894354 8.586016221546911 8.919707715398108
Mg 4.116060993333308 6.0746500434992265 6.697709377995245
Mg 6.529849251230072 8.103902568649147 5.931671501647458
Mg 4.973469877387185 7.820996315238985 8.754754864062996
