8
Energy = -3.97513494 eV
Mg 11.035018303503588 11.282240305779922 8.054218215048646
Mg 10.137986022119255 8.414076040433201 7.555223908794017
Mg 9.689272017364711 9.881273411524594 10.52893195209693
Mg 9.729839467188855 5.718066642305388 8.949260344384507
Mg 7.8409289047826825 6.618380909254562 6.620913879051411
Mg 6.603057734415974 10.111551725272765 11.110173934903825
Mg 7.450984867624972 7.6971751127619275 9.455204473623656
Mg 7.943334731409447 10.812954265925992 8.361683107403719
