8
Energy = -3.71183998 eV
Mg 8.20867223 6.986638271076009 4.814112955726385
Mg 4.036491032528471 5.258524991452462 4.814112955726385
Mg 6.986638271076009 4.036491032528471 4.814112955726385
Mg 5.258524991452462 8.20867223 4.814112955726385
Mg 8.20867223 5.258524991452462 7.431050306802088
Mg 4.036491032528471 6.986638271076009 7.431050306802088
Mg 5.258524991452462 4.036491032528471 7.431050306802088
Mg 6.986638271076009 8.20867223 7.431050306802088
