8
Energy = -3.89311882 eV
Mg 4.4902437031217906 6.387031148016318 4.199935740779828
Mg 7.3181665413115375 8.435277109862946 4.28314365412568
Mg 7.189222576893471 5.592460673137386 5.157327726390959
Mg 5.472435660502993 7.905891783008501 6.5536834451189385
Mg 4.716506732911463 4.784750424126154 7.118160853125428
Mg 8.649565605105016 7.657042053162272 7.229056526236968
Mg 7.875898823997248 4.567095946266217 8.088900944587651
Mg 6.287960356156267 6.670450862419866 9.369791109634209
