8
Energy = -3.70739884 eV
Mg 8.327608182242127 7.264528388417592 4.352463295188329
Mg 8.590029814843668 5.813180999664931 7.220059512625395
Mg 6.047265329773201 5.423919988819692 5.235017465018083
Mg 7.5844977840880885 8.684107241812393 6.883272505383268
Mg 4.816263672015423 6.9860961414306955 7.562257842904946
Mg 5.49012698887001 8.311705925725079 4.688886480897569
Mg 6.105287222427546 4.3809553738011395 8.285001329429539
Mg 7.122074056102709 6.943918597838226 9.567521244566272
