8
Energy = -2.86969908 eV
Mg 4.9886903155194 8.562533605344557 9.223476748305846
Mg 8.966044975186122 6.931626761609171 6.563097681499381
Mg 6.256386875097459 6.363979488156627 7.659034123229504
Mg 9.654773374959005 10.243882167994546 10.529435777140892
Mg 10.745517377597253 8.97705280699442 8.066010618077383
Mg 6.687957934214282 10.501988641219114 10.657664508181607
Mg 8.18159249585646 7.777886562260698 9.537001956892041
Mg 11.580211240615336 7.980919322494573 5.2354708549787405
