8
Energy = -3.64665839 eV
Mg 9.972429782272016 8.3583869039744 6.823436057430744
Mg 8.902056530092851 5.83690736459245 5.6073380951346
Mg 8.306097148061873 7.887260575266211 9.25388702293634
Mg 6.715934873349408 5.574183999198822 7.889487624995801
Mg 6.083511192154477 5.544641108607908 4.810036171431448
Mg 6.968465447818444 8.259932825238115 6.3162016199623485
Mg 4.189872190186324 6.932985978079914 6.678116412985234
Mg 5.372033223313421 8.096754399955115 9.172913957516748
