8
Energy = -3.86386815 eV
Mg 8.465652682528793 5.558124157022045 5.5430422874764895
Mg 9.920957165104875 8.201628424282033 4.7876142005898465
Mg 3.50579318513941 4.728560924299178 8.573586458712862
Mg 7.379033291582985 8.052344451078902 6.852837269641871
Mg 5.176794506270793 5.974920479865475 6.036022144767089
Mg 6.552990695891193 5.348904905505751 8.650532521231092
Mg 4.518678271103119 7.584476120544574 8.600254250831275
Mg 7.115911153647504 7.624833244520597 3.794419854281008
