8
Energy = -3.89956 eV
Mg 5.037558758456633 8.243462685378907 3.87684918740212
Mg 7.719757801876299 6.921082135304443 4.508138981583751
Mg 6.583747602191538 8.88851433676111 6.452227401958987
Mg 4.810139347424912 6.117406802224733 5.982409241109899
Mg 9.152120599302577 7.147037660487026 7.375856851902612
Mg 4.728153958959348 3.9461841153927053 8.037521775044443
Mg 7.538171236009931 4.387729105291352 6.899993732892993
Mg 6.430350695779033 6.348583159159864 8.867002828105592
