8
Energy = -2.87542411 eV
Mg 4.551428348765488 7.5191577128510305 11.26679641572978
Mg 10.927722092035593 8.341505189816273 7.6353840545346525
Mg 13.031433012352618 10.152246612717732 6.403541238951648
Mg 7.460947498392269 8.565943680310134 10.92816255829027
Mg 10.17158653176239 11.183721367220613 6.704174239106404
Mg 8.090769871688945 9.391310849733356 8.030868891400624
Mg 8.858476810800195 6.603752707155261 9.114497064531628
Mg 5.953601052802803 7.247846564505678 8.574011100249514
