9
Energy = -4.42919105 eV
Mg 5.264405701467358 7.617028323263489 4.584550450386103
Mg 8.103932554150761 7.193733416359077 5.724856639310638
Mg 5.757206853740871 5.116052144804805 6.002579417769369
Mg 8.319225057540434 4.072430026763919 7.2368136065478605
Mg 6.676336385344266 10.074410450105804 5.61862751114461
Mg 5.951080894420353 4.833937592630041 9.074436887811448
Mg 5.797955893491556 7.8834033324541 7.687180100873352
Mg 8.51476067949371 9.377637672242606 7.909750805574527
Mg 8.39190157540401 6.641906564958674 8.90523220840367
