9
Energy = -4.23596634 eV
Mg 9.585838601240814 5.0000095888541365 10.448135231125502
Mg 7.845048263639015 7.8196334304079205 6.965221173199358
Mg 7.67566892110366 7.340159406255504 10.05113656142296
Mg 6.317509551734465 9.960731180100737 9.117319565471043
Mg 8.052843866716332 10.019684960341891 11.700707128617472
Mg 9.45246696526003 9.86036422472859 9.06372491219257
Mg 10.52971210655908 9.221329420749516 6.265211738872836
Mg 10.387746414598812 6.918401616275082 8.287961321425987
Mg 7.929625412648363 10.825387705554931 6.577945987094445
