9
Energy = -2.92478999 eV
Mg 5.70110049830041 5.711396112502946 10.804660858278888
Mg 8.040735678423335 10.690993885498342 10.78727586544042
Mg 9.881603746545034 8.600512224947902 9.4545125949388
Mg 8.421023791544929 5.814863834498233 9.479654847560798
Mg 9.419271588592627 12.178902547898833 5.669451701084938
Mg 9.434492350061227 6.905904081529249 6.912474359040604
Mg 10.67204846808467 9.581970699075242 6.56459880052893
Mg 7.680115803433852 7.858366100842661 11.592102079043542
Mg 9.83408170226622 11.644731627463926 8.619017061245955
