9
Energy = -4.14989149 eV
Mg 11.054747083035105 10.742265179742466 6.837736526348667
Mg 10.06848184197291 7.877491100067081 6.5645399049252005
Mg 7.124947928105998 7.510191395993356 7.148004023670071
Mg 8.033966203656329 10.36950556104799 6.79006594422647
Mg 6.2381840237435044 6.52570378158147 9.840382422334171
Mg 6.663965074814959 9.51977119746953 9.411121351116154
Mg 9.200629222623464 6.399675306879508 9.10896261679658
Mg 9.783902113107615 9.479656891049219 9.273897520812357
Mg 8.281890368980706 8.026453446209963 11.476003549810684
