9
Energy = -4.41570236 eV
Mg 7.857410507293988 7.536569003388558 4.801531176557876
Mg 9.313711298548773 9.247281083264898 6.792843626509886
Mg 8.851761464218093 5.661585677173507 6.9048792735098
Mg 4.857094638838824 7.506962655940175 5.133371265849709
Mg 6.298367305020824 8.489413832043807 7.455645007096433
Mg 9.50095179551148 7.39931223720117 9.165132968795689
Mg 5.88680687229927 5.336460038990604 6.977541182019357
Mg 7.608478684593809 9.604857622432995 9.796014823033644
Mg 6.740469637299966 6.28979787383027 9.699233959535936
