9
Energy = -4.85324192 eV
Mg 11.293649150796522 8.735935805119457 9.560934940137447
Mg 9.714237144075797 7.534259189179396 11.879443575658225
Mg 9.783827644861477 8.001204881764505 6.604009236340523
Mg 9.781487768241018 6.097570986688699 9.049977936708416
Mg 9.68682854056769 10.979925258025462 8.068730629014128
Mg 7.241674407534268 6.47653499023206 7.204314601555315
Mg 7.954350457455471 8.459339226360978 9.654523120433222
Mg 7.158824876277149 9.633763917122911 6.9423866783174555
Mg 7.114379707315239 11.342253860180353 9.649265978951604
