9
Energy = -4.20635884 eV
Mg 6.093334202707263 8.529947170091305 9.059144723317772
Mg 10.910376735630898 8.268524364306002 8.468817167201923
Mg 8.55773588393307 6.606185459771544 9.66282303050979
Mg 5.6953952269902475 11.588921063763454 8.940877437555546
Mg 10.181978021093704 5.507853793665264 7.228146678641318
Mg 11.492395770464285 5.582116037676518 9.879181181277739
Mg 8.544863718258025 10.391078610827462 8.565736137178108
Mg 8.23313669025187 7.834384357035149 6.825093589187702
Mg 6.281897055670972 10.16223041133935 6.41530125632575
