14
Energy = -100.91337476 eV
Mn 9.315099546831812 6.003710611751294 6.940998832913962
Mn 8.457990704949198 8.263135110955773 5.895362384757802
Mn 5.973301565144471 9.108689859750372 5.171653489873752
Mn 6.47441526295971 7.088454230449444 6.448856092533362
Mn 7.731235453271727 5.802380994932564 4.889510327194548
Mn 8.260156459839637 7.682209281327813 8.39060792295862
Mn 6.7022872681462395 9.303204685563426 7.623206732188594
Mn 8.332886003710412 3.7019937805399494 6.456976711918239
Mn 5.93812523231813 7.106712264221483 9.062363709423252
Mn 4.8165009851515475 6.5313199625402 5.101324514848183
Mn 4.4426057813720154 8.168474932991398 7.151545754798201
Mn 7.025120217423806 5.40944629016556 7.59188150725993
Mn 5.841995465977104 4.273854568794232 5.818799010697051
Mn 4.396805475308327 5.604513202309723 7.5273488145938945
