15
Energy = -109.16116181 eV
Mn 8.022310428743676 5.183577455643572 6.978103731761083
Mn 9.099435123893366 6.435743752717082 5.037795492071467
Mn 5.427844980208991 4.909902912857803 3.857492163925056
Mn 5.752298236448349 4.5174693001594095 8.19052817595399
Mn 6.707344515724997 6.937436838214333 8.372773918504395
Mn 7.971941226040099 7.859627974533637 6.449203453561
Mn 7.796167317800284 4.734668699772172 4.41691291324836
Mn 6.763878615786513 7.186040338888597 4.2059215312952105
Mn 6.367567957099392 3.357991724476421 5.908065016877126
Mn 5.440498876710127 8.192701510026193 6.378028547134231
Mn 4.281790162293597 6.544540919673701 8.089776937769992
Mn 6.036659682135637 5.922307494727666 6.095658280210201
Mn 3.927620360523518 4.885939827352424 6.1300951460506345
Mn 4.197368524672877 6.995109130327489 4.373940576114543
Mn 3.0785909903026867 7.314214638701499 6.371855509220092
