12
Energy = -84.87364903 eV
Mn 5.572944486381458 6.409841121277057 4.624802484920159
Mn 4.9305513404313075 3.202845681930688 2.866805683344961
Mn 3.7170563027839307 5.667360900308352 2.5963224747291322
Mn 5.3493127859001035 7.545734669046259 2.5076180606642904
Mn 2.9971866687261275 8.066809191222214 2.689210338615055
Mn 3.1939664763493267 6.945533801809306 4.8385603008498155
Mn 4.338305321826286 7.7745086731462205 0.5111218239840859
Mn 6.066979739562396 5.269185593544843 2.7938285587635354
Mn 4.898770603152689 8.705006020256668 4.539599854347812
Mn 6.833531684144094 6.656447144841441 0.9761220869925002
Mn 6.662932889189403 4.0656231598739945 4.8129162575104525
Mn 4.147954171996874 4.58879590627954 4.867984235087696
