12
Energy = -85.4045323 eV
Mn 5.861610524800419 4.690758962592489 4.358144054624823
Mn 7.354775345919521 7.527225943346907 0.43635132804284793
Mn 7.537832973593079 4.821460219100236 0.758432281484721
Mn 6.105168440355458 6.347922855737451 2.3703087884278813
Mn 7.733475115288554 8.473992229577805 2.9974545920562705
Mn 9.847565579800403 6.449022576308001 4.182937298007767
Mn 10.084136013454414 4.590104200362045 1.8864353726408456
Mn 9.744294525426735 3.990257289540848 4.402849176502706
Mn 8.003185068163548 4.91473252806835 6.062327073174595
Mn 7.551967163107865 6.506931836978545 4.428684092875567
Mn 8.725954927532227 6.523453733556934 2.0828303945023263
Mn 7.898671052583091 4.488753719644314 3.206435714731918
