19
Energy = -141.27149369 eV
Mn 4.174585982801077 5.668170275074999 4.810513751973171
Mn 5.678731741135811 2.3769459280939875 3.550191077439903
Mn 4.103851678034605 4.123397382891706 2.835852961259985
Mn 5.702916551036994 0.051878834454291325 4.412473082303708
Mn 1.2249702055978393 0.5346980028946315 3.775853803364487
Mn 3.1976985901558113 5.668170275074999 4.1461034520830635
Mn 1.7015094759870222 6.574875318397709 6.378828934364364
Mn 3.1932338470610784 1.6751557199143503 7.405559254070241
Mn 3.55235152823537 1.4603864642633655 2.8644326272241454
Mn 3.555894435184385 3.3507314129801493 4.825137047266484
Mn 6.029238156455037 4.104802826078594 5.252119768024069
Mn 1.6061598008043125 3.1617039479628715 3.371327938262541
Mn 3.4433645751997144 0.964620198367759 5.101472498123803
Mn 4.369199629227041 6.173347562057067 6.514693708873474
Mn 1.396871332031812 2.164298007840024 5.5864926504335735
Mn 1.9104866996061907 4.683720909737211 5.493510216794402
Mn 1.6500782273863797 3.551268163135172 7.633044274928827
Mn 5.400764248108669 1.9311936054271124 6.131132345113172
Mn 4.122241188526886 4.135589994689974 7.019013974091519
