11
Energy = -77.44911799 eV
Mn 8.913975560129687 8.222930898261673 5.135966719923257
Mn 7.287463964552661 6.557560607821871 5.658376484384762
Mn 5.006374770793263 7.5925098949213385 6.148354884797244
Mn 7.159277908071429 8.88623206138952 6.5457450363351235
Mn 5.625071910865866 5.124760889494411 6.8983658883676595
Mn 9.203042544253444 7.329182589578485 7.359433747350053
Mn 8.247888178246136 4.953437058903708 7.378641685263844
Mn 5.4478838638228 8.97719999875343 8.364422506593149
Mn 6.688932754961142 6.940703553486719 8.063772425408287
Mn 8.060853570539475 9.018368493092144 8.905089889700369
Mn 8.411918512147826 6.449797492680669 9.594514270260552
