14
Energy = -100.08156344 eV
Mn 6.161410100636822 2.692997673384137 4.6604841756648545
Mn 7.689922538654777 4.810198179644752 8.100925740786714
Mn 7.983208027436112 6.279958140350942 5.89550920356462
Mn 6.468582155264343 7.899639753121603 4.475734570161412
Mn 5.015226456164802 4.636418142280274 7.96235091194007
Mn 3.5477513703230255 6.769833678169385 7.264580116372374
Mn 5.451954258937938 6.212838415965074 5.993110118865839
Mn 6.793685199163972 2.2914456975511035 7.452151294966436
Mn 6.557728908110942 4.163523506526932 6.127623953139784
Mn 3.992813681695643 7.052036918741743 4.466838428714543
Mn 6.326112703702312 5.3178787031534265 3.896680224011332
Mn 6.1727382413476 7.017294575951796 8.026315671089769
Mn 4.97390912179536 8.667239921590063 6.385018480854031
Mn 8.669086319366237 3.650907845393658 5.562495255810456
