14
Energy = -99.93607087 eV
Mn 6.041249850202414 6.6478647076340645 8.377549530997948
Mn 8.51675599774584 7.039118662732629 8.92394172006
Mn 5.08876725487501 4.459142394425313 8.624908932926736
Mn 7.634197475024327 4.622110789990386 8.318863112722054
Mn 3.734179705417 6.060059794494824 7.127381798473362
Mn 5.7898932366668125 4.779537841998115 6.437911935317396
Mn 7.771386182165796 6.3347324478558535 6.545621367895478
Mn 5.550956302801368 7.493952555567815 6.012980427134813
Mn 9.622604804866056 7.837953075247973 6.645217081163115
Mn 7.314794413984548 8.738095531414134 7.419438935628569
Mn 7.751484836874625 8.375629689435796 4.835493535773215
Mn 5.614231063153203 7.827884654657863 3.4713618812441434
Mn 4.406021304316517 5.694223889951295 4.582609638505473
Mn 6.974370931216336 5.900587434809724 4.487613406014458
