15
Energy = -108.34985752 eV
Mn 6.209090001096093 6.007813982978463 8.901411425124671
Mn 8.520584392637486 8.282245285121396 5.595495344237435
Mn 8.571633881218112 10.5043187495827 6.995227038165185
Mn 5.759737047733923 4.446326993429656 6.865880359999081
Mn 5.267956678717435 6.957195756113169 6.568326287904489
Mn 6.362533162933348 10.870532262041378 8.434781124340509
Mn 7.42586340320827 5.796899204059152 5.4020409668270215
Mn 9.722027083704766 6.227791022135208 6.746183717508296
Mn 7.913448531875042 8.979483933851716 8.774782334034235
Mn 10.080163206897984 8.520330332191454 7.702030080710996
Mn 6.416184541331682 9.249048113831881 6.536194676779881
Mn 8.123463370073855 4.545566160774222 7.827828409446346
Mn 8.995114883665254 6.678485335538071 9.223414717538786
Mn 5.386612935538933 8.473323746533385 8.741862441455401
Mn 7.504329993413486 7.079050950884312 7.426963086370912
