10
Energy = -69.76738107 eV
Mn 8.212107065315811 5.353837514436116 4.031116898991265
Mn 8.379393681644382 4.456693883972663 1.4007112398297552
Mn 8.783361444026724 3.1858007172461726 3.669439970424273
Mn 6.444568293351582 4.517496160777307 2.9289714776383007
Mn 7.994758787315224 6.782334056490149 2.275299266161984
Mn 9.798115917988419 6.821524274439921 4.810842803287113
Mn 10.216654617111248 5.038503692065555 2.7703510554692077
Mn 10.49169057589734 4.078056479761959 5.230128598050458
Mn 9.773295530819603 2.418452315909061 1.5923317508055808
Mn 8.390098154328735 4.8502266242944305 6.131179739807881
