16
Energy = -102.05072595 eV
Mn 4.167218822971445 2.658728928874578 9.064775832876196
Mn 5.251636550688023 1.45116671899326 4.49266513988561
Mn 5.025559228222021 3.1981978962393556 2.8094515941994014
Mn 6.6246134888269905 4.62613505385405 10.29941835809752
Mn 6.364900918845178 6.848549108990749 11.199292722745115
Mn 5.547578885266704 7.52551207598679 1.9437451304898063
Mn 5.429576155633531 6.29599688154052 6.017928656335301
Mn 4.125550781015084 8.577783908246031 6.446060860071353
Mn 4.3729937299564945 6.66318099559673 8.260104637008151
Mn 3.2188873270757346 8.744304378874231 8.727473565556648
Mn 3.12725266703473 7.063457985583479 10.29941835809752
Mn 3.6800144323537833 4.7641474925068295 10.030641435119177
Mn 5.21050121230013 4.382354702893206 7.589132868696817
Mn 5.247473896049583 3.9308028055928266 5.118412332285951
Mn 5.885842787392414 2.7335868371140926 0.510525498196785
Mn 6.75158961300173 0.5552087587231713 11.345022478342843
