15
Energy = -99.02562421 eV
Mn 6.311137922698382 5.128310810308988 9.597949591596244
Mn 6.681200604705735 4.250813334509108 7.3161624204466955
Mn 6.9841434615530975 6.65379540369554 7.943651726112522
Mn 5.226377295568624 3.1471840097189228 8.97953539655965
Mn 5.200504684196295 2.194516084913969 6.744668490103203
Mn 6.024857943942411 3.8992577727177857 4.962005823889747
Mn 7.130209586129399 5.48138929007031 3.252686867454337
Mn 4.576984048336819 3.713311660969853 4.018398009786279
Mn 5.446809589192412 5.025576282539598 2.005910164264129
Mn 3.1323769750301045 3.1253043457269527 6.0867186971761225
Mn 6.267750084560405 6.571166435983936 9.597949591596242
Mn 3.6068902994286707 6.049409094408478 3.258865244860241
Mn 2.281230952469617 5.1914489660196255 5.4150446777347865
Mn 4.460530225708635 7.389392408742139 1.2583676251375309
Mn 1.74528518091559 7.264316246439879 4.390187561858881
