13
Energy = -92.46020823 eV
Mn 8.387589095706094 5.141763762523716 7.419351023748625
Mn 8.012229564318082 5.173680655163351 4.769936572027348
Mn 7.019151877508928 7.275238318117641 8.51072423735516
Mn 7.0184986487153775 6.761472120351845 2.9251092540893895
Mn 6.797071624757593 3.4248817087089027 6.185317796982633
Mn 7.343900353107876 7.555113541531592 5.725064888983435
Mn 4.594850782200021 6.264368147701403 8.212950630152056
Mn 6.144932621743132 5.7002569614147305 6.8008618265343275
Mn 5.042400766200251 7.666299044281193 4.387565278295942
Mn 5.367803937435319 5.02703284147337 4.365714952728034
Mn 4.458436252237711 4.226043795678193 6.518927866714719
Mn 5.139434159152831 8.242522010873998 6.943815384707562
Mn 3.5157884507093002 6.3724270872311255 5.972214789183515
