15
Energy = -108.82159611 eV
Mn 9.170936130701651 7.585448766369658 10.353719603828658
Mn 10.682175980468173 8.957573294166492 8.878006104685767
Mn 6.359066411398746 10.411113078048576 9.109636757047289
Mn 9.214958105204982 5.662186754864307 6.310119530436699
Mn 11.015759041132927 6.351197831085109 8.473169076185565
Mn 5.051686008054037 8.117955793781592 9.15289631090557
Mn 8.613403921797438 9.836755276096131 7.420947442271535
Mn 6.697315030288666 8.765735865579703 11.140575613226764
Mn 10.448676005525462 8.118831338059923 6.443181261593024
Mn 8.994470726656042 7.2304212267668175 7.9354229941671655
Mn 7.382011322602485 8.391151996521465 8.908076718593485
Mn 6.693497225142066 6.630161594260214 7.355835841445506
Mn 5.983929062237831 9.08284284269438 6.89385242478563
Mn 8.720347453673199 10.14306738048794 10.182988343085263
Mn 7.998317115790295 7.935064946191505 5.638685425272546
