15
Energy = -108.54362453 eV
Mn 10.917273577182147 6.508414113816777 7.03838714255359
Mn 9.574328981839898 7.072705525709008 9.317511353362747
Mn 9.970289055949479 8.887506494293689 7.2724660099967755
Mn 9.613327462995068 7.67589760539058 5.010787030295118
Mn 8.507729576091462 6.845440325971714 7.080377467872957
Mn 7.642084466925866 8.316910697208787 10.86860287125325
Mn 7.882220737502831 8.73509453573061 8.497536049488334
Mn 7.663011857581002 9.147483529668097 5.959929454524644
Mn 6.9564713660397945 6.45416384881864 9.228531856398652
Mn 7.05426313171048 6.757064137625424 5.077367290193432
Mn 6.210255278080014 7.5813219558406395 7.196193668755003
Mn 5.507906370931247 8.72969210169244 9.21761093368855
Mn 4.779862259749184 8.475859381936338 5.795210063965411
Mn 4.326009155079864 6.531461768375374 7.958481018797968
Mn 6.393411993155044 5.222187602675448 7.186833673664035
