15
Energy = -109.10239932 eV
Mn 6.869861657898671 8.816073816271427 5.734227390338316
Mn 7.5532298690167075 9.573901981765271 8.074561119702057
Mn 5.358445580799173 8.0460968211446 7.703560605418806
Mn 5.83497486979437 9.506700590305723 9.893857346718487
Mn 4.61039583153616 11.743030004950034 9.428754308839302
Mn 6.095258169291567 11.628588657887759 11.294779158945472
Mn 5.712962724083526 13.910603807332807 9.78577709398788
Mn 5.490897038475515 12.982762681049586 7.627695266496522
Mn 3.3154467712353175 13.47082431328451 8.374701597016365
Mn 3.059738882906044 10.61151075471493 8.01948407901569
Mn 4.094444166645917 12.081076608073433 6.228359966870029
Mn 6.8972865137040005 11.432598617372575 6.170714688255018
Mn 7.124036294854957 11.849261858774824 8.915642691573195
Mn 5.405005449930466 10.38036223592903 7.683096490060546
Mn 4.435670297790944 9.705331252564504 5.74336670345656
