11
Energy = -77.37033962 eV
Mn 5.426652769602651 1.9815522440961366 8.816353933538824
Mn 4.2698334612583 5.615500302983075 6.358763700791438
Mn 7.780300834040159 7.660862857960409 7.86110936706355
Mn 6.87948913279471 5.411195176247747 7.802191867848356
Mn 6.329226772992333 6.788860341972056 6.013259688749246
Mn 6.247935290878639 4.1687644254998695 5.647569648192849
Mn 7.323504800952918 3.208639514064309 7.684386064099707
Mn 8.56175159777118 5.430534355343771 6.297450593622476
Mn 4.430171779615396 2.7797278446426934 6.646948085336489
Mn 4.987770243889221 4.382940662101432 8.194762126604175
Mn 5.2180796943104015 7.048399973974222 8.346176642237774
