14
Energy = -88.07248041 eV
Mn 5.003456269250872 5.021992341529748 5.000222423993911
Mn 6.210316644167664 5.541814130274189 11.907784632564589
Mn 2.9587643264688586 3.8794424632535787 5.715818324346069
Mn 4.921983901998479 10.106991939818736 5.805029972005604
Mn 5.030511843109306 7.610799469070246 5.094325587356769
Mn 6.82511215175438 8.608727971280986 6.607687969798517
Mn 7.134617265498793 8.706752475364254 9.156106299630428
Mn 6.07151071264989 8.05370530953973 11.33449883551041
Mn 4.061505861456562 6.878179436908228 12.30660991153254
Mn 0.8487952064789778 5.150775984233968 9.163298838401781
Mn 2.8705087399643037 9.007486033106968 5.113553317826716
Mn 3.9071605530336653 9.437573577346265 11.68376088596424
Mn 7.134617265498793 7.181106469893257 7.97396166416596
Mn 1.0814045348797752 5.349573163234495 6.646368529791851
