18
Energy = -132.03856637 eV
Mn 5.356021152283848 6.217898815025178 3.7675692261149996
Mn 4.904720921113754 4.2457529116196335 2.6835345473446126
Mn 3.900218197101233 0.3697623630883256 1.1493278101778286
Mn 5.4272514541546535 7.244872638883972 3.061690763959632
Mn 3.344401378456679 2.8546660357996063 1.3576006764493456
Mn 6.94569153288591 1.2087999626993322 4.413012632575382
Mn 4.865131120715055 2.3574675678309482 4.087272650962256
Mn 6.630123572666169 3.876065091250124 4.362794346430159
Mn 3.1905727575877814 1.065505196077598 3.216910796355973
Mn 3.156519028296265 6.217898815025178 3.3785795608739617
Mn 4.174968982307265 4.589553136846233 5.129729414694582
Mn 3.0651050191398803 2.3366667977223154 5.722720997530915
Mn 5.811281491811562 1.9340904887764856 1.8960232851949619
Mn 1.6894972057840476 4.767323610358242 5.15067590308397
Mn 2.843770950153464 5.758594804787951 3.0437849605435674
Mn 4.5235817147584525 0.1940291278724804 5.2744849913879825
Mn 2.566553652599135 3.311243168411119 3.6536750831684905
Mn 1.168315957609396 4.056900334001323 2.065805654490575
