15
Energy = -108.89034727 eV
Mn 8.658167196550407 8.091552833474491 7.442379272812266
Mn 7.983596237828729 5.8476621458138744 8.848934179906529
Mn 8.81097879646491 7.060124512529676 4.941222557881757
Mn 9.078198261700566 5.502718528533681 6.882498374808137
Mn 6.389021895884206 6.927171129424819 4.023510323494397
Mn 6.659494552235967 7.833725418490005 9.303841725010011
Mn 7.5529142363797925 4.794257669308219 4.990477954218654
Mn 6.952456071135418 4.052458932544629 7.315452524776886
Mn 5.5513756976750255 5.496182921946207 8.879951200939722
Mn 6.85205345913017 6.758689581018431 6.683337580272001
Mn 4.41932677651488 7.535109772400382 7.965850700706555
Mn 7.1927402486888505 8.920015629753763 5.360338728323779
Mn 4.7194271124496066 8.101897835704461 5.496801277418523
Mn 4.969002223382977 5.556888615357549 6.310165517319543
Mn 6.138970378697828 9.182270090885845 7.354868089459495
