11
Energy = -77.5659291 eV
Mn 7.846672979201639 7.7666999138099015 4.6649506980951125
Mn 6.402404733525058 5.88122108171674 4.84569523803887
Mn 5.756753863864554 8.212418632686825 6.201958922077616
Mn 4.2728883434623235 5.954100071036564 6.19539461086676
Mn 7.630364627474205 6.655540566033848 6.787677190423499
Mn 8.289861684723618 9.188312446839998 6.550709898868209
Mn 6.39615972417886 4.552116238735001 7.086630864877399
Mn 5.453930384446603 6.586982386053675 8.184097821775156
Mn 9.481014413665305 7.41902141689318 8.052621721041463
Mn 7.673127997021154 5.779780028339332 9.144773874071289
Mn 7.097934253615295 8.304920223034037 8.586602165043598
