10
Energy = -70.08810808 eV
Mn 7.643587740103449 5.285943297242191 4.441867685670968
Mn 7.028013554203569 6.612007225171126 9.332989782647758
Mn 8.030147613707685 4.5753577263896075 8.466493763634398
Mn 7.280385276237363 3.599967902677403 6.262866337345734
Mn 7.248548054636713 6.331308630654224 6.823476868476511
Mn 9.89421449643637 3.129405918304931 7.5059653327915665
Mn 9.258858954254407 7.096651263995322 5.51181327528271
Mn 9.61547489159783 6.37575199412732 8.14184188480075
Mn 9.122756400354412 4.917420200671684 6.3093858134489755
Mn 9.45086071252281 3.282825115126374 4.72220408158119
