12
Energy = -85.67179487 eV
Mn 4.010407288208753 4.639144748520144 6.564854121737991
Mn 5.992053566204265 5.063305503757047 5.158287112935603
Mn 4.023211639511507 5.171537671905261 3.8892783770951085
Mn 6.885169663984865 5.456136928126718 3.060073535744804
Mn 7.468176986021399 6.963705278114129 5.138881282161341
Mn 5.471882759207316 6.6732044648991184 6.55052526596119
Mn 5.125506540380054 5.903527178245125 8.723990878183066
Mn 7.539063499493719 6.474113419311198 7.597656702530835
Mn 5.210746298953418 7.212772227492363 4.180802517485907
Mn 3.279967786140921 7.101252488793515 5.777636387712661
Mn 8.315912171812347 4.767284158764169 5.446857797459627
Mn 6.4912238749644535 4.15060115949686 7.35550880868652
