15
Energy = -109.54120148 eV
Mn 9.685344890442641 6.625836966848421 8.53271865059801
Mn 9.021545399808291 5.172474351745666 6.3195834971832925
Mn 9.327386711388177 7.645011202247343 6.324514524833124
Mn 9.0829351906639 9.439068828530775 8.085655228211568
Mn 7.478930426440403 5.567400184589656 8.426059432858004
Mn 8.187800277028419 7.7892367011585355 10.135489334112956
Mn 8.247570116468623 6.9047611564641365 4.225360511079299
Mn 7.163414101303725 8.96053684856547 5.787170692898757
Mn 6.5001257313359435 9.681931816331003 9.094675978543776
Mn 7.01747138057097 6.468577876849041 6.0996744364556355
Mn 7.337314934548268 7.913886215215183 7.9469751858990465
Mn 5.165334606243078 7.190737486783134 4.995873571082218
Mn 5.019957950252369 8.264284794908226 7.343129547999233
Mn 5.7923230485263355 7.0601345504779385 9.551432938783424
Mn 5.21288631137017 5.711923485143585 7.3079611697995075
