11
Energy = -77.221803 eV
Mn 4.070423944893834 5.9760576166407855 7.924758386909936
Mn 4.09363859891725 5.937084512823459 3.5588118964110524
Mn 6.745085294615696 4.186366981336814 4.738247683898566
Mn 8.672353022928862 3.924693523502832 6.500099161791682
Mn 6.729727422310362 6.500146922073055 3.4258205604422933
Mn 5.801583332999006 7.64461257703222 7.014096584829109
Mn 5.513060597471818 6.178209062094356 5.274549277350316
Mn 4.02334392952772 4.481822350125913 5.807947143833086
Mn 8.01211437510844 6.306012241457921 5.634434917857616
Mn 3.363432948549793 7.176367188082307 5.7642950291097055
Mn 6.38796795982227 4.965165005649981 7.250199377033268
