12
Energy = -85.95625676 eV
Mn 5.771681297285812 6.792322884204117 4.727780369615437
Mn 8.443767850808483 6.640556800487778 5.034636551977907
Mn 8.866146680060034 8.088186309933795 7.235038556423863
Mn 4.938631452491309 7.003836991615876 8.701082953822613
Mn 6.439126292681485 4.767509237521759 8.39971384797806
Mn 7.037456469792118 4.550043106563319 5.547300663057654
Mn 8.762852179092548 5.525636125218826 7.376789584470828
Mn 7.138121946800043 8.82325055577284 5.426988193993256
Mn 4.566385903627892 8.32201278248703 6.428662349030268
Mn 6.485269755338969 8.551194470685589 7.642437348986578
Mn 7.565134300974971 7.013018515357449 9.252297074584837
Mn 6.618279641229829 6.5552859903354745 6.8601262762424415
