14
Energy = -101.23344204 eV
Mn 6.449229515891002 6.535823752076125 4.885935550351659
Mn 9.072382014478196 6.5669275621154615 5.348972399390693
Mn 3.842377185254288 6.61377370446664 5.493040900107875
Mn 7.7865722175797405 8.796875529361815 5.385066710258293
Mn 5.083760494741762 8.859220509167097 5.372344721457751
Mn 7.783916169722215 4.157821414497817 5.221082335494535
Mn 5.21806148719967 4.18734849642347 5.397319276222233
Mn 6.490944966156382 7.803376820810252 7.052150885617062
Mn 8.774835174986796 7.7915458483417 7.746851490242558
Mn 4.290038638217551 7.880228782595011 7.79617857999542
Mn 7.661867186206122 5.731913984231081 7.000983963778598
Mn 5.102726693633764 5.640771136748347 7.283206498345034
Mn 6.601510511208926 3.747381281581635 7.649596276704185
Mn 6.573559967447737 6.418773373015799 9.099052634758241
