15
Energy = -108.5350345 eV
Mn 7.683873258013289 8.133798451082425 7.123695949403871
Mn 7.455537179573431 10.451371564876478 7.158634141167195
Mn 8.796942656634009 8.908055362217521 8.777699461466625
Mn 7.904596482780897 11.024724643653826 9.35664444118463
Mn 7.942238603885082 7.016793806593013 9.244357270699515
Mn 7.953479558896268 8.870948070077823 10.860328922909586
Mn 9.63284012955436 7.220590209124219 7.838396193475161
Mn 9.24584293562307 9.065845341976074 6.264154003363852
Mn 9.880440967785763 7.940292844217295 9.854556525463211
Mn 9.534644313236473 10.76516543651434 8.03673353871781
Mn 9.728285717219634 8.336838890584826 12.14152074121296
Mn 9.87935681906292 10.11956721752938 10.252365563886052
Mn 11.742492764390267 8.870948070077821 10.742783555195386
Mn 11.092039770466677 8.9275698219606 8.509043746104135
Mn 6.438099900516599 8.944487442430363 9.06350888811101
