15
Energy = -105.46175316 eV
Mn 4.960608688993936 8.876459028627421 8.21120137122845
Mn 4.530050759750715 7.432637399841533 4.680601462121294
Mn 3.8931595009685847 5.794204563291723 9.148410559851262
Mn 3.655849474471458 3.2765855908451655 7.79932257599351
Mn 6.7348859851733 8.06375011298464 3.9722913195429594
Mn 8.783078659189137 9.229376158135016 5.306087121305672
Mn 7.767145284974647 8.275574029395322 7.562400247998685
Mn 7.582959191306337 5.357036092683212 7.538668914028251
Mn 5.708635612571298 4.192500493372616 8.666733176579477
Mn 8.10503255997983 6.799311831203151 5.410967203198837
Mn 8.987795403242727 7.7079359582618165 3.100063032982811
Mn 6.189955417348004 9.454549618927881 5.79460642880454
Mn 5.940157085169644 6.726700248886645 8.520115767762592
Mn 4.808620650686161 5.202228985724312 6.573072188174532
Mn 5.973479903628341 7.205778784443715 6.415340473552642
