18
Energy = -132.45261274 eV
Mn 6.629931633160769 5.519667644039951 5.195469307932878
Mn 8.83068744947236 6.429480609307752 4.316604532352581
Mn 10.942510262667785 4.915157037900916 3.2442041564475126
Mn 8.166004442860078 2.103666610163275 3.2694328891136357
Mn 6.694436344245104 5.998265794844618 2.7830605787906486
Mn 8.51732904496137 3.9342769474902592 5.814282606238642
Mn 8.96018027866949 5.817614441917821 1.409234652678753
Mn 8.120873624206437 1.565051576903321 0.9439258674074033
Mn 6.677591656380727 5.499167792417097 0.10061274646004953
Mn 9.70249859914616 1.8858201429511408 5.483353335904099
Mn 6.498055333913673 3.7103379278131494 3.9057350693816866
Mn 8.489929461349924 3.7722116779894543 5.483353335904099
Mn 6.438988257447778 2.6449745998099083 5.953149901088625
Mn 7.095881042372217 3.849061789866224 1.5469953939219911
Mn 8.69112956288759 4.412572812351534 3.3192885989194174
Mn 5.837678005827393 1.706542193821031 2.2554500967375244
Mn 9.933928623207983 3.313690613334781 1.5088216956639806
Mn 4.88278704623439 4.077046270731423 2.138942947857028
