10
Energy = -70.3907134 eV
Mn 9.166780070393704 8.056220298102023 5.530411673322818
Mn 7.431644306210151 7.672142943616975 7.123234265885947
Mn 7.127940880525679 5.310850940647484 7.970112193327847
Mn 5.420855095061408 8.80337146622465 7.406963881330494
Mn 7.242628428211514 7.4998060892461815 9.33589054975976
Mn 9.405445294690963 6.457863719924096 7.670662996989176
Mn 4.993341785434207 6.673177151528658 8.713528439711306
Mn 6.460931250605197 8.029224996279742 4.93405522272358
Mn 7.873770493788382 5.812271490344794 5.470636904289401
Mn 5.53913756410976 6.3475460731163516 6.5069790416909985
