13
Energy = -92.75944844 eV
Mn 4.913262368610105 5.728263454157821 5.569312959877509
Mn 9.361474202509473 6.244664909795598 3.2753078274020693
Mn 7.276208451290723 8.074881467047094 2.900351952261542
Mn 10.770367066690005 7.994195208653006 5.914611745109697
Mn 10.04137021205242 8.662494692508373 8.506497743489602
Mn 7.0982624737363915 7.597529307446681 8.742347994031181
Mn 6.425027087219458 8.23943582916675 5.766217011302862
Mn 9.286789787325485 5.7410456121873406 5.822660349776799
Mn 8.673265190928433 7.535436544324874 7.09317023404198
Mn 7.064537488578282 6.023181695605874 4.278858472963504
Mn 8.5555919049967 7.8506607162602 4.821548416696255
Mn 8.796305098073985 9.808978953759908 6.33586241243339
Mn 6.946640314744321 6.174412168542434 6.618668572450975
