16
Energy = -116.58462732 eV
Mn 4.635951225863836 7.588773070666769 4.089487167551638
Mn 5.3935600514347986 3.688367953317796 6.358163207014814
Mn 3.2638843438192797 6.858600288766812 8.31027869332909
Mn 9.019118651892887 7.162392761547814 6.886972483020913
Mn 5.262357222858936 8.383946522501251 8.861036593323568
Mn 4.864235667284881 4.42793753506718 3.838275206012636
Mn 6.8950126273851025 6.15657848590058 3.2856361589088174
Mn 7.134006514286808 7.776499492249429 5.201003455260701
Mn 7.348684286415063 3.8971805390479375 4.659868333566338
Mn 6.690765100526871 7.319752014878061 7.520067396642979
Mn 3.4559570762480543 5.65614916111444 6.041056790180088
Mn 7.432793970585746 5.282716370116542 6.603643242113405
Mn 4.702185998566001 7.831411879005297 6.433493967911739
Mn 5.677236629670093 5.876273123186236 5.345752139153978
Mn 8.861864320028264 5.84532157159226 4.673144247537986
Mn 5.339608679129768 5.621366846650398 8.14756868268939
