15
Energy = -107.29280199 eV
Mn 9.424438933250109 10.843460972250568 8.357453252178237
Mn 9.589743994416542 8.494124622906929 9.230096025186285
Mn 8.071445772252897 6.960151114657432 5.338076456703521
Mn 8.934855739247338 8.91704700252765 6.7064767737444475
Mn 7.766939183493802 4.6334213857005775 6.136825855562206
Mn 7.501317356278099 6.983542338700394 9.908355566816194
Mn 9.034693565863313 6.383969774990255 7.72865787339386
Mn 7.047158562708346 10.850469563667447 7.423076867411142
Mn 7.601135819841703 10.144006156653608 10.070161058660203
Mn 7.212416270605706 4.738679142252264 8.64256604505482
Mn 5.488647440744426 4.2070810589048255 6.908129132124978
Mn 6.626343764765494 6.651428628044925 7.43607843377615
Mn 6.313593240318548 8.677011573655756 5.985943093773063
Mn 7.372929348553802 8.717019854544699 8.302287861788287
Mn 5.683973288837604 6.143653804046785 5.364418785062136
