13
Energy = -93.17559242 eV
Mn 6.984352752491663 6.856153587818618 5.204445032987663
Mn 5.426965964474572 2.264468629128344 6.611510293939289
Mn 4.841572371409493 5.124223699509594 6.46774655709761
Mn 4.993719697674334 3.8815106813646176 2.667462020967793
Mn 4.318760855135323 3.3064530472293674 4.97232300227603
Mn 6.732030729259932 3.7341746351497966 4.700777794351065
Mn 5.40537544757936 5.697333332013384 4.176189680116231
Mn 4.540564743041229 6.485458729095105 2.2490795855382912
Mn 2.807817482455925 3.404769550713945 6.5510988275097315
Mn 2.91664830130368 2.4145908870140516 3.551748576019822
Mn 4.237736106271597 7.527971388444733 4.808652834117993
Mn 3.0182148204820405 5.154862715604331 4.2350973160790515
Mn 7.0916484797762305 5.636086616030034 2.6834522317228404
