16
Energy = -117.35614017 eV
Mn 5.567709239683717 2.844509280890782 1.8485523873868528
Mn 1.4848559019014531 4.183065879699656 4.01116401661158
Mn 2.419562324895899 6.6640098646298895 5.31267460619764
Mn 5.8533176494674946 4.510732159697994 5.915558545235827
Mn 4.834961877503735 6.3602392516658055 4.089073849195336
Mn 4.906137561453498 6.811926934785021 6.367883247156664
Mn 5.335942261384158 5.664049113225757 1.7361272058094348
Mn 5.484810719974389 4.117379986521191 3.6171378364717253
Mn 3.330079522382423 4.171032488642952 2.2276035478385845
Mn 4.28280369544045 2.730624517003109 6.4155939278229805
Mn 3.4408989026873735 5.014865282240005 7.157682596035886
Mn 6.2659814940334 2.2112658752733725 4.683272850604412
Mn 7.321917206023144 5.407179576473932 3.7565396046120716
Mn 2.834102428367222 6.445978535492982 2.842748125743339
Mn 3.6654896270119823 2.395542356175467 3.867852861378277
Mn 3.4329402646452643 4.59042454307899 4.968411911387799
