13
Energy = -93.09173684 eV
Mn 7.534161387523594 5.280257983024163 3.274391224707249
Mn 4.873228721725765 4.855470361263703 3.5281681126370006
Mn 6.265615853636809 3.4732145304427813 5.261092189651586
Mn 4.167467826153455 5.044657831218985 6.145555346029599
Mn 4.5712312639883015 7.404918338897864 4.692760266685274
Mn 4.747818238217098 6.038974584950036 8.828343355208217
Mn 6.334646629516482 4.81475074758156 7.370900920407485
Mn 8.399202612718387 5.450713077418043 6.084074442628598
Mn 6.341483329739292 5.847770924887741 5.1257155962113545
Mn 5.214531176741368 7.1453934014706215 6.903150460740725
Mn 7.426037889938793 6.833749507392396 8.10939646740493
Mn 5.934523883183407 8.85707466772125 8.01207258288164
Mn 7.249031424735143 7.958790743723955 5.730396461223786
