10
Energy = -69.60631889 eV
Mn 4.751479445539545 7.418153503898281 3.82761101212601
Mn 3.2063939721882067 5.737783380941734 5.341746699294164
Mn 4.983842107555386 7.195994532759998 6.2596926525577965
Mn 7.131505305975066 7.404044518838022 5.126885413960844
Mn 4.188962381708551 5.78128214958579 7.910140868214538
Mn 6.703756046250739 5.24254197590877 6.756935992052488
Mn 4.555082861069977 3.78936318162538 6.4054752714461625
Mn 5.597287260300696 5.285613880645013 4.656938620610483
Mn 8.185298936939253 5.124727646921642 4.558959818135657
Mn 6.718274303747233 3.1282882310451745 5.174028336929274
