14
Energy = -101.17850482 eV
Mn 9.076141226594071 6.198592237917995 8.881204247458465
Mn 9.455990759301903 7.815006247227093 11.256118873952122
Mn 8.495545312693531 9.820330947353293 7.014526656827108
Mn 9.726314039453703 12.120514650941113 7.65471144549114
Mn 10.749422721717151 9.930300660098556 8.005676420618258
Mn 7.885102453118106 9.85571258578242 11.159359635855186
Mn 7.010866523432173 7.534603688649665 10.077409934420228
Mn 6.6859874621319815 9.708538197027188 8.881204247458463
Mn 7.3885970802406264 7.554694067176137 7.570285843758935
Mn 8.90298764587826 8.601289668535227 9.214901150980635
Mn 8.73849082533675 10.896530819480184 9.180632103254323
Mn 10.471732185444777 10.16599328584056 10.532937481176758
Mn 9.932080959204761 7.722182055668729 7.0375493817642445
Mn 11.187089370444056 7.832473888301612 9.239831141975348
