13
Energy = -93.29616967 eV
Mn 6.801657788902864 6.639782270670147 3.534210374180522
Mn 6.5632814743627295 4.603349539264402 7.191531792733757
Mn 4.0274246512525345 5.208839312159763 6.813534251759696
Mn 4.78589217997151 7.962876850541482 4.421710975750734
Mn 6.071744164444473 6.187957560844869 5.727055092949419
Mn 4.9662522245497245 7.666810768693967 7.119672028312161
Mn 4.512168656730049 5.246909668934194 4.235705158446874
Mn 8.456069140173039 5.888952209171359 5.893561604108154
Mn 4.877842572507565 3.1783637789060646 5.782492734437483
Mn 7.027015606681303 8.351394384128648 5.717712212049944
Mn 7.366781500314437 7.019761414601925 7.9147336996287825
Mn 5.410985192508056 5.90689320612684 8.841007028808221
Mn 7.016030039588278 4.054432480308383 4.690262225645241
