14
Energy = -99.9119472 eV
Mn 8.30608104079271 4.1033230571320765 5.3538449587347055
Mn 6.060374844626416 4.805404209922662 4.183819450044049
Mn 5.810466212598814 7.358442224649991 3.932886532166086
Mn 7.422517328779089 4.33408175646912 7.713590606119463
Mn 7.159916157955877 7.940197986055814 6.0790122743752635
Mn 4.641646341710894 8.414212345748926 5.917777374440505
Mn 6.097623327605661 5.944215239450284 6.317810464908421
Mn 8.10358598402489 6.369068232879807 4.2906550451045655
Mn 3.968221532495485 6.046506468540549 5.17780231003877
Mn 5.708817785655105 8.098892800669606 8.173906053360936
Mn 8.935665047370247 6.2016631282237284 6.668859124311027
Mn 5.3308976297867465 5.5573737694605 8.674362817200999
Mn 7.610893403482877 6.764295332341886 8.538103790973434
Mn 3.5096103152389655 6.9485799340489125 7.599874259922662
