10
Energy = -69.65913619 eV
Mn 4.841602974495771 4.404153398828403 7.713174663484785
Mn 4.689880960569509 3.107378782419527 5.62956511176897
Mn 3.0994030590458475 5.877520322988384 2.566743431993758
Mn 5.323419648929636 6.149063927107625 3.7272354781698853
Mn 3.489758658764247 5.50310998793405 5.455050066059788
Mn 6.6542117368853 3.853401948743604 4.252962713730501
Mn 4.21794282826589 4.170205503666489 3.7503338421134065
Mn 7.076157555993162 3.4560208024040473 6.818149745995929
Mn 5.963180394104343 5.5210969617946555 5.8687400036474235
Mn 5.602694401067782 4.603388399256879 1.848164417894917
