12
Energy = -85.52751633 eV
Mn 6.784896337904031 5.260503690764828 8.331053943786113
Mn 6.6918004684783154 7.337216588695248 9.379602793213458
Mn 5.51429037418349 4.727982100746049 6.253671303586006
Mn 4.643731758899367 6.588561923130301 7.937299138252138
Mn 8.37984792288708 7.248554266983667 7.635178295801478
Mn 8.209543855934951 4.903336432951644 6.318646921980605
Mn 6.806047300576909 5.81763813408249 4.453377301690086
Mn 9.002113668633472 7.045396709113525 5.115281577952401
Mn 5.9147967557988155 8.863940618804447 7.653553573741364
Mn 4.503337127746725 6.915740685121736 5.399441097597862
Mn 6.574884774732761 7.053926290135249 6.198169943088719
Mn 7.755445119211277 9.120582269933164 5.909512346737872
