11
Energy = -77.97040247 eV
Mn 6.780305790803427 7.347221844690646 6.435712748667287
Mn 9.538548933998909 10.816157046535016 6.616137227572418
Mn 7.6114848349764435 11.057553774158553 4.809060766959271
Mn 6.995341847830745 10.054761155924805 7.262363940195916
Mn 8.80718550471183 8.14871972080474 7.901488849295312
Mn 10.276085664786201 7.476820221463264 3.8459973727026555
Mn 9.935277194177946 9.912695552265783 4.1283369484362265
Mn 7.745437309052237 7.763582502374351 3.8068007870629406
Mn 10.789268263229859 8.500099334532722 6.159763605385563
Mn 8.39938580935305 8.999203390697401 5.615804787669157
Mn 9.138752785826698 6.72954049184776 5.7894684569615436
