11
Energy = -76.6242131 eV
Mn 5.1650603238580075 6.0984143580779655 7.591574757222428
Mn 5.1632671117425755 6.095999695048117 5.072621568058365
Mn 3.856181167498751 7.980191968229154 6.294289914614182
Mn 6.848635373764455 4.568130844346388 6.257649362159029
Mn 6.432271332354504 7.98357353817162 6.256830758694837
Mn 2.903718948420065 5.82306329991315 5.99943656481857
Mn 4.343847106097272 3.9563517299093474 6.29719749411739
Mn 7.600090536801671 6.3928763608684065 7.552720319070945
Mn 7.658420807806953 6.400073673387341 4.7467350444895064
Mn 9.417213895038122 5.297139424569929 6.210122099758581
Mn 9.099576249281185 7.8924679010792715 6.20910496966
