15
Energy = -108.3411812 eV
Mn 5.8386908429702045 6.686883260100957 4.522919846042603
Mn 8.884371025656561 4.941112625623091 7.256958811459154
Mn 7.184229525022998 9.020328386866996 4.87132641908669
Mn 8.30597308554283 6.600876063614812 5.2205979592370815
Mn 10.047709728520811 7.1373291326243065 6.82164356249293
Mn 6.811363094137797 4.5700929983637915 5.691451959907543
Mn 8.220451815722063 8.412339587228336 7.111804799363944
Mn 6.6821792896690635 10.421088309526601 7.074441128823743
Mn 4.875580057777864 5.8398274804433 6.817921022663486
Mn 7.050366897673869 6.268905863976867 7.481621090846884
Mn 5.687108100818209 8.110027082285347 6.7165552909987944
Mn 4.458642571864075 7.05818883129479 8.912318350672857
Mn 8.908721009896695 6.858005234116938 9.13988275133959
Mn 6.738351247507132 8.440914141757041 9.16076179542428
Mn 6.503710130846186 5.824342350263366 9.39929784371832
