14
Energy = -101.66916071 eV
Mn 5.0240708526968145 4.678353862577748 4.469313127898552
Mn 7.253249064028307 5.881161833879992 1.80666791535686
Mn 7.7774698231575 3.335669755251068 0.8221038925348713
Mn 9.24879127978401 2.203407286458299 4.578433391832631
Mn 5.033213847826567 2.0414802965537535 3.6759594908423843
Mn 8.321695990632692 4.149218667163655 2.9629171750156074
Mn 8.60362171818113 4.233014875290518 5.94030582619177
Mn 6.835750538425069 3.2154324420908034 4.742924591762475
Mn 10.243977892661968 4.629807756289704 3.9806361832282837
Mn 9.937942466807865 2.6573317460298655 2.1658118225169205
Mn 7.416367012728247 1.7422796152465665 2.7644366604382875
Mn 9.713002204354662 5.164086051639999 1.36106639610975
Mn 7.296157309261305 5.767742408997487 4.339385856184458
Mn 5.881192394124209 3.9383256130498303 2.3449822098234905
