18
Energy = -132.61854189 eV
Mn 5.857298140083231 1.0932279220824208 5.338779744864187
Mn 6.837812914360882 3.0149579916432074 6.437859803696364
Mn 7.793727377646521 5.195939017086576 5.193107330349776
Mn 5.409440405300874 5.130315986338539 7.521959359639667
Mn 6.88120097039858 3.0834148401040045 3.846054816729476
Mn 4.231130251717704 2.6139401687042323 6.789006794431284
Mn 4.570763037788199 2.6565767833767966 4.410195145656792
Mn 7.180085715468359 7.643370768587512 3.7027214538742848
Mn 5.369152358454498 4.4293140871274055 5.392393164988027
Mn 6.2091399417032855 6.908668305955572 5.8117316970458806
Mn 4.997722775492204 3.9136673361861996 2.264199108938266
Mn 3.047152512513902 4.808401043820789 6.549286931234263
Mn 6.062564587517925 5.62224344066613 3.4746775507948535
Mn 3.578265597396377 4.9049958826179525 3.8047977064986305
Mn 2.3006742854091127 3.1957758080122165 4.854028364667572
Mn 3.973551505323626 6.717006420010205 5.5811334187970685
Mn 1.7866302644565195 6.137949473930765 4.5696137160026185
Mn 4.219912035916096 7.144043550876284 3.1568493058289935
