15
Energy = -108.93860892 eV
Mn 4.85123109541971 6.2418171687916955 5.577456323475125
Mn 3.028904013595959 6.870725540117202 3.4638140991796567
Mn 3.0742191392374005 4.693343718806194 5.926407900320718
Mn 4.116063536938872 6.6074261379874155 0.9250246597163476
Mn 1.229465985604472 4.726402611039016 3.6002481840333767
Mn 5.49648522637325 4.374987025724168 0.8139962226725587
Mn 5.599972616458662 5.9635638358465135 2.975944573526497
Mn 1.5782645415929806 3.282109529661933 1.3543562932830475
Mn 4.25586846011647 3.3452917429510234 5.926407900320718
Mn 2.3558797372737574 5.650366907966787 5.924138934027379
Mn 1.618262695113606 5.9014128895628994 1.2876354111542947
Mn 2.8286595947278728 2.6830907712664365 3.591525386858819
Mn 3.483814422194624 4.464533700710796 1.9810818796528273
Mn 3.69418009208143 4.722859173930594 4.211365884067844
Mn 5.348836862714269 3.4473111922828887 3.2979107961235723
