12
Energy = -79.91680653 eV
Mn 6.380473173001262 4.582533656831652 8.753720038060285
Mn 7.049857771546489 6.356888653890207 7.1608425406979865
Mn 8.286039006884362 8.281216539824166 5.687785799960339
Mn 8.298220011981112 6.148130465114221 9.229290501413203
Mn 9.099570571453578 7.917450322971531 7.8703870429579
Mn 10.151124419770253 9.737179304657449 6.600972072000184
Mn 4.676401144493515 7.073637378469913 2.657174802079792
Mn 2.7696811071697036 5.201811882466177 2.7196887480663596
Mn 3.0018451367216317 3.8863953646325546 5.023835557597185
Mn 3.9447141962578174 6.042217605429007 4.647676357806446
Mn 5.206528601190038 4.8454521844664615 6.2999218426376205
Mn 6.135503810469241 6.912791172594891 4.9334796929634255
