19
Energy = -140.3183348 eV
Mn 1.6008298568520625 3.8414166985351605 4.9425331236857195
Mn 3.421863930506704 2.5085794407957396 4.088434595991648
Mn 1.8715200049757303 6.210115953278268 4.150668719489984
Mn 5.103815403049263 1.1838888698800498 5.176470821010408
Mn 4.1187238171679255 7.101747465016319 3.0275979733330765
Mn 6.600963854033189 3.0489993154847306 6.685625999554838
Mn 5.888588622031449 5.187471199160417 3.3085590812813335
Mn 4.980365186301302 2.8872577540151476 2.3209163086123383
Mn 3.945597253002329 7.369251264512703 5.6385679068095005
Mn 2.451643673553038 5.320775913600497 6.83748868020607
Mn 1.9075438200077315 3.1004912076602893 2.3480298394358505
Mn 3.759064651158787 5.1380571012665675 5.000201811468982
Mn 6.376386871969061 7.364673100652431 1.9767039385084655
Mn 3.4275147026076227 4.75959274425855 2.783756891691413
Mn 4.015944255845169 3.2958024160436086 6.433292672585466
Mn 5.790963686992961 5.340439583440003 6.004366930268674
Mn 6.005108372504639 7.106651670576515 4.416854112612474
Mn 5.6228641251402225 3.371045020777632 4.622877525187759
Mn 5.132940338370154 5.336108177254671 1.1233438944434848
