12
Energy = -84.72936459 eV
Mn 8.990925410414556 11.090939898900398 5.76736802647
Mn 8.807135090142681 8.586249725952866 5.451109220086551
Mn 6.533228874962227 9.751469802976063 5.648619049149501
Mn 6.738864494259108 7.078839171449253 4.884202979120229
Mn 8.614261038105582 6.5750035838977166 6.681321565977497
Mn 10.307452198316739 8.14609871687033 7.612450341755754
Mn 8.151927788363624 9.69703773487813 7.792827257618637
Mn 5.832266405858574 9.160416140537837 8.650771558788694
Mn 6.5531132042220515 7.870315976328477 7.105271533195555
Mn 6.302970984252829 5.627491160490498 7.373362736831669
Mn 8.096554324180406 7.274433315469894 8.963732423547992
Mn 4.433655117435634 7.702804010553317 6.2857776397982095
