15
Energy = -109.23905506 eV
Mn 4.573697941891523 6.631988168000121 6.519488324215521
Mn 5.562147447632707 8.65578918571907 7.383605352863378
Mn 5.010807379759083 7.184667547050445 9.309148521359935
Mn 6.641745289146204 6.414386881990541 7.636872577142953
Mn 7.08368784712935 7.699923142087544 5.6516836907004855
Mn 5.5796736263275974 10.006797062375526 9.336632318926458
Mn 7.2403180679077765 8.285213628002651 9.32157263109711
Mn 8.44429413572552 6.151469326291637 9.284960545456075
Mn 7.7427529871355265 9.859643269156441 7.549154176330896
Mn 8.546884367388868 5.3243227191073546 6.748081120100258
Mn 8.802466602696263 7.723374147276208 7.364628700139934
Mn 9.659447974210146 8.575416201913116 9.401692161899646
Mn 10.66701624483627 6.499222197682109 7.959606021069507
Mn 10.452846193510037 9.210486808429117 6.814848825591212
Mn 9.740921938232905 7.1829876048180425 5.320785829127591
