15
Energy = -106.34115606 eV
Mn 8.935099110295695 5.900301308069527 7.320329702079406
Mn 5.73936159830987 7.825574844814654 7.7380164946289085
Mn 5.724290978306521 4.597953210013875 5.695449283837073
Mn 6.917171917929827 8.862618770865044 5.5331380067777785
Mn 5.931280558269532 8.075997563632528 3.2555510335133757
Mn 5.795897486492413 6.355126949092036 9.849503971682113
Mn 7.287930623486674 6.600001614052482 6.025334074484769
Mn 8.706815222937355 7.112874296915782 4.2167545488307745
Mn 6.626172458332385 6.002617426969951 3.8893760158181023
Mn 5.000764487976029 6.961131334501151 5.567013448976436
Mn 4.183468801204615 5.654202759627862 7.890211320644586
Mn 7.929750536406517 4.875853927488737 9.433201712967403
Mn 4.367540793702998 5.84105290577458 3.3749301453124367
Mn 5.61124603650181 3.8649085425191716 9.581200283445265
Mn 6.453126618710037 5.453493753894881 7.838094207826692
