18
Energy = -120.18038081 eV
Mn 7.5752593169813744 1.853639143114267 7.336213627555433
Mn 8.495979898980533 3.8993479328398326 8.092574362619214
Mn 6.856226603114203 0.049507624020518504 5.849245534570615
Mn 6.068682242050815 3.91401567640381 7.68790256800467
Mn 7.528789151400692 6.053395853368447 7.920214229333912
Mn 3.735920168286533 4.053518107130401 6.563274381973746
Mn 3.0088519253888433 2.205358067383943 5.04425392102727
Mn 6.740378493457 8.180618146569167 6.970212044195044
Mn 2.9931555632577673 6.706903555323867 6.18064029397586
Mn 5.888139236860643 5.157150258907811 3.1967498807459993
Mn 4.946828810081892 7.068377465434074 4.707203146446825
Mn 1.9995027752524153 4.22742191525011 4.196554380179521
Mn 3.8414433109396895 3.372280385171454 2.64418996772531
Mn 5.474436863113661 4.7005459480710075 0.9696518164194159
Mn 2.4253650832344227 6.743190667959224 3.829008199714064
Mn 3.573020191917126 5.615883627346692 2.237217333733292
Mn 3.542639248006312 8.876327238239705 4.281879984716657
Mn 5.329725734211592 7.357207636204618 2.3266294650707793
