29
Energy = -214.62316323 eV
Mn 6.21349046826115 5.887076026263206 2.675886333864691
Mn 5.474504211809251 5.665100115777809 4.843877453888783
Mn 6.436647878656075 6.9100120955600906 6.732932382472713
Mn 4.058315532577661 7.503087152790203 5.608302252171233
Mn 5.744044102057674 9.378859342200464 5.929261248648171
Mn 4.359840641268689 5.570400194068839 7.19671092796695
Mn 5.8554414590498665 3.853114703426939 8.559652768054512
Mn 7.8974971085633605 5.944417939390833 4.680850267533486
Mn 7.970249879934518 9.804109704454994 4.293619058651665
Mn 4.44703933420813 8.032207955757663 8.037508619452185
Mn 3.2562331226823558 4.728682592819967 5.214806813491539
Mn 7.668149127966132 4.8375824487207915 6.943121867498014
Mn 8.17180804620826 7.451624674964631 2.6983436070972937
Mn 6.401379303832637 7.825213406620906 4.378152208173462
Mn 2.3217912846232407 6.436432305900352 7.5871247686852
Mn 3.584803926046474 3.0187700941603293 7.315905270645446
Mn 10.178202887773857 9.968087020735789 5.612553204976555
Mn 8.273265865701172 4.754055162065905 2.4314778269061494
Mn 7.967753200388126 10.356465480529266 6.558516127621559
Mn 5.946674583673376 6.2622044179424625 9.057020490692187
Mn 8.499818346499271 7.926183522164821 6.165020704976511
Mn 6.853934307249197 8.74799942892125 8.176807757585504
Mn 3.6295334572421507 4.615377823988817 9.234118389311105
Mn 5.738647863367524 1.6876100131291887 7.386430936497019
Mn 4.605983300430616 2.282588095067868 4.999815352911357
Mn 10.027805245730113 5.479561656595722 3.9733716964619505
Mn 9.787181669506099 8.047924857776367 4.087951113622371
Mn 5.61272369089202 3.820930716289687 6.20907051457832
Mn 7.152519782979472 3.710407593034993 4.433143679655104
