23
Energy = -171.32109614 eV
Mn 9.197542497238336 3.9860200439468483 4.638299942581284
Mn 8.788437051582344 4.9868264947968886 7.263838553178797
Mn 8.566357013356667 6.996967224230306 3.676948223988139
Mn 7.609238214422225 5.5306349751220285 5.149343246712758
Mn 7.706303756913524 7.468994625710597 6.518874919812766
Mn 7.1364645398377 3.168493039625072 6.273544185535585
Mn 6.986407337541652 2.673288590108318 4.0507752914502095
Mn 6.950820178667388 4.803939646207397 2.9338532553662047
Mn 5.885050258615515 6.785826231366071 8.789118470370289
Mn 6.426813001929323 5.349907447726579 7.144619924613894
Mn 6.871470127548096 8.831217069940896 4.535843468075355
Mn 5.833467829158771 1.0931531291234882 5.918237452742147
Mn 5.927108087928776 6.994707093931071 3.5397279289488015
Mn 4.116491128076014 5.82410821291509 7.455664251710029
Mn 4.892601774248962 3.4552383264013082 7.127763285938621
Mn 5.335916113699889 4.876202197391122 4.956149868601218
Mn 5.365055481978524 7.112018090435966 5.954341814948656
Mn 4.498470224814967 2.750963364655208 4.644331622668395
Mn 4.169713105843102 8.620889342411491 4.533836141382161
Mn 4.098897209580729 8.375543829452848 7.3997978316157615
Mn 2.5757229541594486 7.07250578472324 5.8968862903954
Mn 3.562262360679151 5.988440732222325 3.9706896359497392
Mn 2.855126065126683 4.419859651568488 5.805296463834713
