21
Energy = -156.25225312 eV
Mn 6.076232242779589 2.076614638742928 1.9131765509777963
Mn 5.447356455736433 1.8094995346657121 4.34361460945233
Mn 7.065982908465257 4.7343939659229015 1.7620010292094686
Mn 3.0944731703344095 5.0184133655836245 2.4965059174268793
Mn 7.397663960533231 3.2044428965104936 3.736454608450994
Mn 2.7238354680427643 7.43332602379881 3.5492654603822515
Mn 4.595808649027673 2.265465056424072 6.664751571521145
Mn 6.842288271247554 5.753126809763328 4.203818124162578
Mn 7.670722258651527 0.858630643941781 3.983412423657595
Mn 5.518939010492373 6.373731578416267 6.591593841946888
Mn 7.3079879354054675 2.4925031463379685 6.181376002804081
Mn 3.1795074290887375 7.288734120106446 6.173926868274064
Mn 5.169564600713373 7.701815794908711 4.349779724353173
Mn 5.252022839981912 4.0109918082815215 3.0516174284443305
Mn 4.226015814708643 5.611257206277747 4.592896587295251
Mn 5.595888134627122 3.9857210379881063 5.523075513498006
Mn 5.763570889559664 4.066802904725884 8.038212456511001
Mn 5.116987888218927 6.428592016676713 2.1786963570107067
Mn 3.543093687086697 4.733527891632098 6.815193294753941
Mn 1.9358285842065552 5.423044680630139 4.870343512808917
Mn 3.3196764473671125 3.193698693296279 4.519628042686692
