28
Energy = -207.32856436 eV
Mn 4.615575359184988 3.51977791319193 1.5102839358483753
Mn 6.750878801760115 7.7044368937440915 8.670293091557616
Mn 5.5214077898539715 5.979715858316028 4.3130942447655745
Mn 2.8072640068279275 6.449272997519901 8.826805486429306
Mn 7.998725680609687 8.833127665444097 5.99190249973366
Mn 9.213150529520172 3.4818250339965426 5.117292921274485
Mn 7.110263662687772 6.839160751443206 6.579169763591908
Mn 3.6911987445935313 5.247076327884764 3.143325187373295
Mn 5.7470155172431205 9.355995947292577 7.082392378603909
Mn 3.2313428718741597 7.706585470613435 4.384240112118822
Mn 5.206016301920062 3.507150644578707 4.322222437515756
Mn 4.961973095326465 6.369887587229341 7.916014201830807
Mn 5.496568218331541 4.1202651032997935 8.635434785359092
Mn 5.421520051836876 4.591726811273184 6.422860248001598
Mn 4.2025829398765735 8.557934103265534 9.049917329632539
Mn 3.120952072544439 4.202813612701362 7.350382395144069
Mn 6.988997928584417 2.67351166759432 6.065530186604226
Mn 3.5028990335389976 5.636933242821155 5.566862541408065
Mn 1.60436432249859 6.560619387027474 6.478084091491581
Mn 5.188486215022851 7.589916247304806 5.702801881937032
Mn 7.400568760085285 4.885551980561239 5.013614393108809
Mn 7.753476433709202 4.825736057462073 7.59370180472539
Mn 3.463131146651159 8.029997516049416 6.984784432575854
Mn 7.325216882370671 3.2306453558869106 3.162431979268084
Mn 8.836367320603456 5.381850415498629 3.154685286315279
Mn 9.278939936012408 6.264491186794855 5.77098466046773
Mn 6.3240397005597595 5.320697131728242 2.3065371513862205
Mn 7.49715132447817 7.229862925392775 4.121800356383702
