21
Energy = -156.69767968 eV
Mn 6.655483573283912 4.163845059962159 1.6722648058323237
Mn 8.369810761981656 4.004010966833919 3.8474599297638696
Mn 5.157858292798648 6.304351688302873 2.1245929103315113
Mn 7.752741048386036 6.2465271575813075 2.736286160455459
Mn 6.137404363558769 2.5610805611393914 3.7278636054470633
Mn 6.014916081375017 4.861001823657011 3.8211054761673817
Mn 5.999613953767987 7.490710724327508 4.246986921704405
Mn 6.894763430048961 7.918963346194719 6.787715841561679
Mn 6.765128894000185 3.749874820472793 5.937291097597318
Mn 4.406661025957766 8.074091838130311 6.105773012033727
Mn 3.9459951176788817 5.967497496638515 4.497992028118577
Mn 7.9004753375450765 5.9802374163565375 5.2861930580000855
Mn 4.093923667139568 4.07435407014165 2.7066904233146936
Mn 5.656248462578382 5.874040898369845 6.144777981237051
Mn 8.291440411736918 8.219670465260183 4.517377136247942
Mn 4.296780590068633 3.645183383951644 5.473712547609933
Mn 7.653579285207137 5.5547170359535505 7.692225527041709
Mn 5.286661056600312 4.211673964174859 7.936140071534978
Mn 5.261438299257967 6.769484801355327 8.34001891213061
Mn 3.326737261449862 5.682285649692566 6.961908368869608
Mn 3.5023711084413187 5.278620839518705 9.581673963143993
