25
Energy = -186.08550315 eV
Mn 5.983625049458502 8.52704092684219 5.790331683866995
Mn 7.413711689156235 5.316837225697986 3.395714059510141
Mn 5.3251893816511 3.968604062910023 4.069037571812488
Mn 7.989774313418348 7.015932192853795 5.544052586361435
Mn 4.979296085509987 6.215144483461346 2.469372694505971
Mn 6.242946738802385 6.485586783226525 7.320525274286607
Mn 5.7966342906895365 6.319094612547117 4.767126072140036
Mn 8.637839891378007 5.174015672941812 7.303427512122127
Mn 4.546117503885033 8.749547020453885 2.1257031709776495
Mn 6.68504977375586 8.058717496506416 3.429939740889334
Mn 3.4842574610495802 5.733475998851223 4.590635620131534
Mn 5.49932343681078 2.562388789909541 6.204811307012661
Mn 7.05943903128781 4.4758985165712595 5.72228914695776
Mn 4.643965793612713 4.753989524928354 6.319036243122782
Mn 4.13456230267527 2.081761922415643 3.71261275533557
Mn 3.189071725069648 4.285445675969578 2.724337735976291
Mn 5.54108770713979 3.845334749755983 1.8382127134323178
Mn 5.316318398569842 10.25309536810434 4.236377190361478
Mn 1.640269766245032 2.242102452230722 3.3734062580283792
Mn 6.287225150645282 4.169956219881268 8.230198898147611
Mn 7.767806790441758 9.658762192149954 4.975635918502302
Mn 2.898223368771746 3.3911919606083876 5.441556199730089
Mn 4.1450075092148975 7.981290147611619 4.411821962106073
Mn 2.5070298745895414 6.998129536161113 2.6644271046268084
Mn 4.006445273483699 7.219418235426489 6.690481685376486
