25
Energy = -186.44108414 eV
Mn 5.002981061450703 3.9671164766104683 0.959596877236421
Mn 8.73888188946576 5.3233690486533956 7.8058180276652624
Mn 3.4046800064761187 8.249060170239485 6.0217816651788
Mn 7.560573530374211 3.720464132802997 5.948827622678772
Mn 5.606895399361214 5.720045764905915 2.343096227513549
Mn 5.105117998714512 3.586254113126127 5.831998821672753
Mn 4.509258835722873 7.114083990746671 3.8690140096782453
Mn 6.263243154715223 5.501213900229128 7.299647270992578
Mn 2.244214777142139 6.102507206271109 4.634890847723703
Mn 7.6486602859125155 5.176138656819409 1.3949808632165348
Mn 3.3432064119966296 9.592154606417886 8.27633574126302
Mn 8.036616068522457 6.332910071428567 5.808919640537242
Mn 7.294739066923396 7.190899265060347 3.358697965616049
Mn 3.210526607006903 5.983018253741999 1.8667530784735042
Mn 6.223828123652095 5.368117270661711 4.6809535181528545
Mn 5.970461976178093 7.5647177954392335 5.752166123347811
Mn 5.60615324722824 9.566097510803656 6.917224847106928
Mn 4.664834098184923 7.304838483610303 8.079307375057702
Mn 3.974152883266926 4.594276238120599 7.930255609323034
Mn 8.646399924091797 5.003811000967947 3.8922437411019914
Mn 4.258348041306662 5.860128595733212 5.929916714667958
Mn 6.614120318593821 3.5590995994230576 3.264621127105873
Mn 8.043987985254953 8.761048341535568 5.505634455003954
Mn 4.061816748806179 4.3549072486489555 3.74664113841911
Mn 7.333279250463598 7.683585336667818 7.926299270402508
