28
Energy = -208.80169077 eV
Mn 2.9260379273442987 7.631702911151229 3.058115321355067
Mn 2.3149458262698084 6.528263611896093 7.547234275169606
Mn 6.457207164093365 7.586747402939079 6.750600849767247
Mn 4.573504414313246 3.7144287848670525 5.003320803049055
Mn 5.389920857034859 1.2748777639423992 5.250334897409678
Mn 7.380216188024592 1.495415462772028 6.747902127874722
Mn 3.6325178649810765 3.949050511079177 7.728713086294335
Mn 6.558328667908514 5.353182652604883 5.510358917717905
Mn 6.745650768839376 5.631674115778605 3.1820276004860473
Mn 5.881455852478961 3.416788918168501 6.938460011999686
Mn 4.333973758201981 5.654721965203422 3.7776690398207915
Mn 3.2071591513717466 2.0925596878492385 6.107709767731816
Mn 2.991409508361344 7.074185532821331 5.328919982094395
Mn 7.758603732648878 7.562921322262715 4.556330739772825
Mn 4.141343719416816 8.733694685231052 6.67609451494127
Mn 4.982354640008229 1.426929087664751 7.843332172428334
Mn 8.172463309843408 3.980363642593101 7.037691741396996
Mn 5.584263669985324 7.993801332106928 2.68606028549594
Mn 6.262464324228452 9.60112192840289 5.002013044730391
Mn 4.5412222773830235 5.866966772566317 6.684913521732049
Mn 7.141369666744679 3.1743361595441972 4.642915869765199
Mn 8.36635289360888 6.4275170247511975 7.082280567887957
Mn 2.456213289882448 4.7729791046725465 5.627971792417901
Mn 1.6873447943336268 8.889259046937156 5.3158922925945875
Mn 6.193131906254253 5.448453478071511 8.32690908935498
Mn 8.798823414047147 5.336115196457568 4.885344287493182
Mn 5.250152060594087 7.501807490091264 4.86747041305837
Mn 3.88763852390453 9.563363110290439 4.26814755425483
