26
Energy = -185.4495833 eV
Mn 8.871167645540249 6.569654191939941 6.656695319960392
Mn 9.737466199231687 5.730299428834149 4.148901132274353
Mn 8.143264478694972 6.6573732334169735 2.397256817294098
Mn 7.027014298595561 5.9206826637582255 0.04195516864550478
Mn 6.442752247200413 6.659627259388334 7.692193266638579
Mn 4.958911074531221 6.251434063576292 1.244933198202515
Mn 2.48955670344615 6.442849914666856 1.9183394896197692
Mn 5.190451632477208 4.506453669512676 7.8009422833647495
Mn 4.080274413121423 6.6499143281692925 8.09793243795298
Mn 1.0968226380531783 5.8082829228265975 3.943089372423833
Mn 2.218680089914728 6.838419080714118 6.267680283234916
Mn 3.529825259551048 4.046339548796524 1.2713456602131168
Mn 5.969017115756201 4.094256269991648 2.3452715740989065
Mn 8.13545458964738 4.444522055272971 1.6764718776501752
Mn 7.2032465319413665 5.029822542653233 4.068781984724438
Mn 9.156169994699207 3.8942492249468557 5.832623593482102
Mn 7.155329213264662 4.69170410844975 6.6121146673316336
Mn 6.660063090572509 4.829539527632722 9.538322708389698
Mn 3.6514938426161705 4.709979685716241 9.664698214934518
Mn 0.9788405288801789 4.287975193297292 6.142906961810709
Mn 2.8861205936814547 4.82253748560448 4.7788006838859705
Mn 4.16696262773354 5.307271182937203 3.1167048797535153
Mn 5.225127834685961 2.566948216545033 9.017894381941002
Mn 2.6710055043494236 2.9013988878430266 8.078221162849545
Mn 5.136722972636932 5.673864179992379 5.383966742696604
Mn 3.06726698569496 4.787173745128442 7.109286769500645
