25
Energy = -186.2380951 eV
Mn 7.773173008233385 4.920176590451849 4.69999457267053
Mn 10.10980901414039 5.021427898846173 7.284426186920689
Mn 8.961542456643052 2.6747599135028057 6.776340019484439
Mn 11.75331457871253 2.837675065009685 5.796054431298017
Mn 9.190311626701389 8.59232741159407 6.735716222755781
Mn 11.17302339897075 7.883835580121854 4.476741094377473
Mn 10.221686541785687 5.702531580622034 3.3012362508704736
Mn 9.80924869981589 4.084936526782319 5.242065511446288
Mn 13.74077599314015 4.254076315644922 4.1830132669981515
Mn 9.756616362077393 7.0064334897462865 8.759892511376174
Mn 11.948337574395362 5.505885220882565 5.294868496150857
Mn 11.912536609931733 8.672197402983342 8.353266321713427
Mn 12.305862392741822 5.476485410741228 7.8902933279274485
Mn 13.25884382826306 7.386789110671848 5.904262110679137
Mn 11.08874192271641 7.298133934311716 6.871080874692894
Mn 11.494099677190112 3.787551858904349 3.6133200552017772
Mn 12.593873658370063 6.384656794187127 3.103727297948894
Mn 9.50848487249173 6.445485581900461 5.299856027161826
Mn 8.34639012289043 5.198990464435182 1.8635976747145058
Mn 12.516177729483596 4.6463572663466435 1.4498208969251152
Mn 10.371358471780855 3.8629960926693334 1.2998140908726004
Mn 9.188213730988878 2.845027546619021 3.42751415664263
Mn 7.943611559551297 6.2932056794187226 6.891985311155132
Mn 10.670962828915956 6.458163067242416 1.1860424176834838
Mn 12.16148680011154 2.126625185232768 2.348324463723011
