24
Energy = -179.15888728 eV
Mn 2.6176973521833675 2.5235555276820483 4.371980488590933
Mn 5.003175119344731 3.0223112981456426 4.9380587657754935
Mn 2.7666344644348317 4.996763228805125 3.3503016748652503
Mn 6.894155563990547 3.192300472175634 3.5204984001368236
Mn 3.8144332142579893 6.994509902544894 4.842553333339644
Mn 5.381227028252457 5.247981030044769 6.168006617170769
Mn 1.32024604338824 6.212663821348056 5.526433712032498
Mn 5.280286827419998 5.101426767647799 3.7033950370340767
Mn 3.1970666534578216 4.558497704543639 5.45485209010436
Mn 4.978373358829301 1.2849591029229932 3.5382376539746967
Mn 1.0990710390787515 6.338554670960476 2.675765284000721
Mn 4.144690227995199 3.069999464072891 7.163920844509465
Mn 0.6032752943410341 4.094686530335064 4.253581264160199
Mn 4.1117173275738494 6.457494387987691 2.061379782485582
Mn 6.791791528045354 3.2145330981014193 6.2909542961672456
Mn 6.341992712722271 7.404908073433052 5.987043447994332
Mn 4.342472479582087 3.4037523579395272 2.3792850443039795
Mn 1.4260485791016624 3.874711651443305 6.781594705974845
Mn 3.2767054898130796 5.867749835702174 7.320006078454664
Mn 1.6465628225028752 3.5478890392966353 1.9313467958995982
Mn 5.8473919911482835 7.489351865290739 3.583146082353848
Mn 7.5184461234979345 5.343623443828415 4.814975931647356
Mn 7.008560323254872 5.758363276728415 2.2602651750142813
Mn 8.178909349258578 7.641920669132169 3.957509087558335
