21
Energy = -156.25714237 eV
Mn 6.295316133772129 1.9923691968909472 4.117601302792655
Mn 6.902133873207104 5.0270814258633925 4.017655075527043
Mn 4.392411285319272 3.739143866815886 3.695970720114803
Mn 6.062447596113995 1.424640286555636 6.642254016950878
Mn 3.778503980897882 2.0277803825693903 5.415175254833131
Mn 7.912434454823201 3.22830457561165 6.209456845496702
Mn 4.873004493408834 5.690019247946918 2.3412354017531527
Mn 5.680751082125907 3.5985592869439724 5.702011089532606
Mn 6.624025954554354 7.35598805910578 2.911429197476927
Mn 2.706761558673931 5.915333616056825 3.3498213923650213
Mn 1.8808883418236875 3.9217616957173003 4.552950616349023
Mn 3.5007516966578685 4.522425310337099 6.1120724698280045
Mn 6.655386573726684 5.491127323926006 6.652611140145244
Mn 5.02068562231531 3.703133310174179 7.956085154332731
Mn 4.807656661174525 5.991963533622043 4.78540718357618
Mn 6.516437226190459 7.526575276174567 5.327451944572697
Mn 4.224255777084289 7.983577997150387 3.6690105208295236
Mn 2.4684529251497755 6.729684700818884 5.601950203269152
Mn 6.407282780316182 7.917026015809541 7.809961571822651
Mn 4.544917955802244 6.32322539409446 7.344791230897699
Mn 4.35346308906921 8.38830073065662 6.119545492578113
