28
Energy = -211.44740313 eV
Mn 1.793028980833485 6.4161633265456235 5.9866116698485925
Mn 2.6251661150174868 7.598787032932226 8.289140227855498
Mn 5.450387128434301 8.706644174638466 5.289687831055716
Mn 6.789598432572583 7.731694265979242 7.377169522223171
Mn 5.227857233938589 6.206701646355864 4.50245182605729
Mn 9.687415940878612 3.095296774979442 7.520347738690664
Mn 4.667859713119666 3.0408722165366147 6.809774023225451
Mn 6.442001746873399 2.0132284688046793 4.674571028060851
Mn 4.944187991937798 6.79511424897125 9.106682426048746
Mn 7.380189549942261 6.554825014704473 5.325997489398656
Mn 5.752661466124548 4.083288808574303 8.973469045165272
Mn 3.3048399981319316 7.5117321626148215 3.9800767306999223
Mn 4.501347107277409 3.4973949883981295 3.9365479116402504
Mn 4.728555005871323 9.154473454998602 7.88040530312582
Mn 7.134444683949916 2.6808016471475513 7.11693151011464
Mn 5.700762340437075 5.505830062564861 7.149360314290766
Mn 2.121953316019145 3.446564388405888 5.704917438895638
Mn 2.826071529795766 9.000784082972704 6.0428923810114945
Mn 8.62392060751587 3.7960007197021834 5.192751855204953
Mn 3.731193646597245 4.987454853564125 5.623830765862353
Mn 6.37502668816289 7.446775745840202 2.9498844148365455
Mn 8.018241761053218 5.147662383039186 7.431260097179727
Mn 6.385353387738358 4.235236775504449 5.378591440826165
Mn 4.483641469009932 5.634453640585449 2.3365008902340327
Mn 2.397817247697019 5.195085008787013 3.587937641032152
Mn 6.844354901476707 4.704886210803771 3.141584208901472
Mn 3.289034825745415 5.0152387131630904 8.003387072204376
Mn 4.160219731084551 7.115259605033158 6.556770856593434
