27
Energy = -204.49006881 eV
Mn 2.284584114701477 5.696910523818895 7.60580695185899
Mn 6.264397103731826 7.716758783181701 8.521918253509718
Mn 7.5581898222296795 2.6779092473204003 6.900783321533629
Mn 3.8327247092256744 3.090680927916253 4.830650077463758
Mn 6.322734713772444 8.596888029470692 5.670617995432072
Mn 5.294139101731765 6.767726918444549 2.155389285701957
Mn 8.002575883294378 5.05905294336597 5.406648627383924
Mn 4.253909312849789 7.569569360782588 4.492321177271563
Mn 2.880138177971064 5.872331879122049 3.148496784290287
Mn 3.7703991304290634 5.515075457249149 5.772164782729009
Mn 6.9969165376253235 4.587543743074571 2.682660796385268
Mn 4.737666701803769 5.521611491949753 8.509070175179499
Mn 6.603054496438719 3.0402114478981743 4.628280559264891
Mn 2.55276667064961 3.2645768169837033 2.8792720266067815
Mn 1.7720135352740503 4.3126558260060035 5.250912130084618
Mn 5.077036854462294 2.273318759215272 2.9024622286853123
Mn 4.837407543751591 4.633528288029199 3.5988897280654237
Mn 1.9898767072846935 7.076043539445913 5.443125400918286
Mn 7.291529072188573 5.03381002094587 7.977617143971876
Mn 4.383230629039552 4.457551219089256 1.4296201430121678
Mn 6.086832591013347 6.275181404469738 4.505327974909178
Mn 5.654086499250004 4.163868887935157 6.383750424466116
Mn 6.120269470089823 6.4915673890801 6.7100024608322375
Mn 7.781564860471707 7.099200187644419 3.3925938572409735
Mn 4.011299232754362 7.679513200129528 7.101321951328896
Mn 5.15353011848524 1.556414228459973 5.9608141305775035
Mn 3.5481264915216926 3.534159672677469 7.248104618155772
