27
Energy = -203.39572589 eV
Mn 2.9225056172685897 3.17999705616403 1.5896495314728722
Mn 4.984584047557668 1.4609586064600284 2.3563968202804304
Mn 6.191044915805394 2.8725324212024548 7.5725795113445304
Mn 1.7234898392008147 5.982296531438961 1.4531212020458872
Mn 6.5211502563479655 8.100858066933291 6.206575519322652
Mn 3.7949788356297574 5.331482604230033 2.1803414974166775
Mn 4.2794298934700405 4.744868938876167 7.630142678746729
Mn 2.968407328793766 6.798942172633594 4.091149602769785
Mn 5.371276105841245 8.061067047483734 3.8257391266396774
Mn 3.8761290630787015 2.480867433829825 6.621279866428227
Mn 4.824365355640883 7.344208126555325 8.072185626376513
Mn 6.813004542196728 5.657712639233462 7.337054290344649
Mn 6.445086914923046 6.316166598812184 1.9577323538236147
Mn 4.985241840666035 6.399667434264049 5.875358768927521
Mn 5.831456062475782 4.088062142688872 5.669944556268886
Mn 1.7591146193340497 4.449464864566445 3.5838012660271596
Mn 5.613019620540652 1.6890931491077577 5.043725952378602
Mn 5.237292258689474 5.591833560594502 3.7518376594261
Mn 3.4552833407705754 4.499330430665936 5.157027562747414
Mn 2.6400146254520167 6.468085104793628 6.637300598928163
Mn 4.713675641755498 3.3550697269768714 3.5186654042016525
Mn 2.89644062418997 2.1451000306226584 4.287659079126683
Mn 7.075461075867574 3.9546878147061295 3.4354978268947267
Mn 3.947695183293441 8.617042793099 5.923285207794448
Mn 5.5913713537848215 3.9120382403773424 1.183286765596908
Mn 4.224678539168638 5.971479729056403 0.04610948587339503
Mn 7.377422485954058 6.1761960825572375 4.786226299732471
