21
Energy = -156.00033727 eV
Mn 7.419352621955275 3.0625450923031536 4.6459726055063255
Mn 6.748513025264123 3.777052289024963 6.853576067630948
Mn 4.905352128109849 3.42274111742578 4.614690965102966
Mn 6.581358300724804 4.2096876417284825 2.7460006588612527
Mn 8.878480931717775 4.728520906579054 6.097429839225706
Mn 8.591219402101176 5.163871182035297 3.481477169365512
Mn 6.187622978728397 5.530093767949437 5.1537776332607494
Mn 5.443437670710777 5.195336517308248 8.595848721288004
Mn 4.424220860147422 5.455212582934198 2.9130785986499603
Mn 4.232482583022538 3.9507275211075403 6.97949920342043
Mn 8.528729063880604 6.900207310213868 5.084033814773986
Mn 7.363894693342958 6.301373808302489 7.307122943042144
Mn 6.649178733427221 6.850930074109862 3.2068894862890396
Mn 4.789749042186312 6.739270713118287 6.9344386567418566
Mn 3.7069676667022624 5.5097998437038065 5.224439730881729
Mn 1.7565952202840596 4.93608384767672 6.1747664422784485
Mn 1.9925549315960127 6.195455038966548 3.8446578447699316
Mn 4.2855838185573845 7.622770996065257 4.190191818084153
Mn 2.884458611045038 5.716356334719263 8.236538645938596
Mn 6.348021708276526 8.041381283182657 5.641545838406997
Mn 2.543329184712708 7.4701455933738545 6.227525931721624
