28
Energy = -213.16099184 eV
Mn 4.923325919200593 4.134093269159007 8.069166993080021
Mn 1.5600145556418512 3.0185970666565924 5.052199839864784
Mn 7.645256215498488 3.657119281814908 4.861520549211297
Mn 3.3550689893032337 8.009847069176177 5.062587131377491
Mn 8.273820902663736 6.151787689111936 5.345520285928339
Mn 6.810714982812133 6.632895313985373 1.5715954169476527
Mn 4.652390294381377 5.433193028161034 2.0458235802971205
Mn 4.28483212698862 2.729270520998518 2.0754377600183456
Mn 4.966686669076231 7.920415624711759 3.0150737317937346
Mn 2.53499708181367 4.673597454974663 1.138545808117976
Mn 7.384472547160471 8.21289431999348 3.7039816836384354
Mn 7.020194631781122 3.984606735906475 2.242759816744604
Mn 6.557627545181988 5.81168638650615 3.7506333875486155
Mn 4.28484507758756 5.977621736275911 4.409055784779738
Mn 1.8668737444014 5.798167315198849 5.332253101065888
Mn 5.902698358951608 7.578545137469604 5.602019777453318
Mn 5.371481314546162 3.7351789024725504 3.9518046577756674
Mn 5.929617807203204 5.087277482684494 5.990334809001775
Mn 3.790602337225261 4.106524681312433 5.854241737509976
Mn 2.973675955082118 4.23903666011581 3.525805035864795
Mn 6.35505260596887 1.61003684047193 3.701746305594699
Mn 0.7372481319558102 4.85013296336748 3.1478891152927164
Mn 3.252404052364659 2.1236629444408526 7.084182026730587
Mn 5.8175149670252395 2.5089859907877825 6.207563214639229
Mn 3.9318924861259763 6.3833200630687 7.020761887389736
Mn 3.8850278264357816 1.9686872923129581 4.61628699309331
Mn 7.656864723344579 4.241293156935415 7.35230454784422
Mn 2.489886344701701 6.752854064857336 2.8672745269190805
