24
Energy = -177.23292364 eV
Mn 9.977727210567066 4.103016146884819 9.84744176400754
Mn 8.366138718315113 3.354637441367287 8.14941059187732
Mn 7.174915821031491 4.965498782061948 9.602825841696335
Mn 6.7955705091824665 2.4926649481172425 6.3896168683381065
Mn 9.00406470181313 5.681150792243226 7.776041055526226
Mn 8.254448725207068 4.327534915197361 5.666791902387714
Mn 6.5528548035856256 4.847947444037042 7.416568990534314
Mn 7.3677732355684915 3.263529722034491 3.622891725978225
Mn 7.54834329214809 6.5394354173739195 5.970535421310196
Mn 5.7136037043901835 4.077195483708611 5.096945388969766
Mn 6.930556052209825 7.257867356828749 8.108070721430293
Mn 5.231665393278549 4.634706835088414 2.7070809594989043
Mn 2.458751836804281 5.572398673150377 6.922689116641325
Mn 7.383398553477049 8.050154382861864 3.3234189534204233
Mn 3.473204047374008 5.076475372033231 4.689858271042019
Mn 4.679813878736479 7.027722765409724 3.5150447652015027
Mn 4.361088754053159 3.862113769924692 7.06042623131755
Mn 6.934673024934721 5.799692139742315 3.858257298188848
Mn 4.520602914521106 6.264432546482694 8.253395947752773
Mn 7.89502321319111 8.928701221008653 6.404123710322979
Mn 5.09359943375601 6.183357053487314 5.976012565909226
Mn 5.121940311816333 8.65741375323239 7.247554044234748
Mn 6.075233583569291 8.099732339158468 5.218104772990233
Mn 3.37391157969413 7.648741466681645 5.731586379718057
