24
Energy = -179.81427334 eV
Mn 3.1750781243684654 4.875720732351534 8.786714300773946
Mn 6.017120269080959 5.979136360448538 3.71040386764387
Mn 2.861729486316749 6.08462815653862 6.464543483367459
Mn 4.3187424097257425 4.721771829816215 5.084637262872331
Mn 7.037933812081215 4.710483482377379 5.506532064021348
Mn 7.981372352302584 4.747380326946289 3.2497061529855635
Mn 3.71493427320995 2.1583825511703525 4.426938275025269
Mn 2.276037261330957 7.459343669692457 8.62429721942885
Mn 3.804072312876135 7.1713238965900175 4.1991885190328695
Mn 5.386946269971429 6.6887304715979194 5.936875596493685
Mn 5.709594851867753 3.536964601459603 3.409763938584561
Mn 7.063100140467347 6.138973775040898 7.615540712682523
Mn 3.9494938271042015 8.4863555315458 6.694599475343274
Mn 2.266805033314657 4.6060153229333824 4.206032751646166
Mn 4.569158459035628 2.5331966909657777 8.259719349454343
Mn 5.155007372899235 4.659730742102862 7.348548495637185
Mn 7.592191750961565 7.132364049024833 4.981155088986039
Mn 7.144823450562553 3.2412022560013547 7.510171136519551
Mn 3.1665237996154008 3.0544775102247916 2.3556502321449893
Mn 4.647496115033268 6.851367018219873 8.387095558403574
Mn 4.034008925282014 5.350536374000299 2.533748855752617
Mn 5.369112980816387 2.7940856829085328 5.909234538348238
Mn 2.7734345058928693 3.4797409722589396 6.572803339223979
Mn 7.44735029329474 2.3771004252150862 4.763788275062493
