22
Energy = -163.75934163 eV
Mn 3.2906512065022877 8.794396969805154 3.7066040628774166
Mn 3.805836491673732 6.726276139315164 2.2780722986339756
Mn 3.8224709694033097 4.218876185366551 3.3702179451614827
Mn 5.883393813737931 8.015042371401451 2.8467680036502476
Mn 6.1032161673791165 5.4501469489135985 2.761610814621642
Mn 7.062351174725492 6.913056074719303 4.801626278679074
Mn 2.925729016248149 7.591652295763734 6.1334405200456805
Mn 7.940998297150596 4.411331552750858 4.4533833865447505
Mn 6.10277371977155 2.8800541579734604 3.310055091493376
Mn 5.078977271579403 8.555944097979868 5.149009205970845
Mn 4.9867988384698805 8.551684531482234 7.719733578802046
Mn 5.363449924339641 6.590229578184131 6.621097833583104
Mn 4.341239516954894 6.45622316304569 4.472381013701572
Mn 8.661879361235426 3.462418908138872 7.372674687786506
Mn 7.334082750543017 5.249746699820826 6.720169965743997
Mn 5.6829719932064116 4.6374268513455235 5.052521763505299
Mn 6.950841344671624 2.5575700072850873 5.813292703469985
Mn 6.4905435360076424 6.272797216132588 8.783512252825297
Mn 3.835867623602336 5.996233354822852 8.183592107754336
Mn 4.483765803864889 2.6648917078171737 5.359024647759311
Mn 3.2942165403846397 4.855973388048117 5.989121645964512
Mn 5.399614693132175 3.9699867641374693 7.473982397572938
