27
Energy = -203.29864193 eV
Mn 7.97385006943702 5.992491257107121 6.687713230918377
Mn 3.1296720391322936 6.933913134262261 6.402039646195721
Mn 5.0224880929406055 2.5118300824006905 6.813798438408342
Mn 4.607993608795564 6.553962698831267 4.0096038091605415
Mn 5.230084652188797 2.3218819362602185 1.8894772816893988
Mn 5.37843831702511 8.514904456891822 9.486092715529818
Mn 5.558147342698882 4.109997169687964 3.2224479325133015
Mn 2.581496686697324 4.968240703120598 4.922143734922083
Mn 6.295524444817109 5.784593107890668 1.8397591684502124
Mn 6.054567538349399 1.9218307396599053 4.386026344738922
Mn 3.1056389494642898 8.500996143663166 8.328416492157666
Mn 3.6910180484836377 2.6800216011877547 4.271201856166584
Mn 4.9000845366036625 4.451168338445276 5.3482063159567526
Mn 7.000713627055689 7.993259617268261 5.098055399751982
Mn 4.855847700047558 6.564856864624396 8.381876204154507
Mn 4.724381737923751 4.310652377364649 9.468841961672712
Mn 2.601856697980699 6.059350881885316 8.981052591293349
Mn 5.0000210980027635 8.771104591255403 6.798673254439733
Mn 3.5738012274094264 4.663566160479658 7.260789830534797
Mn 3.4820799475677986 4.634239552979252 2.4031950400527875
Mn 7.759466753262776 3.4749345038357093 2.9001468920262456
Mn 6.1315208657111935 4.536923994108849 7.550084416045811
Mn 7.234446061346634 8.212656879957045 7.707510593943622
Mn 6.9887927663558935 6.160771883386678 9.253192171595165
Mn 7.235413965797477 3.6562225513317057 5.616439960528637
Mn 5.653673942082517 6.510464015735181 6.2160852123928905
Mn 7.193888557513027 5.703088943739025 4.222236640752484
