25
Energy = -185.75289659 eV
Mn 10.936730951560001 7.364523033433698 6.497193063970504
Mn 8.947822358376493 6.61338290099287 8.233167650425473
Mn 10.033297574318162 4.8267380005638065 6.627345758948488
Mn 8.67986403631486 6.834446668818899 5.744361632964789
Mn 8.260937006575466 2.97137438182884 5.873019351218965
Mn 7.58732137231237 4.774394805969281 7.182553320068563
Mn 8.39096780578257 4.926714437555796 4.421151567222714
Mn 6.590790934222909 7.103981314859306 6.863895791790669
Mn 6.62404667728904 6.807016073186109 4.151053310882183
Mn 6.249423512616604 4.765189505537467 5.435947900675629
Mn 5.161111553678511 5.270618156761563 8.02895708969925
Mn 5.862242754786496 2.7555035383740245 6.843429873805796
Mn 6.240874609462746 4.213048389192072 2.9786408557137016
Mn 4.630367512893295 3.28799853705202 4.612006253092146
Mn 4.031910507508645 7.830309764487674 7.285191475384145
Mn 4.438627613515706 6.127001326166467 5.881662235307102
Mn 3.672802588647839 3.8274600410344344 6.829366425042598
Mn 4.334624261464005 5.641397891370572 3.605236508313846
Mn 2.3444092453599814 5.913643323546259 7.453038062279091
Mn 4.4406356807580325 8.008277938314032 4.190429524910101
Mn 5.51750950146363 6.5977828530362626 1.9032772857784963
Mn 3.4663726402379424 3.95431074929211 2.407105914832682
Mn 2.3238760614904646 7.337998617822995 5.314938693432133
Mn 2.4819470035382767 4.763517177552404 4.923557285804161
Mn 2.4709991981397756 6.642501263241363 2.7303842896805746
