27
Energy = -203.359903 eV
Mn 5.216021336433493 8.654643587489884 5.821950784484019
Mn 6.553603771567678 5.500976971227297 3.3419108781481555
Mn 5.218559425893981 4.302235306913519 5.172312728044039
Mn 8.58129707353797 7.4452185038034475 6.87040643328786
Mn 5.982992823082097 4.4256826982274875 7.471267889860573
Mn 6.33606030889243 7.868942252325015 3.942814103707053
Mn 8.97213881749449 6.728003149779479 9.283020532138835
Mn 7.581046034864203 9.380155386784098 5.717739539073918
Mn 2.8720678279608176 7.480186746408314 6.002873200126739
Mn 4.550865485462433 6.489667969839944 4.727658668841387
Mn 4.718926285747899 5.888533736842902 9.305332699225229
Mn 6.4105173136741005 8.555828580264839 8.018663315346599
Mn 4.9128206350302985 6.607625580201472 7.08461491578752
Mn 5.155199392583614 2.3364473302942868 6.609912218041272
Mn 8.614632139316473 7.385027475349609 4.186709259043891
Mn 7.228813688642446 2.487291323171625 8.187325569276325
Mn 6.986541039077462 6.032323354051168 5.6981208439131645
Mn 3.5100961390179215 4.74404760813676 6.90022612550249
Mn 4.8965255935888825 3.223854221062678 9.068305207791624
Mn 4.014157993205366 8.118112264404687 3.2250935877482974
Mn 6.923313551469724 8.280622972456172 1.838477812195283
Mn 5.76282333719014 10.155861691323382 3.8109700059984406
Mn 7.035131580118438 4.499679762304674 9.94848134609735
Mn 7.423290370120101 3.4028365503425153 5.6342038299814305
Mn 8.387389932359673 4.708199886128555 7.699238985091976
Mn 9.27547898493349 5.296466285259214 5.6162849575543285
Mn 6.876547369819818 6.366204755741227 8.484536250711336
