29
Energy = -218.20133806 eV
Mn 7.423726988088302 6.487860241938271 6.5026789056387955
Mn 5.3206328740643825 6.099896848857724 7.359640092349102
Mn 7.879792922458289 8.96941200060518 6.375213951231134
Mn 14.060970927780932 6.435753524577694 4.792541339362223
Mn 11.581667178718135 4.694593128520558 7.892370743864435
Mn 13.731250140342302 5.856732901293909 7.60913766092199
Mn 9.779001720279016 7.079047930239477 5.613854346743714
Mn 12.972762408234065 8.285648597481371 6.661565034543819
Mn 11.077311421950029 8.803866936248394 9.15238945275056
Mn 11.36956121974408 2.3031448691629803 7.046788565633375
Mn 9.00157841391666 7.771070554615895 8.134237056432069
Mn 6.443515356545894 10.247784865930322 8.514684122957467
Mn 8.359828800882202 4.941990843505204 4.8742891667747115
Mn 13.011653039156956 3.9283618541356407 5.725215797416303
Mn 9.452876984982911 3.539075415595318 8.717167719524223
Mn 11.203363887964942 7.001137034474649 7.743401218390817
Mn 9.163742223390104 5.452821173378089 7.519756885587183
Mn 12.103136137062956 6.210698537447155 5.827393616576866
Mn 8.955292724154255 10.206120709667074 8.357839268446208
Mn 13.492748319688497 3.265395928228004 8.264150044313459
Mn 10.506942268572564 9.233085954177088 6.558599967014964
Mn 7.101692071787383 4.164325900621856 7.0312887504759995
Mn 8.06725159183684 8.424875422679765 10.12140930152912
Mn 6.545369147386183 7.993376618712769 8.256115442794767
Mn 7.396749283937259 5.810848685478837 9.173825837140814
Mn 11.238360525378152 5.3902137480994226 3.866693816727813
Mn 10.200173170832336 6.0631021015468045 9.711540283323643
Mn 8.954094344617857 2.683683759264805 6.326037398583938
Mn 10.442052185295074 4.369225404822374 5.840194413658744
