23
Energy = -172.27162124 eV
Mn 4.450590692682213 2.530203602634591 7.832822712821128
Mn 6.1282672136455085 2.400297194614518 5.757308324008704
Mn 3.6826769728034248 2.2292193321576117 5.362351117950904
Mn 4.568212055524253 4.475672512879655 5.969808356310472
Mn 5.156523317889831 3.403068715967512 3.5434994623561398
Mn 6.526571129785148 3.937167130575726 7.545071417772625
Mn 4.273897876219281 5.112024504213933 8.059307773635055
Mn 2.3287927735084906 3.6449723568110555 6.987158766247069
Mn 7.959361917944254 3.3271211389423456 4.2123150829168585
Mn 6.6648324508632255 4.867828751555556 5.126895965274624
Mn 8.534302499286365 5.006546387069569 6.668496614182975
Mn 2.7614448713947604 4.510418749149291 4.499436365811462
Mn 4.822654745099975 5.852426111536093 3.852315571928834
Mn 6.829938636797898 5.402589527511081 2.628260718764974
Mn 2.333060500350408 6.064529464071044 6.621555591895621
Mn 3.6378902814568166 5.034769551244048 2.0953540816735567
Mn 6.419558819613742 6.431495165880591 7.062841680724043
Mn 4.377544829976842 7.530597775690475 8.121118582179035
Mn 6.602277798949413 7.291715139365652 4.704326960971731
Mn 2.7483179922303567 6.977838987166119 3.8980527194822026
Mn 8.684520521168073 5.971990408383287 4.354051690318977
Mn 4.3058416916110245 7.100471120361223 5.817371645795309
Mn 5.035118637865733 7.433428089847467 2.265757444605755
