20
Energy = -143.43704466 eV
Mn 7.953292029045911 3.178547902082917 8.817069293618024
Mn 8.051699067617445 2.809165151980282 5.950543711916016
Mn 5.644630560502854 2.3738263781195394 6.93172070585657
Mn 6.907970683237109 4.444621819011115 7.227773723528009
Mn 8.03481296368733 6.075157811531016 8.169581409160656
Mn 5.450744450826072 4.462886025116082 8.891233758773554
Mn 7.802048529962677 5.725510199838119 5.347697009302014
Mn 5.503676666354916 4.21627337022439 5.4703507277470695
Mn 5.738519190778308 6.621114671469739 6.8081990937216865
Mn 3.845190012272774 5.069601107817189 7.186914389948879
Mn 3.4303077204364323 3.200842084116224 5.672992103050915
Mn 4.476954871573323 4.4523461284153925 3.2295572515898137
Mn 5.649349509146301 6.339706189512638 4.456131337915022
Mn 3.435550229165548 5.911779152897306 5.035286816576783
Mn 6.640967013266844 8.28147742589225 4.5182300770848105
Mn 1.858168639915848 4.463384617116879 3.679825977482005
Mn 5.249650849995871 7.078317348199906 2.463810034844385
Mn 3.071300006034281 6.099263553517852 2.1358428113140326
Mn 5.5863369320026495 9.343974775671352 2.1668345551822563
Mn 3.4161378477760254 8.29821822297273 3.464051451440093
