27
Energy = -193.1963761 eV
Mn 7.68256710246721 7.648712675222276 4.087700740954317
Mn 5.858294716805352 4.557227540290271 2.8868030404163316
Mn 8.427699265506138 3.8736422325010014 6.535877286061425
Mn 5.827892174502297 8.454854142435691 5.485585284386061
Mn 5.084209449039934 5.271773342911732 8.654767687837781
Mn 3.8813906726821052 7.536273495964543 4.170301385929316
Mn 3.3371495875099066 2.4378260409500925 8.490765242807864
Mn 8.672315015395778 5.554628347937857 4.7925105159933326
Mn 3.3052108460914 3.673964518813979 6.130755676347644
Mn 3.5900504577912 9.640831164763505 5.858000302513599
Mn 4.252150479425664 1.3499695453524017 6.05132422925284
Mn 8.211121855832733 5.583382932378241 2.438913897855925
Mn 2.3684778706397527 5.438571928143322 4.733661379846997
Mn 3.883398322195921 5.484088332368054 2.9337833374702886
Mn 2.2091582382854256 7.501944087981677 6.163893142086733
Mn 7.1382161466722955 4.129004515215918 8.602473739534204
Mn 1.8753231099061969 6.191996500869974 2.1367463072530075
Mn 5.893045523830784 6.98492242933209 2.712598327656831
Mn 5.538359950960784 2.810520660232774 4.393783830926809
Mn 5.515038575009925 2.99077073845222 7.327662479499172
Mn 7.036814866523166 6.353143753516294 6.8061077648290995
Mn 7.851463686745476 3.1589993654841684 3.8837860181892423
Mn 3.7261956949719397 4.660831814746907 0.9807899337178675
Mn 4.535278990686114 7.624205648936609 7.39045552358545
Mn 6.981195489146202 2.0347195764437123 6.2297440138070295
Mn 3.5927863431745037 3.4406614854500046 3.692811162380744
Mn 1.548731763884789 3.0539861272735775 4.503570474288021
