20
Energy = -148.00965911 eV
Mn 7.59277489016845 5.22610048105107 9.120653631926265
Mn 7.512525149698291 3.294276686034758 7.024689236449051
Mn 8.712295173748531 5.965660564594704 6.566899800275016
Mn 6.681750628063602 7.612177764551064 8.106816305538937
Mn 6.536664488199971 5.475696291771489 7.133717462206902
Mn 4.9897079731878415 3.6523668688540036 6.503250448788921
Mn 4.4853689148164975 5.958296404555543 8.181425480819186
Mn 7.129113163171273 4.683117943786202 4.914644655463879
Mn 6.388758576266763 2.193215747921077 4.697674948098751
Mn 6.726952589636369 7.285460679844815 5.5059754389797435
Mn 4.954414856514346 3.9235892574959026 4.076025931648915
Mn 4.55302693289845 8.049674323141037 6.532204920586128
Mn 2.825915469446676 4.765342389208833 4.666450951913408
Mn 3.7010792584129137 2.3357562933794793 3.2870943607554026
Mn 4.625147959600366 5.908039367488472 5.686844060414357
Mn 6.38277512616337 3.773791735888023 2.3344833275784036
Mn 5.551350441135756 6.150454516162942 3.4063214827211596
Mn 2.477961482629121 6.490538906902882 6.467542328650023
Mn 3.5853922590753897 5.009841842616448 2.328472993534394
Mn 3.4825527136712244 7.293294068003435 4.133305494085177
