22
Energy = -164.21134333 eV
Mn 3.3428513527366377 7.989332134277906 3.758387721634905
Mn 6.6936984379143745 7.478250384825381 5.6468687733999445
Mn 6.28067982027864 5.731575366103072 7.461931417701247
Mn 2.4416675227141176 4.924923511373694 6.4831735090045415
Mn 6.57419828279292 4.524787542576813 2.3328678743435303
Mn 6.043922925771685 2.8339505106377647 4.365882727035435
Mn 8.206227677402198 6.5063212259613685 3.566557351944371
Mn 4.1903192150815 7.21090923638315 6.1678918353862455
Mn 8.62214730168022 5.550217469483838 6.0821491600083215
Mn 3.1338252497835852 5.74513193417964 4.362861077954138
Mn 1.4353552609694287 7.026519908718183 5.302260976025612
Mn 1.926128120737352 3.8415175587088473 3.8046282134132756
Mn 4.559212811853644 3.5102273081763644 7.503830795785166
Mn 6.875790207064499 5.061754390424084 4.694337062600266
Mn 4.4316234660275065 4.238516183552066 3.2658277243900975
Mn 8.472857051582977 3.479103947945739 4.191950133834274
Mn 6.979598868380972 3.4281758420600403 6.561761504111952
Mn 5.1870911484784115 1.3507667410017363 5.9484244123805885
Mn 4.085573722502432 1.865112104663198 3.2627267098622945
Mn 5.416641134470832 6.6396613672115645 3.665694376623914
Mn 3.659970320705037 3.081989147201798 5.314045244209283
Mn 4.869201576010606 5.056210723750993 5.754415227606405
