29
Energy = -213.39249991 eV
Mn 5.844632272254323 6.191183401667521 2.106057992085622
Mn 7.307003214168303 6.200370326476632 5.4467438523370575
Mn 4.462631197226657 2.7742927232883887 4.6179391789825734
Mn 6.5222375961689565 3.6998388461167195 5.567293350117115
Mn 2.2925098032825715 4.222935165217043 5.497449721017414
Mn 3.8219945123635646 5.885461986681952 8.201107594001348
Mn 4.945388921081495 7.42791633123866 5.265654191850631
Mn 2.3656723878057324 6.848253392288975 6.335554907993614
Mn 5.798406290466174 7.353778583189621 7.32572005194344
Mn 3.1080023633051606 6.200858495880262 4.3034760764117
Mn 8.351324572135942 8.25465388885126 7.5321022860507085
Mn 5.959330636053572 4.949777287746425 7.734782771237101
Mn 7.961365947361777 6.124062228167304 7.971440837270952
Mn 6.326438033819469 6.198856230196664 9.71059702949945
Mn 2.775339509192037 8.707642267724596 4.650103767220136
Mn 5.510380999903398 5.335224388746262 4.026948470878368
Mn 7.221751088365885 3.3468799212159026 8.68722331940085
Mn 4.029572822805343 7.524245728215181 2.753365661711232
Mn 1.0074839366737944 6.477232198068492 3.720985960145304
Mn 4.696916712836993 2.9257863397604202 7.316875848544319
Mn 4.404366965624723 4.978473960472926 5.989443141884908
Mn 10.107859844104853 5.947017000726836 6.743531907325499
Mn 8.369157744228549 4.339146769766685 6.790873976083625
Mn 5.902363668304514 8.592903465841651 1.3606168041490794
Mn 7.233192549646886 1.9081412822858905 6.498746480851821
Mn 5.164100294910839 9.54089675190196 3.742062228409299
Mn 3.6398601378207487 4.5037487530616 2.7535940097987535
Mn 8.975559834427925 3.6541118040019245 4.727525830790122
Mn 6.552616226657438 3.522326234516402 3.181593074545768
