24
Energy = -180.10416439 eV
Mn 3.1422193990149454 6.398002879405046 7.699525869154982
Mn 5.531762011494458 5.554320904061798 6.919148982390092
Mn 6.554610830010745 2.106052059336691 4.88542887647861
Mn 1.659098832084259 7.154506369865949 5.786190831734586
Mn 5.79629877047918 6.430316616035878 2.0909067627751754
Mn 5.539780509872841 6.173681293313602 4.519463297036003
Mn 2.722470660826739 3.2945332197461132 4.917556338029082
Mn 4.535140006400114 5.01594500522968 9.147750122569402
Mn 7.0510126110728155 7.33823526763582 6.294726310274502
Mn 3.4269711957013107 7.146623337077833 3.529229411416515
Mn 7.4535096714405915 4.657026009996598 5.65630397515166
Mn 5.063639757166374 7.614848977436986 8.321768950624623
Mn 7.809012509709655 6.518365233150376 3.8434984832727475
Mn 4.412831953056715 7.8192888955467135 5.994616101176497
Mn 6.764999226045643 4.143708802268264 3.147392615213157
Mn 6.014836834142258 8.395956911255203 4.006236971527784
Mn 2.3626756961644912 7.0747266058190394 9.662708372438724
Mn 1.4755390926324659 4.704930512966574 7.2301175482966755
Mn 4.282304686624629 4.7056690335891265 3.210361327856921
Mn 2.6929298957428305 8.722819513064715 7.52949731944837
Mn 3.3434611181241904 5.630261328615975 5.428371985613912
Mn 5.1845289788050914 3.853500662507796 5.197262680606819
Mn 5.919582309750913 3.1306500343798787 7.487700696276142
Mn 3.713275410771928 3.9550136921336025 7.073880691842427
