25
Energy = -187.59622362 eV
Mn 5.364410726350388 5.723320973854803 6.7733988613759655
Mn 7.341359390320948 5.271822069200688 7.41178854346607
Mn 1.841000213450498 8.647485380681701 7.012034628367063
Mn 0.9496204775533811 3.769079226967288 8.395393772311936
Mn 4.799886503018705 8.225699717202207 6.288230000872264
Mn 7.629224137013143 3.2738127859333046 6.027561380268914
Mn 6.153968519537164 7.307702610265697 5.358516437687676
Mn 2.017718926155644 4.240518050295895 4.109355066452782
Mn 2.99672065659741 8.625907495845066 4.69903041198479
Mn 7.507750024130144 5.226708291623266 4.683403955927916
Mn 1.5532109089815698 4.950838955337784 6.193074940182859
Mn 7.768037760562981 7.730965998881689 8.953672810806928
Mn 0.3066440012469127 9.007256375110579 4.797134707629662
Mn 3.3347473393341143 4.362611069586494 7.944262000860669
Mn 3.986360341079702 6.12827530404199 4.568668051499337
Mn 7.1104843676002245 5.2536787789138835 9.68453137017255
Mn 4.118060324395849 3.7782981632957333 5.580699660989798
Mn 5.696129347133901 6.932884617787375 7.8970499644531325
Mn 6.993989451938613 9.139193514652623 7.0447260485134455
Mn 0.19157503199647316 7.109033818536219 6.440719481019427
Mn 3.1092766299324284 6.655937435359466 6.810703879526238
Mn 2.0032866919606747 2.6406427860563695 6.404817299525262
Mn 1.4888835817568213 6.211844355893563 8.5165124699699
Mn 5.364410726350389 4.852150394947947 6.216393323434902
Mn 1.508905801629324 6.850435669112245 4.507725632857007
