22
Energy = -163.89565009 eV
Mn 5.040668764951044 7.8389708426330875 7.4991374881815345
Mn 6.462677747457282 6.2541928918717655 4.679801033876975
Mn 5.433676689301721 5.604860037902943 7.032509123660894
Mn 7.650644933569573 7.4259030891505 6.51239105639782
Mn 6.977276142953315 6.439871471412294 8.762786924822658
Mn 5.220451239646568 7.519301340010249 3.131385826708654
Mn 7.449069360228093 4.775865391607451 6.576052398514434
Mn 3.4766932768569525 4.524597477383853 5.863161803232399
Mn 8.629585492473664 5.398303781596874 4.628246282457736
Mn 5.902310547737478 8.579641248583048 5.28371273164212
Mn 5.423699356996528 3.303461342363912 7.024180842127013
Mn 5.067338467329891 9.826273616580158 3.3648230478702637
Mn 5.067089858665457 4.973184321093879 9.186716445677375
Mn 2.9430442762902134 7.919830367900038 3.3842148054651795
Mn 7.592246269731657 8.096938955803198 3.5549340424646663
Mn 9.21573706009579 5.593174421129539 7.782528227989536
Mn 4.047666724680961 5.315387007283825 3.339696263133204
Mn 4.167089031334629 6.795529888827177 5.277667337230299
Mn 6.570938166701595 5.577932712397757 2.46437145922888
Mn 3.60817333938922 9.1560526492344 5.590023645597364
Mn 7.31038225225653 3.8652117905999352 8.728180419084547
Mn 5.9070819190516275 3.948527913085388 4.66457739887802
