23
Energy = -169.58878578 eV
Mn 8.641694651372925 7.025861584070348 3.091759745561535
Mn 6.555776448896129 8.10747330156753 3.592873913692751
Mn 10.45049602329526 8.350236625923419 4.341862315415888
Mn 6.814689660989038 9.810102719730255 7.053126622936324
Mn 4.1551956558509895 7.140437398412272 3.491148905823265
Mn 6.213857228709267 3.392749270771456 4.933475811316922
Mn 8.616932360043068 4.673208014900667 4.96999700169546
Mn 8.430008332524364 6.011214047205809 7.5329610346842095
Mn 9.328161846600844 8.54438792982755 6.986739318333127
Mn 5.567465293949267 6.98013775601549 8.100419645107975
Mn 4.7301094711188565 4.096318333266298 7.181618130229641
Mn 6.4616687590927295 4.740224675630432 8.778283418713674
Mn 4.854475198780305 6.857607252156054 5.675280996863742
Mn 8.14908552563576 9.393655210658611 4.852006019718492
Mn 4.036837709874906 4.842992884685335 4.87488803597793
Mn 3.2572385543176785 6.08536101693639 7.139036375495648
Mn 6.437923698895344 5.844310258751385 4.063422012991022
Mn 8.758941547789535 7.0161652564396375 5.291100178676692
Mn 6.846918945378732 7.69259773496212 6.313039050181623
Mn 5.251248570034333 9.225807631763146 5.173728577249618
Mn 10.710895586267673 6.299359744486703 6.070833975710855
Mn 4.125701978447141 5.283711439895372 9.475393616889447
Mn 6.5673197319753385 5.159440740493162 6.36174101832218
