25
Energy = -188.18970677 eV
Mn 3.200630752992535 6.0888250798986965 2.8839856941325714
Mn 2.371463141861194 2.287135580071478 5.953181930450259
Mn 4.315250114095302 5.828375945562898 5.223716206026207
Mn 5.924709986346463 6.675593873918452 3.3826436345067608
Mn 6.718820365466946 3.0537899885180813 6.911196185739283
Mn 5.6346719879176375 2.0042681727047884 2.4758917135739305
Mn 4.738216113210916 1.0998115957369436 4.9309260449719075
Mn 6.384008303568409 2.7135354214120393 4.504372612047175
Mn 2.542669498937504 4.3358485820459185 4.685358923544162
Mn 0.9084121691102542 5.043644120279822 3.212201365667632
Mn 3.1076174294847454 2.475972555138059 3.394838967648921
Mn 4.769453137824072 4.258250194881166 3.334095159084716
Mn 7.804644499915317 5.316391567167055 7.021857167726415
Mn 4.4473903659110885 3.34848034617118 5.831740124562133
Mn 2.7485729233997533 4.804445361880828 7.06712596496409
Mn 3.7644503160792415 7.297026088532284 7.038804403274052
Mn 6.272811262710016 7.423658389098272 5.943727195105399
Mn 5.277884062240967 5.276863374301988 7.395643707471299
Mn 1.8853923727660966 6.648787976311645 5.21026596103821
Mn 8.222699580393215 6.2081414647556175 4.558202356206962
Mn 8.257530965301966 2.0813782864284764 3.0720437336926807
Mn 6.424484511186933 4.958233025867122 5.165957125397622
Mn 8.648185309496926 3.6312355776984786 5.164575572028075
Mn 4.051801099055215 8.03338658933249 4.562763434115204
Mn 7.271525774897715 4.419287556738462 2.8608108886818995
