20
Energy = -148.71989751 eV
Mn 4.189760994856948 7.797363875273623 6.888986097383666
Mn 2.68257050258199 3.817733544067532 7.002831783885727
Mn 6.844753616032977 4.373822096620051 7.067946055038411
Mn 2.2700302907168717 5.9876522139232735 3.806926534834052
Mn 6.64441367862347 6.7701103121368424 3.465344860468619
Mn 4.834305291058295 2.778371772469436 3.4926093534998057
Mn 7.089601721601612 2.6985683245752305 4.9616164421886095
Mn 4.395830617587326 6.7903721212651 4.600108809396084
Mn 3.6718337304724824 4.30890398098824 4.704572304114765
Mn 2.4440802930760825 6.122337373162764 6.240783460345699
Mn 7.0189406910328485 4.214775133278739 2.8075784265513186
Mn 2.6627449525627003 8.392985742897757 4.804133817328458
Mn 4.760966355976239 5.284273044425277 6.8148632098447415
Mn 4.5753543939474195 5.241351037787428 2.6405288546811807
Mn 3.5532571040593854 5.805749057248549 8.614848386206662
Mn 6.519156587025661 6.902216195754701 6.185502790973563
Mn 5.3351655413363135 8.812961900453153 4.776862827245795
Mn 8.194203807616532 5.133230107957098 4.928592596438356
Mn 4.842959920817142 2.878933309997859 6.190120587062524
Mn 5.906057530035442 4.890415179205512 4.77555160001348
