23
Energy = -171.68743554 eV
Mn 7.970145017751452 4.753662282973861 4.551920307859067
Mn 6.436575433816524 2.117282654866505 5.43515627436976
Mn 6.910972251051135 4.180997559780788 2.1268799887601957
Mn 6.402818770834744 4.440566705798 6.553310695704394
Mn 5.700022505952339 4.0155559142082105 4.320321022014623
Mn 6.330722284528823 6.411819858684986 3.388057607410042
Mn 7.059101873761844 6.950798688755935 5.769857262592608
Mn 8.416456434390605 5.355948251277177 7.197949507995903
Mn 5.190915197618603 6.121878173453142 1.0413675135141847
Mn 5.437053160921106 6.306099031412917 7.649404593788061
Mn 5.529664822404947 2.0820236524887115 2.6962869531965756
Mn 3.4814281138547587 0.48865367760072526 3.404940328362672
Mn 4.541347885104608 4.510765523687611 2.491247804987885
Mn 4.940736901199449 8.341175112733872 4.785012452901151
Mn 4.89845347035605 6.0646330193414935 5.315926419988442
Mn 2.9209840742943727 4.652591537434751 4.210533598656747
Mn 4.009442310001273 3.9904594921158414 6.355351610390366
Mn 2.453613008421811 5.2548370021632405 1.5912564910274585
Mn 4.051876131746889 2.3490416368163767 4.677035668220398
Mn 2.929572888975223 2.7749502104357204 2.4199973378150816
Mn 3.7386595859490646 6.791390094472692 3.178543911829284
Mn 2.78249555908867 6.5674825154684555 5.812112523351915
Mn 1.7258604320604556 2.4638112475392777 4.645093075303046
