25
Energy = -187.89303725 eV
Mn 6.7569381883187525 6.536627567029545 6.43013114772999
Mn 3.496291531536114 3.723478651047987 7.069502638921248
Mn 5.4884440633309906 2.2556145869912894 5.99028991885342
Mn 5.734522868640454 5.058521942380866 1.7116854588670312
Mn 1.6373786365841752 4.664359243365806 3.442692516460282
Mn 2.6698555736226686 5.624533663350266 5.629038190929466
Mn 3.637106259987603 3.33402346982352 2.057566545507433
Mn 7.476581104068231 4.079255999094848 5.582110697650616
Mn 1.0600009358589169 3.6073757769390946 5.873539509301709
Mn 5.675976663301903 3.4984736336335915 3.771020683098889
Mn 6.068728966389474 2.508180211360243 1.4701870912573927
Mn 4.2894111744369505 6.333098165886639 7.583696814360683
Mn 5.959452351449919 4.250244779895121 7.689764058501318
Mn 8.467706920708771 5.005261368640195 7.88930069032638
Mn 7.842883847022123 3.9799176633541036 2.869847859744841
Mn 4.687261401984926 1.381151562933708 3.4667333985816877
Mn 4.920078464740191 7.288255178572956 2.6091646240168376
Mn 6.588066551353447 5.865859930845378 3.9944529243429145
Mn 4.023546344642863 5.381767878358523 3.4769278348185075
Mn 4.662941665339806 7.093281872872913 5.163087740644844
Mn 3.3481457503360486 3.205274791236872 4.733781937377388
Mn 2.471364698800086 7.137863249557243 3.6438505516518727
Mn 5.086909134509982 4.858331660280044 5.591529595071247
Mn 6.492286073782401 6.238969716756358 8.854455823540462
Mn 3.0818780915293895 5.956484450799167 1.3818034634111191
