24
Energy = -176.98041092 eV
Mn 9.758121665856676 5.392289938357418 5.291678282424436
Mn 8.694269509304377 6.282726572824363 7.462941372894852
Mn 8.03730986583755 4.321478416021818 3.612327883708149
Mn 7.521781016545042 6.522994225849958 5.039388328852085
Mn 7.920974508651901 3.950001020533309 5.971061092167378
Mn 5.738844195850322 3.2779787469712587 6.824300696234881
Mn 6.616599719704271 5.644586006158942 7.12892604374717
Mn 6.022399398334699 2.8200500557430206 4.357974564159723
Mn 8.036219720019602 6.587968884599356 2.76561187810436
Mn 5.213809107223692 7.339024275277428 6.129535593870277
Mn 5.526468110660695 7.062410741481438 8.5914838771719
Mn 6.106736822342672 4.812033105215912 2.501662020980137
Mn 5.84262125792383 4.942840607504309 5.0648832734833436
Mn 5.843994482005468 4.301118855068549 9.031140057628047
Mn 3.696550660731666 5.576420654033338 1.5893100315198985
Mn 5.349633851661332 6.790033443105957 3.5184155402939936
Mn 3.577691964692011 3.4888837195343845 5.543115787188355
Mn 4.215682062882644 5.231004886184961 7.428459508555473
Mn 4.09083170817789 4.423094475117284 3.519442974289178
Mn 3.505479640377911 3.004923621893966 8.060374595530345
Mn 3.5034843356611285 5.985590586830775 5.189005129867966
Mn 2.7218287229561184 7.073056210858938 3.3814584058669914
Mn 1.888856489686128 4.820309054704222 6.567265066812159
Mn 1.7855257554368762 4.641644666833501 3.758705514089967
