25
Energy = -188.1302832 eV
Mn 8.449849340394413 7.6342399709234385 6.676807977609805
Mn 9.76397276709631 5.636699443666604 5.8922126973752285
Mn 6.119048373350606 8.199479817665754 7.833927644971772
Mn 7.740608292398291 5.026155556541423 7.191678442068503
Mn 6.310410087470596 6.36257701496264 5.670548421465643
Mn 3.618059574488859 7.159345741216891 8.662475898650756
Mn 6.528101138205041 8.558526775239512 5.049152139247379
Mn 8.214445944256967 6.550205767196768 4.335905324733023
Mn 4.3492710062740505 7.527617841674553 6.39168930197898
Mn 5.521425566636758 5.900228986894933 7.818534960112731
Mn 2.1420026753143224 6.830867580449883 6.136461597638996
Mn 4.225851138072476 7.191705288517491 4.094690435719684
Mn 3.3320946733406034 4.678969894010177 7.827507997497481
Mn 5.650549064181623 3.8955987952557734 6.468260117289262
Mn 3.887315783833423 5.178488757226865 5.627132680568097
Mn 6.368426275476474 7.083724365513439 2.8390314107627512
Mn 7.752711489080974 4.253818159890199 4.843417541287974
Mn 2.319688127142122 5.790017968693898 3.5649942228314915
Mn 5.559873588516898 4.933607802252408 4.010501413492494
Mn 1.7341130881789195 4.263746177016478 5.661176272727871
Mn 4.502069413253218 5.440141255905481 2.0151073445793237
Mn 3.7193323049036433 2.607889238350994 6.110397540611551
Mn 5.870879113898703 2.576784238091108 4.35108719734955
Mn 7.317060239544045 4.699450627129116 2.4342865381955536
Mn 3.4601483993321644 3.642366247264303 3.776943978549618
