22
Energy = -164.66956857 eV
Mn 7.17704944749669 8.739237848487706 5.382534936338637
Mn 7.438228348013483 6.361333686153273 5.428465502967102
Mn 3.482678908176374 7.678078822970343 7.788121429326579
Mn 6.425270059578175 6.993512359601368 7.672532976195536
Mn 7.456274114935165 7.196546768980094 3.0343443060383093
Mn 4.987673683218135 7.913637445885626 6.057620413512033
Mn 4.379181950684727 5.18483240821912 8.165027295693111
Mn 7.903330523175099 3.9088706476795894 5.575818057000863
Mn 5.561716179110657 6.788465753743302 4.185498948865612
Mn 5.204476655069617 8.920808252592298 3.5240552295696133
Mn 5.687737242284026 5.137514587776488 6.2240355472435445
Mn 5.955721145838114 3.071938897004454 7.360754768138283
Mn 5.692012942934898 3.028321616178701 4.973970285526407
Mn 4.290078111951762 4.809132002798819 4.151603102679637
Mn 3.2130665986456344 7.313111669883561 3.9627534398784117
Mn 3.3317076304335616 5.925674841767538 6.100421400652853
Mn 6.731105225713898 4.664178296145146 3.4356011370547503
Mn 3.547466818593535 3.4867557186063642 6.108561021140664
Mn 4.748394548138227 5.986636922843014 2.0980611413985755
Mn 7.237035700075861 2.2091912159283926 3.4437506575891983
Mn 2.0224846843946214 4.957982271589891 4.107088692718375
Mn 4.638074338776055 3.013980070999468 2.7187806307436873
