21
Energy = -157.37020271 eV
Mn 5.488771586352066 4.322219696741397 4.812546318997147
Mn 8.358182926976117 2.7257567816846566 5.058626478720575
Mn 7.813930139223987 5.454420986831729 10.672178691374045
Mn 8.679952179243392 8.042935494446738 5.073931792294304
Mn 4.71444851603795 7.590148981911773 8.504671377761792
Mn 7.023197326898959 7.150538512711928 8.681350290518692
Mn 6.742788776345219 6.528547904954163 4.6821116102107485
Mn 6.068298659418653 3.1628938192156912 7.360224613020819
Mn 9.608948666143668 6.1592869477262235 8.698466743000882
Mn 10.553086044055785 6.805162138219228 6.369747053618151
Mn 9.68767381009765 4.395953488883305 6.839156019298856
Mn 5.623677954707745 5.774028740026759 7.044962208605187
Mn 7.437592743288197 4.509399455217626 5.97122558802657
Mn 8.490022611445557 2.465361847026932 7.6770721617623625
Mn 5.579893711414395 5.202556033380068 9.427310992798898
Mn 6.841097970328925 3.0557984296953915 9.85114237858961
Mn 8.952879045223597 8.558356255394388 7.705752922592909
Mn 8.202975352073762 6.506806774375981 6.738959696900064
Mn 7.7216842928417035 4.705594857103113 8.457501852458199
Mn 9.210284219752811 5.4230177622752125 4.503159815641372
Mn 6.490601119903336 8.293463269441743 6.543744991186317
