23
Energy = -172.06962045 eV
Mn 6.327103836603913 8.055002281162269 2.5763694716952767
Mn 7.571592416108927 7.715505407353318 4.602908600256799
Mn 7.781701647722991 5.824614649188819 2.903241917423608
Mn 9.092958064403497 5.812560427506092 5.368825463917486
Mn 5.506098216349686 8.338499671365591 5.7227173251760215
Mn 7.860135584902838 3.585770564415206 4.375692319656002
Mn 5.194510995152308 6.5729994281118 3.8548401919761677
Mn 6.81220661202934 5.550206208535925 5.204641886815227
Mn 3.7218397477364764 8.33133571649083 3.184313764859056
Mn 5.583984053177672 4.280239087725092 3.1439842472628037
Mn 7.614411666194284 7.150570756275923 7.058412978289125
Mn 5.810374206355498 3.212845231566524 5.583756995452481
Mn 3.0125762140312986 5.537463394607925 3.3955010584201766
Mn 2.2629522935685706 4.043742724961149 5.875212116626038
Mn 5.742455179766636 1.6130433163413327 3.872459053889403
Mn 5.303550118954118 6.198954013146998 6.949585643507027
Mn 7.143251418824268 4.4814220540594345 7.256965163365958
Mn 4.231071258837563 4.934227157513335 5.376586098520132
Mn 2.9737104960992182 6.177284527344294 7.475361399035515
Mn 3.598278063889168 3.0040044893030107 3.8299182912005527
Mn 3.889446673067239 1.815121833893875 5.943169500390988
Mn 3.3142351892513684 7.201159857672579 5.331895588443236
Mn 4.38010558212769 3.881628428270344 7.576547704025768
