20
Energy = -144.08035803 eV
Mn 7.581050950715704 3.2739362670614933 3.999924528098249
Mn 5.047762471844311 4.090292330527143 2.66445300561339
Mn 8.143398627281522 6.032862098484293 5.242092019680404
Mn 4.661882652582204 7.004215566418438 3.5982913270896155
Mn 6.907624431972625 6.014733212964896 3.193748267468981
Mn 8.952674682717753 3.8034552044848655 6.446016551511202
Mn 3.474018774606325 4.88762815210947 4.929037480491014
Mn 5.513980855670931 6.666387661909346 5.668379007146405
Mn 6.928145730387448 8.429550075562199 4.8821678086268125
Mn 9.1784402317056 6.129864648213614 7.592236421871808
Mn 6.833838604932534 4.762376479028327 6.909828250884275
Mn 5.768154826819569 4.658382463650111 4.7258255118688846
Mn 7.150116816398165 7.322368401857202 7.100281268712837
Mn 9.013032784690482 8.730650471626744 7.488267383708594
Mn 6.510697534446376 9.432062169545963 7.736064615527868
Mn 5.0266394304059485 2.9579622189993384 6.141760861275754
Mn 4.545144415364576 5.285943064326724 7.345259747594892
Mn 4.4357654738266215 7.9969873630053705 7.179697463490402
Mn 2.5081609820143282 3.781703410668375 7.077321510323382
Mn 2.3967467790652672 6.415413539731959 6.849947302214143
