22
Energy = -163.96783745 eV
Mn 5.7641605990433336 5.479044664886902 7.708802368897018
Mn 3.4305029293889358 5.388249823145221 2.086793179069075
Mn 5.9366010332164265 5.106976168200119 2.629516848452682
Mn 8.220403563953614 5.308042486270846 3.9812907853843345
Mn 7.645820992632523 7.0283666712049495 1.9727337393472504
Mn 4.789953116678647 7.476970167391921 6.453158296504183
Mn 3.707385853366145 5.302527029455322 6.007246387299218
Mn 5.050749332448211 3.2116995044893493 6.512663716154887
Mn 2.461149819240595 3.168137589929793 5.846780099613616
Mn 4.838513735373778 2.9198288876897847 2.1254890228492553
Mn 3.356204160520759 4.696637187832019 8.158412102153017
Mn 6.5537385527974115 3.1178711754787414 4.232527405762999
Mn 5.02021188398595 7.685574583960684 2.155768454606037
Mn 7.276587108601352 7.252723924863156 6.196675873254987
Mn 4.239391161221944 6.565239775232477 4.113523955202836
Mn 4.223350195491654 1.7494771748122233 4.442631108201313
Mn 6.103141060928407 5.238441507534319 5.426581178968168
Mn 4.193211928402195 4.074551835026019 4.094039572450343
Mn 2.3238262075054132 2.9141205348013655 3.0933496696390668
Mn 6.544825790473689 7.106763375011233 4.014457812154011
Mn 2.080957144908065 5.14624862157786 4.233894852429802
Mn 5.60226348594549 8.998992763901995 4.592980203179342
