24
Energy = -177.00015861 eV
Mn 4.848698501015306 3.7446121016458633 9.654470717419334
Mn 5.248573936581385 8.9616394993275 6.519173261227901
Mn 9.500894448334908 7.0805300595067315 6.090416836609352
Mn 5.908416172454279 3.9255946766258507 5.325840836682092
Mn 9.149129389654108 5.101914506250113 4.740476403845797
Mn 6.93072892460945 5.37365266528804 9.423784004957088
Mn 8.781417934916735 7.645925759133894 3.861835671149941
Mn 7.209581777239249 7.720235365404835 5.937958161536602
Mn 5.258140491390503 4.747829995946901 7.651489671969865
Mn 3.929077535406405 5.997809588376815 3.8231527094415667
Mn 5.745317720013576 7.011245814931915 7.700420079307719
Mn 5.345914288303994 6.36862758564203 5.517029447113423
Mn 7.1779872350091285 3.3581847551072115 7.876914641832559
Mn 2.8887584466802574 4.398047377650463 8.179919130506729
Mn 7.4419144981552785 5.394244122188597 6.518630158634517
Mn 4.229832698067834 6.28385075339093 9.52006355873838
Mn 3.393455199268401 6.752299790397917 7.019718514017766
Mn 3.551610983647498 4.453533971505243 5.827110416531152
Mn 6.885716195284188 5.916101363783779 3.803484745800409
Mn 4.514025624092258 2.5510535715810043 7.25213893664846
Mn 6.052959215891924 8.334952049055337 3.9390002891623577
Mn 9.53718782586868 5.054551351903666 7.504091763492245
Mn 8.11790635967212 7.260498658329105 8.238771478539107
Mn 8.524036484729718 9.526700034985824 6.020948762861377
