26
Energy = -195.86503503 eV
Mn 1.180676822778009 3.684932075923446 2.635909065737043
Mn 4.49888752279202 0.957264766987188 4.732202043837145
Mn 7.053427969236992 4.308177724695683 3.9914996784600074
Mn 3.426966757041757 6.807729560259678 4.105355722624616
Mn 3.5496252974207088 3.1279604467487125 5.094015995241033
Mn 4.503692490461682 3.1383907609683104 7.406216049320575
Mn 8.566259415039285 3.421009547120538 5.4764261655264646
Mn 1.8070374210471438 3.9617184915648425 6.828708406110562
Mn 9.06725614715341 4.783992734765824 3.1362386879328477
Mn 3.067521169144324 1.8547576369916228 2.553409186588854
Mn 1.9140928279002156 4.898139699315823 4.561889097885898
Mn 3.4494331614727898 4.426221466011145 2.600111856740404
Mn 1.5676309418919003 2.1012769439510506 4.773652437234275
Mn 4.874307876878641 5.122288011602394 4.283964857820233
Mn 1.6478226708038257 6.3291185782106485 2.5512775903554763
Mn 3.782680986397594 5.217512418279242 6.274953426279316
Mn 4.928868080310886 7.324889149978011 5.939866391210731
Mn 2.0241949891688398 6.833660234367093 6.125840225226854
Mn 7.350010080644496 1.9926621177127921 3.4868610805873375
Mn 6.1224418288684435 4.546239642208911 1.8683485867331178
Mn 6.479507846083817 5.107588576915832 6.349604384984172
Mn 5.900382248542841 2.8722216316048823 5.51232120725967
Mn 5.089609482436795 2.8227338322877937 3.2343724334476516
Mn 4.519664296153084 5.968319441923618 8.2816129168462
Mn 6.504061997539066 6.65071271936926 3.6242993647726838
Mn 4.336441584933468 6.530033239170474 1.9092139943761703
