24
Energy = -180.89866704 eV
Mn 6.186387496702771 2.8984711559123957 7.535478066505666
Mn 7.133883823067222 5.51838343693328 8.03837478518077
Mn 4.852541270742572 4.944742512573936 7.329179132175215
Mn 3.480098917449099 2.7831511999408316 6.8838877722852985
Mn 4.754750029471545 7.176512965775288 7.966499579676915
Mn 6.462714539693852 4.422771587534852 5.7528425039720625
Mn 8.588124968232092 5.704665458041951 5.647444054203738
Mn 5.36576701918798 2.1807189917435714 5.35467601717347
Mn 6.531393649430744 6.825282149335319 6.090342243886383
Mn 7.687129735861009 2.8105441967560734 4.545671343117036
Mn 3.8847085617192936 4.235556303553681 5.030788953336316
Mn 2.5584126671623326 5.257199137763308 6.974800816345422
Mn 5.41259233471513 5.9322149412776435 4.079343664062465
Mn 1.5916586777498605 4.025007604155948 4.8655076370809915
Mn 7.634313731253381 5.142991308036453 3.552551803129642
Mn 3.455116128398811 2.339913606460204 3.8080183408641823
Mn 3.9869330529059197 6.734626507814579 5.793846702411851
Mn 2.2111471505680336 6.418395874005741 4.421245422265583
Mn 5.529254383207471 3.6837036175218745 3.2401550352413993
Mn 7.141360261124523 7.629303184798726 3.825939778391448
Mn 5.279929632805875 8.730729978787503 5.605398960217193
Mn 3.365357764662018 5.006900088293319 2.7867383929454395
Mn 4.254204348536871 7.678591294995176 3.36267854289397
Mn 5.980163683785987 5.7803555982771 1.8117600110825836
