20
Energy = -142.02506692 eV
Mn 7.213529075403313 5.304110370270295 10.688901625326688
Mn 6.466043487889324 4.369561224987441 8.241636382485316
Mn 5.5486127010535204 2.488062726074876 6.472674377757481
Mn 5.175859188212232 4.874713121027405 6.3876586249965355
Mn 3.7511600512729344 5.489760412405068 4.29335597478721
Mn 6.212212430601596 4.572152570005313 2.46318079625902
Mn 4.9972330717911575 7.036529084735512 2.798104790414325
Mn 6.1093917781366045 5.960578215004724 4.492444738306332
Mn 7.420955387218736 6.274879186103543 6.415188062700761
Mn 4.773246763447856 7.1565747647547076 5.9513057391912545
Mn 6.857711082227828 8.521469185509341 5.4551182796836715
Mn 7.701655677534098 8.419034478277997 7.807678250596651
Mn 6.884351274189827 10.599778529071425 7.322619485620548
Mn 7.662138549079166 10.042022992945723 9.67073452456427
Mn 8.557502081916379 7.677491032310344 10.335877524916324
Mn 7.0901541273002655 6.684430548810042 8.885582243566178
Mn 3.127175791704422 3.3602785603842995 5.5253803862281154
Mn 5.245903509937951 3.694925755596218 4.399526831363521
Mn 4.522340416450789 1.4380514531312238 4.234864760274544
Mn 3.472520275871461 3.4130756636344484 2.8596626476354934
