26
Energy = -185.60554774 eV
Mn 8.680192408533534 6.511273757514468 3.3051432213520076
Mn 11.056933825506237 6.593309143707217 3.436442007964961
Mn 7.107727165124099 5.486693365178315 5.480424684000664
Mn 6.152649656111226 6.146219226149699 3.5252168540338564
Mn 4.385184462628646 4.66569965411181 1.8823701184636
Mn 4.733388846029316 4.9161411995849935 4.876846900118549
Mn 4.8084497109257835 5.02953755120796 7.193926851208536
Mn 3.868707546486203 2.8823773350099695 6.229668651614466
Mn 6.143136623561892 3.4523014614984966 3.601436557019047
Mn 1.5997561752657372 2.7745205440833116 5.60283330384452
Mn 1.1250380117564713 1.2431574056344383 4.052319407920342
Mn 12.001085393632872 2.0497423088687836 6.5847880131399465
Mn 11.056933825506237 1.4403251056230881 4.120036984814339
Mn 12.341348257604484 1.4241346345958075 1.8379918375461828
Mn 2.1932124704113596 2.450206617930874 2.455334223502673
Mn 1.2818552529107996 3.6397001395386344 0.5821555463422949
Mn 3.798841153132253 2.162687529850759 0.6360597653006492
Mn 6.321443115315831 2.977420107553131 0.6926392784784487
Mn 8.463471461583149 4.350290782527768 11.829123325933844
Mn 7.188512059146265 5.043051633525744 1.6579673297955302
Mn 9.270494721940068 6.343574320625134 0.9706904100087621
Mn 1.5898570900489069 3.964914592671644 7.591278128785271
Mn 3.403054067343358 3.0397835039990126 3.8836946075243812
Mn 2.462130792644522 5.044088958620064 5.277114077316931
Mn 0.4349765063038146 3.573439297964355 3.644223394131336
Mn 4.589504401008291 7.072472769476851 5.346890761936823
