30
Energy = -218.59556693 eV
Mn 2.480038779227876 6.9719045840351965 0.05048527256977238
Mn 8.14244435493252 4.1358502949774385 1.8158984349426144
Mn 3.8725567460724193 8.4238795258064 5.359984663989438
Mn 4.507046528302125 4.160460360682041 6.842637684688246
Mn 0.8383903855095645 8.07580082347806 1.7970243482890387
Mn 5.8538539142165655 2.839305539008725 8.421698957182548
Mn 6.5317446299947415 5.955484443204997 1.3806676545701766
Mn 1.4286377679511761 4.290331380993411 0.1015210750160244
Mn 3.0265332674681478 8.753225029422518 3.0274371233291424
Mn 4.028664548050528 1.6176685515209743 7.313462088340683
Mn 9.655384845703152 6.470114803546076 0.050417498791662706
Mn 7.298999801962063 5.75650780196253 3.658858741913222
Mn 5.345999495253556 5.243331606374163 4.6654141045938164
Mn 3.053626453470635 5.258343507940454 8.329984861078234
Mn 0.7835512104882759 5.702603714260061 2.1252542285603333
Mn 7.3815946223662054 4.422570585463591 9.353733750717286
Mn 1.0302162945809727 5.797951579618858 8.139264737797705
Mn 6.050081307209461 3.355905213816082 3.0689666432584684
Mn 6.294398559363904 7.2987223444139415 5.523309021089814
Mn 3.429877922241921 6.318598354487089 4.683910832285005
Mn 1.278540896205729 7.297213048998444 4.346245907258166
Mn 2.052537628675967 3.3048635198392438 7.416232254291308
Mn 5.029998831383646 5.727735363619516 9.284200816111511
Mn 6.995557920255383 2.0777478148953885 0.7083074913988041
Mn 3.754521005402742 3.2168363411600756 9.298797450963605
Mn 5.291280325073264 7.558301164925031 3.1825470904078164
Mn 4.666111934693948 5.361385580292533 2.4666386410804244
Mn 2.8451530305339423 6.549757403021632 2.4179812658048054
Mn 5.4584176448608765 3.8058467127448097 0.7998992503901516
Mn 4.650651963879921 6.227677756850776 6.842637684688245
