30
Energy = -227.46682629 eV
Mn 1.487383892457791 5.381657461782863 6.004443445755821
Mn 7.090686107946968 4.603034573008295 9.223891963765038
Mn 6.2857350258035165 2.734689311405044 7.541771402876536
Mn 4.743199294614128 1.9948924159596428 5.184064019076206
Mn 4.596541910326936 4.2207642232439175 4.005089499893617
Mn 6.182951905783942 2.8103517517084744 2.9747701571184635
Mn 6.931278759046636 5.254436475162548 2.7791833287767744
Mn 8.83689702510675 4.776357091228991 4.435961676458877
Mn 6.696142995850114 3.8904027876760776 5.177589144692638
Mn 8.203718185097566 4.223379050424023 7.0717912376495295
Mn 3.2196568330558817 5.8104332817474305 7.873167500332807
Mn 2.251479984846958 5.22052641837697 3.421495626362286
Mn 4.55214731184205 3.9631418344462874 9.039383775801895
Mn 4.445987754422122 3.8064509988065343 6.588479722649915
Mn 2.449875765758644 3.341756670922708 5.035406451899251
Mn 3.6610508910881085 5.826748498225444 5.502024778795192
Mn 4.456422921657927 5.334060808441159 1.9592249597833336
Mn 5.819990207181962 6.373209958994887 4.489558022897032
Mn 8.072512749515766 7.39071313090228 3.654528294820933
Mn 7.646295788539529 6.844584847143646 8.162081612986544
Mn 5.296657596150093 6.296275248041052 9.317887472574009
Mn 5.7455979425939 5.548269438478187 7.136227796987537
Mn 5.938823729836828 7.485564284806282 2.1280304194199005
Mn 3.7565928591291207 7.417105418300795 3.6876144311927495
Mn 5.910507106005358 8.664261205875063 4.331862788814758
Mn 7.646549933478717 8.517169999642782 6.0864417748215045
Mn 7.680646768253187 6.199851887441259 5.877182217211058
Mn 2.434559957029508 3.266244484593934 7.583091943051127
Mn 3.3610919260091245 2.795068238563185 2.750375205582958
Mn 5.0601191377643255 7.718569019849781 6.684743347976019
