30
Energy = -227.78437175 eV
Mn 4.527141259425025 0.896985455855472 3.2914519155556783
Mn 6.486710623979832 3.8928867595218777 1.140272628742668
Mn 2.245960506581273 4.665017851662181 2.8050407351098143
Mn 5.657777567802034 6.462938948447382 4.627897019311539
Mn 4.768420000135218 5.74373007871414 6.826099234693408
Mn 6.000993156917653 3.7231177466456833 7.679330771462427
Mn 7.2100504970007275 5.12097043832474 3.270144848005155
Mn 6.6973893157725435 6.140657821167746 8.319380104220237
Mn 4.817830718474263 4.936620824438716 2.977739253448469
Mn 2.9353829725267593 1.2158847814982698 5.41086974749067
Mn 4.282454826371077 2.9514501301237797 1.8003776695385445
Mn 5.476658753742128 1.757292625066659 5.738505513946282
Mn 6.237608677122491 2.67529939097641 3.3074488498584746
Mn 4.990575477499484 2.045904853452038 8.60246438819988
Mn 4.398454412753655 7.417103978066888 8.321554926850203
Mn 3.7202360727750436 7.654547828691969 5.711494063488274
Mn 3.7679826956251814 3.1252003420580827 4.1988024507017
Mn 4.626661748522975 4.608554327410188 8.321554926850203
Mn 7.568977368981152 5.422109205709453 6.05960615628782
Mn 2.4272486490908185 5.533320936607491 7.219507077572692
Mn 3.0744035489026182 6.2197252982223885 0.8585534843226853
Mn 2.515528666559835 3.6731706763500473 0.5149367653272787
Mn 5.752811076800828 4.167180694947191 5.2053142252884665
Mn 3.6722463361057316 6.95805253186702 3.11941540483283
Mn 3.301682336561941 5.309935829355735 4.9651455150844965
Mn 6.2321142568290275 7.858326881980651 6.544031163534308
Mn 2.171713067615713 2.016877109948445 2.846385744561486
Mn 5.688847209801063 6.419194774590889 1.3635923430119752
Mn 3.811154849955472 3.454622023573805 6.5663637499880405
Mn 1.6050654639788111 3.570740726032109 5.2066386382308165
