5
Energy = -30.59297085 eV
Mn 8.029890687219241 2.9169943298022316 8.568972636926622
Mn 6.245792849928921 5.082060704051092 7.252421537922741
Mn 6.549687161958968 6.479175518862673 4.723346633371916
Mn 4.511014337715039 4.765124464095315 5.13448598211953
Mn 4.681665523117922 7.010549561179133 6.50411108602959
