5
Energy = -32.50250746 eV
Mn 6.840354149839332 6.614404264243982 7.5705879584729985
Mn 7.1670810193521755 9.214145578415694 7.650043652974011
Mn 9.543686423176256 9.666012287363369 8.6551438119605
Mn 8.049442325915278 7.737741293786102 9.607077244964671
Mn 9.093866223307158 7.630242435885598 7.308065716440679
