5
Energy = -31.06119916 eV
Mn 5.6639609720011075 3.4111967315779737 4.00652237017543
Mn 5.086293831334868 5.123051697250207 5.91801234349079
Mn 6.40447813878418 5.430736667580882 4.3981668983764175
Mn 3.652717407224747 5.156856172703792 7.685558375522497
Mn 4.584257606196543 6.462414433471205 3.73004518370375
