5
Energy = -29.49782027 eV
Mn 6.9699770529426495 6.5913098858234465 5.955692572873466
Mn 5.05823150256287 4.841439007745486 8.425862808329937
Mn 4.767145175369025 4.9794339913426535 5.337659149332929
Mn 4.758152232730418 3.669226077136187 1.7715244525361473
Mn 3.464281853897681 4.940082891368305 3.495179186035642
