5
Energy = -31.10626064 eV
Mn 4.756198629741999 5.2064447059218555 7.023439456328647
Mn 7.251230940999131 5.532719239012257 3.7025468719386794
Mn 5.829770762303744 4.6028014317003585 5.081226535660354
Mn 6.506170219989057 6.760408294079736 5.772247927820908
Mn 5.428934564181796 7.546669329705099 8.050724567995124
