55
Energy = -434.67032771 eV
Mn 2.2487042232814 4.108051346763041 8.3334141744587
Mn 3.7985523112387103 1.7849514263810315 4.692869166561308
Mn 2.3686730058852814 3.7949372567013637 5.56031256895543
Mn 3.8324201619336757 2.3199950957603623 7.278808282360504
Mn 1.7696975680445097 6.070825605756436 6.65459904652853
Mn 6.042835992593522 1.7714617032129918 8.582888256644416
Mn 3.800234674979324 3.8535129616078367 3.018992115246777
Mn 6.038577058491949 1.5162832772749504 5.983618155979691
Mn 4.725829036708403 3.9302549417329846 9.38544652709812
Mn 3.989994844261149 4.901788739922198 7.109987849288688
Mn 3.4876577729464224 6.064795274735588 9.366163411075542
Mn 4.845158339042926 3.817612958690924 5.217772142074326
Mn 6.063725025210742 2.254065260071178 3.4417550627047806
Mn 2.267313298457488 8.028326850328517 8.309104455020938
Mn 3.7696463233330024 6.0316096708626175 4.591547951728257
Mn 6.036967330486156 3.7909242870303537 7.235734615880323
Mn 2.481619780257809 8.30407636524252 5.550398556826249
Mn 3.997663013045606 7.177812948639178 7.143904116041425
Mn 6.074260711409855 3.9075676081139594 1.4884408286212203
Mn 8.313916782518504 1.7976564252149652 4.704577852063872
Mn 4.706277237282323 6.096986148578371 1.7846224876287793
Mn 8.219927929765468 2.3116757981913976 7.26293923065903
Mn 7.428422510410238 3.8459347251944123 9.40951019414084
Mn 6.335541061322824 6.105665860323611 10.481377827000456
Mn 6.063404507295417 4.91391159860199 3.5985287263734764
Mn 7.224741554894557 3.804404532372315 5.266459158761967
Mn 5.985665330550843 6.018491376170116 8.370889550026329
Mn 3.858134734983919 8.274065231765384 3.053547910687017
Mn 4.728124130587476 8.226330493888572 9.400052169129838
Mn 6.036478904507732 6.08491393229867 5.915987414895595
Mn 3.8813236645207745 9.772864906820313 7.289228185257794
Mn 4.917969965576023 8.231903427941937 5.2541476984061495
Mn 8.307109320417673 3.881838450790202 3.028602522781829
Mn 8.040601302895121 4.953159793208834 7.170157004766694
Mn 6.123614870970157 7.159756949881501 3.6224939672699255
Mn 3.858759792529309 10.36370984863499 4.701801032563076
Mn 6.038373752682938 8.287430995496974 7.274960587932021
Mn 7.428248691764835 6.097337574641664 1.757328479835399
Mn 9.69364672648197 3.889178456537777 5.563669435159253
Mn 8.839882019103149 6.070886278295474 9.368043909338224
Mn 9.84304163399961 3.9409462983274093 8.278944683497851
Mn 8.316639857247166 6.069962649138799 4.678089356920787
Mn 6.0486978741286626 8.243755869565831 1.5442604037397765
Mn 7.432437593269567 8.298246917556927 9.418064423693831
Mn 8.038194443651648 7.168978160927553 7.181731084115565
Mn 6.031401610860363 10.363901276842729 8.589546661209534
Mn 7.297497534711924 8.322960637165034 5.280982631613659
Mn 8.27408260589073 8.320957855726334 3.0017893101777
Mn 6.053356738226847 9.823987771856553 3.471127755150564
Mn 8.19436841094658 9.824477199679512 7.27025757093813
Mn 10.319539739202103 6.0632831903229505 6.920813621827029
Mn 9.861030862782307 8.200000297903188 8.275337168842762
Mn 6.009722048782838 10.53022248738158 5.987240798964215
Mn 8.289305205908942 10.355865333405607 4.721074422683045
Mn 9.719570299788806 8.254079392590429 5.554639200921435
