5
Energy = -31.53193698 eV
Mn 7.565456737926318 5.345252204228802 6.063783847786995
Mn 5.145106160348411 5.1699082264258065 6.022929986712908
Mn 4.397197369904762 3.2366352482369742 4.709571295304606
Mn 5.675138994792971 5.301001335506608 4.440621470790978
Mn 3.764315824089706 6.784919441230866 4.78659359254566
