5
Energy = -30.51745824 eV
Mn 7.218658858249859 3.694981976185881 5.274606821320352
Mn 5.769505523136173 5.591853364345864 4.85337674946415
Mn 4.9233442485582675 3.1718210959172755 4.66611450521418
Mn 3.623196515197774 6.02011014706243 6.314835558124724
Mn 3.5093965298142273 6.552875475908089 3.925252538872399
