5
Energy = -29.61237485 eV
Mn 5.16721324476425 6.9934223332510115 5.109266488563612
Mn 2.6199702481189515 6.656350304014136 5.33516301428421
Mn 6.887795948144516 3.112952012743807 6.5484997959476345
Mn 5.037786550575741 5.250423143985012 3.502707789535953
Mn 5.3468751626088284 3.045157120816 4.554585438275948
