5
Energy = -30.1768856 eV
Mn 4.735082142575509 5.178245824005897 3.606392477299452
Mn 5.935750945907004 6.658024047285893 5.242688812645435
Mn 3.6012518269830602 4.195405837712883 4.08671252149736
Mn 6.032456763425197 5.711930194960116 6.496175175378231
Mn 4.946375214161977 3.6442854369164017 5.92443694020354
