5
Energy = -30.17404718 eV
Mn 8.594857072809042 3.5474153520633123 4.485929485812336
Mn 5.865927935706302 5.007834110031575 4.793917273195888
Mn 4.536171579466138 6.430181954788323 5.916902404394531
Mn 3.8452491004612295 4.618240603650127 4.0793007951132925
Mn 2.231769059013143 5.449089497891253 5.784270850288992
