5
Energy = -31.22149207 eV
Mn 2.686830131436269 2.940759555093621 3.8280243508645597
Mn 3.664796552590487 5.129427145913095 4.152957627187524
Mn 5.0246048835971155 4.229009836418496 5.820284469234473
Mn 5.627502891080486 6.475013184591114 4.5698901744079174
Mn 7.321760898825135 5.253904684418202 6.120963040028448
