5
Energy = -30.13918631 eV
Mn 5.638177631491425 3.556736531713485 5.713958586560755
Mn 7.732067885502198 4.885149350462679 2.354656609561815
Mn 5.579483736218943 5.01348434349162 3.7741743779930492
Mn 3.9229246679473406 5.367260014860639 5.790313756436437
Mn 2.1353346103374213 6.173965215053051 7.372367089575577
