5
Energy = -32.62069349
Mn 7.351766455963988 9.036530465699144 8.220330347218919
Mn 8.064776875039207 6.35303108329412 7.189122606184785
Mn 6.835232920616962 7.280921661280744 7.819412551944559
Mn 7.351766455963989 8.055558220923643 6.684608718505765
Mn 8.479129540000265 7.35663081638676 8.169198023730383
