6
Energy = -37.91899833 eV
Mn 5.126714830221009 5.003682292215345 4.993118856919174
Mn 6.460224894739456 6.468919161576586 6.207624235131144
Mn 10.691189324369152 8.161461379466544 7.553672444985532
Mn 8.42702414788644 7.52802662163176 7.063859003557903
Mn 4.055811716479793 6.870255111325987 6.556817466520512
Mn 6.114783582730607 8.235431634745336 7.694879799271861
