6
Energy = -37.98310886 eV
Mn 4.990128654568083 5.001844698235852 5.007968774135147
Mn 3.911819527575393 4.3020968999575455 2.6953473732241573
Mn 0.6760744565103458 4.83953058597667 5.059434849887503
Mn 1.594349549611024 4.639723128021388 7.661389191637405
Mn 2.8493670499574835 4.872006704217989 5.750423999601391
Mn 4.282806676203181 4.768088502068666 7.554172236149895
