6
Energy = -36.99457433 eV
Mn 5.018196924113975 5.001989932831395 5.006042848841532
Mn 4.879201558371712 3.744052765596316 2.8505396800273792
Mn 2.6631129951346884 4.393451927569535 4.359615591700704
Mn 2.6085644350121346 3.6151556807443193 2.047461273901651
Mn 3.3745549964685204 6.824981769903533 4.971875811739986
Mn 4.326554591254821 5.00309618489501 0.887397942775597
