6
Energy = -39.89325628 eV
Mn 7.610198796277298 7.820167946662422 5.813484654740557
Mn 5.818056967391034 6.338801956249502 4.735278174017829
Mn 7.7681425788821565 7.2303389534831135 8.325602365876888
Mn 4.822698688113307 4.7922052084864575 6.557942719410488
Mn 7.321511520530594 5.478102918663071 6.469309011165446
Mn 5.544467347013683 7.244079899776873 6.995704172009303
