6
Energy = -40.01939472 eV
Mn 4.411821081230806 5.320411892341923 5.553250475161043
Mn 4.4234323163283085 4.2358337964181025 7.734065769098654
Mn 5.133514312721361 6.828616525631441 7.551519369157218
Mn 2.9248050355827098 5.881120832185613 7.974490278974659
Mn 3.0346723518645238 7.437923372075183 6.116031344783313
Mn 2.0793578516667917 4.907553199785862 6.13642551355757
