6
Energy = -39.55285788 eV
Mn 4.582666397565488 3.584403390978729 4.608267421307659
Mn 2.3493604673525854 5.097212931307303 5.270754943974157
Mn 2.6020858756931173 6.890102512127867 3.3999853175677925
Mn 4.556550454267452 6.085117274089343 4.617817853601762
Mn 2.312871749708264 2.704017628091185 4.761418531475962
Mn 2.9133950330740848 4.505372674361402 2.9885559056424262
