6
Energy = -39.89937919 eV
Mn 8.274867270768686 7.161836526301541 6.6659344773412395
Mn 7.017195795062345 5.518199856150853 7.734527849408405
Mn 7.0938375061932115 5.3787947335630255 5.20577092336672
Mn 5.062106366140625 6.110481904184263 6.632226030494971
Mn 6.31209738861145 7.760516636324567 5.568830556654431
Mn 6.229597345306923 7.918581967442144 8.121733124508212
