6
Energy = -39.39597322 eV
Mn 6.948513123260224 7.543985899297674 6.8412377016797485
Mn 7.872851747962479 5.403231622093974 5.7033030895362264
Mn 5.7402120763083015 3.9506191239538175 4.916139704925192
Mn 5.646088513290611 6.331824788789468 5.133216424639667
Mn 5.635654590666262 5.456719590165829 6.769691117099633
Mn 4.183698707618789 7.409936395850556 6.756320099968732
