6
Energy = -39.08647647 eV
Mn 5.445946149555775 5.430626898856353 5.656782051923249
Mn 3.3252843013156377 5.025549574017334 7.216777905499559
Mn 4.097999815278571 5.291327889109622 9.77165515692149
Mn 6.78393727052359 5.955512333738372 9.746411458449469
Mn 5.440011251340722 5.552895740008816 7.9590063370123145
Mn 7.548854691807701 6.042587636908707 7.172569062393762
