7
Energy = -43.48073626 eV
Mn 8.71019692130139 6.334610510275661 6.452277689937107
Mn 6.563812984434405 5.302312047376272 5.49228051290082
Mn 5.515083219657061 3.3059419207195204 4.512762950017568
Mn 4.339693865264313 5.385032242035296 2.8923762324277376
Mn 3.7690701072929205 3.6113530952277633 4.489819292583561
Mn 3.099255312207225 5.064769180759004 6.658006866143001
Mn 3.0094841071737988 6.002356219555749 4.507171570035226
