7
Energy = -44.07846545 eV
Mn 7.682606703602941 7.166573558661144 6.888312987653605
Mn 6.723887595835838 10.559215024191444 10.253138481716727
Mn 6.772050771223049 8.799816981726565 8.536688504224259
Mn 7.365371787926935 9.506228514389278 6.154956019752383
Mn 6.930457290714525 11.269230413724001 7.873573213685509
Mn 6.699898923396297 10.873432497942456 12.776936311544478
Mn 8.39278302791753 4.8087689212345985 6.1987666701076956
