7
Energy = -45.01710871 eV
Mn 5.7725355646012595 4.177523983258971 10.872730512615208
Mn 5.6903242201126245 3.263135868357191 8.332650598442841
Mn 6.106460683155154 5.620579118447668 9.00973991506766
Mn 6.411554294634722 5.46082893661442 6.745090845531109
Mn 6.172536343092086 7.809417330090467 8.010098226571266
Mn 6.551703194673287 7.525819092925708 5.336304441573916
Mn 6.345078960333374 5.0883644014623215 4.231983419216522
