7
Energy = -44.75004685 eV
Mn 6.384907494084127 5.362681473553818 2.880687996384501
Mn 4.07385927097963 4.649283077177812 3.2668795994759026
Mn 4.039252992827181 2.3878028395721045 4.217932152638464
Mn 6.019371507508145 3.743553095781386 4.681281289061776
Mn 4.3320594623122 6.39062406961269 5.342874340380739
Mn 5.668719923821318 5.063290759484695 7.073768723033561
Mn 4.523503199138298 7.440352286226624 7.566815155707083
