7
Energy = -47.45220135 eV
Mn 4.9579987455258925 5.563681606556986 6.05978252280104
Mn 7.30549477572754 6.410229826189117 6.555466381055346
Mn 7.566745865141203 7.277626639499865 8.940593150795577
Mn 3.483673582881228 6.869983324380152 7.757883706360497
Mn 5.140112043520257 7.940970389556606 9.605541154303403
Mn 5.702675738009213 7.99009071650119 7.098653827139803
Mn 5.628328949241745 5.868080096012641 8.394682045088997
