7
Energy = -45.18382408 eV
Mn 5.213860473992494 7.323534961737166 2.9174710910897166
Mn 5.9725212110796155 6.896197117290894 5.4403701143767
Mn 7.014995393501305 4.42366351558833 6.0184774157669745
Mn 4.411551452541339 4.803445541258229 4.094829492198207
Mn 3.390085050841805 5.684560116448222 6.114449822240324
Mn 4.5563286510628265 3.557526476900471 6.300609331615866
Mn 4.511805733889697 2.3853457625585928 4.172453251884151
