7
Energy = -45.48565454 eV
Mn 5.5272427164831095 5.3586100038187325 4.8251621000606555
Mn 4.729821869669823 2.8740687937202334 4.32601288512502
Mn 3.1753144824304687 2.721608045571165 2.118506764037714
Mn 2.3405029670379722 2.861045136350071 4.8251621000606555
Mn 3.373911158754497 4.764663699367666 0.6716631305887175
Mn 3.20065217297246 6.769237672254156 2.143217793370652
Mn 4.089701594283371 4.8430298913702385 3.075620005662834
