7
Energy = -44.43632295 eV
Mn 4.512871924884974 0.7493695629650774 5.103471149176367
Mn 5.235851332923858 3.068516237389111 5.6226328394380625
Mn 4.256581453362592 5.15026311145257 6.441658086627065
Mn 8.106939742925059 7.292587712639847 5.9480199376964515
Mn 6.611251326359354 5.310303092147375 6.048529610317487
Mn 6.81868851175241 9.623310275900327 6.270580008891844
Mn 5.6002418187779055 7.499032662790151 6.38793288225648
