7
Energy = -43.22132705 eV
Mn 7.1825557869030945 4.422212155392723 5.882963708217343
Mn 6.28720903021041 6.618102781265094 4.7532121577983295
Mn 5.914481594059863 2.1767103829476873 5.461698342769315
Mn 4.064425228449368 8.154807139216128 6.3552478228236335
Mn 4.147424151375569 4.971323124328881 3.410601493804131
Mn 3.4776390180201173 6.146874189590866 5.4370642345409514
Mn 3.97414283525918 2.550983626753019 3.743724637809211
