7
Energy = -46.81713159 eV
Mn 7.653134104866968 5.933866549186726 3.8985188712371768
Mn 5.835311394529212 6.975547831286464 5.433630637424328
Mn 5.019279230187517 5.526688533819403 3.383087259534281
Mn 6.32273133797019 4.400147930978531 5.304750500877923
Mn 5.339564536733379 5.395434919953879 7.421921910656913
Mn 4.20208846877894 5.191992060994585 5.6031909508385525
Mn 4.220477190309999 3.2269908197051884 4.344631005475912
