7
Energy = -46.80698693 eV
Mn 8.154028058291088 7.530960380148363 6.422644296200052
Mn 8.190371522706249 8.996926125688397 10.389795415671909
Mn 9.025447174929992 7.091507504085233 8.909844801206987
Mn 9.129310210711713 9.455331846170788 8.062601691951462
Mn 10.710263342629396 8.783524303244594 10.004992809667458
Mn 6.682397980153301 8.17666420210882 8.487130193825932
Mn 7.196667104475983 9.844725458657802 6.767130123620722
