7
Energy = -44.73138163 eV
Mn 6.899361171602953 4.478387615738372 2.6896521643981317
Mn 6.012589201739961 6.603583689424444 3.423400798823568
Mn 5.743294166722629 4.526951187958404 4.901412807661068
Mn 5.854331329656021 4.759589875381088 6.590665158227529
Mn 2.9799776486157388 5.5187777342585465 4.579106551532471
Mn 3.904504529257546 3.4873279694293813 5.816968810995375
Mn 3.6812862662343555 5.710952158313502 7.071050441795046
