7
Energy = -43.90957053 eV
Mn 7.297044869250322 3.3535708677819853 5.7575870823037425
Mn 5.65079804920973 5.172361622306916 6.475554082654271
Mn 5.03345905115656 6.806472337869555 4.662934581057821
Mn 5.779592340776609 4.399290026017813 3.944737503847137
Mn 3.286977712243486 6.790080144348033 6.61398109913476
Mn 6.035073132969797 3.6076512418186715 1.8889572688817
Mn 1.9296961344689953 4.879825511978491 5.682081892129764
