7
Energy = -43.67532788 eV
Mn 6.715041473580813 5.254869137418937 2.3601760737035784
Mn 5.7771973882494265 5.920621586334512 4.437772742255809
Mn 5.695099386091028 3.4810477335284005 4.112885405245675
Mn 4.620875378456775 3.9108957502260484 6.072341993932168
Mn 4.452533642690413 6.378568456797186 5.884775235061607
Mn 4.3343623618837395 5.157765005387352 8.05455651655341
Mn 3.447228939360318 4.940723758999743 4.11219192548669
