7
Energy = -47.22064642 eV
Mn 8.110805289737895 9.733279106908556 6.8553798291054795
Mn 9.121785164654959 8.678820125079623 9.173333570966443
Mn 6.854454710703534 8.149142725586755 8.300016896393366
Mn 6.520061243981098 7.974864553327557 5.810982040976386
Mn 8.112263797570462 6.311178089046921 9.473597499752573
Mn 6.482069315228053 5.862786124696545 7.422519385458148
Mn 8.76799326545557 7.1445532103442675 7.011572465861872
