7
Energy = -45.09946144 eV
Mn 7.5917872309191 6.924411101434737 3.5200884977300713
Mn 8.088432352289434 4.574900667773093 3.5168385891634033
Mn 7.345232957527914 5.54961522494237 5.683080484203745
Mn 5.685120778028732 7.064095402111933 9.713160747599346
Mn 5.254016311651716 8.594767957459556 7.639703580133817
Mn 6.550034975304817 6.519259608000363 7.50883210079449
Mn 6.411423007514784 7.950781824008331 5.402930986070352
