7
Energy = -45.88363234 eV
Mn 5.408210306146514 7.466962442017714 6.0598367188211935
Mn 3.370032963324862 6.48502949223371 4.80998448702537
Mn 4.4700229711847745 3.2699428147661695 4.113224123026989
Mn 6.810717204087255 3.2516618809144933 5.210316993656589
Mn 2.40703776140683 4.534028363815769 3.711465047796083
Mn 5.1396743757373535 5.148267862729237 5.096395857678308
Mn 7.239942582650557 5.597144414086741 6.28264270226733
