7
Energy = -47.57098785 eV
Mn 7.949162522800617 9.972040401818408 7.175772422533613
Mn 5.924486560937351 8.453057051777916 7.7661451943267075
Mn 9.957664041029721 8.720133120999513 7.871790714171011
Mn 8.08317067781438 7.554600809359038 6.906414861866929
Mn 7.949162522800616 8.54947722988337 9.175528805273453
Mn 7.005787676917295 6.500195306417378 8.677328076188552
Mn 9.38086443537245 6.500794517416467 8.77809148796752
