7
Energy = -46.29678741 eV
Mn 8.029790736221944 8.006187334646757 5.737855096180226
Mn 7.694913295005226 5.772836121519946 6.965761427165273
Mn 5.698133645235078 8.303044254960247 4.49000184085168
Mn 5.690033211022794 7.214816600936018 6.810886230636702
Mn 6.603342493452225 5.956498559188294 4.811016053470346
Mn 5.372920260953484 4.831212044926228 6.55271085884564
Mn 3.5321854649422137 3.2976512605002064 6.682872249595238
