8
Energy = -54.21305329 eV
Mn 8.011024621269563 6.3711600977084375 6.663447651388054
Mn 11.887612671957145 5.583867063381596 5.025049468367866
Mn 11.987114271524124 7.683519608830651 7.25565964539071
Mn 10.237611187316823 5.413264645182664 7.360798403147385
Mn 12.156969253369423 5.774740246092358 8.674272620299897
Mn 10.296557642308896 6.957352345645227 5.914310965486384
Mn 12.070080598773462 4.029430141968562 6.832132693381788
Mn 13.640836353456084 6.100693718386332 6.561016814983561
