8
Energy = -51.59004407 eV
Mn 5.1172481113442245 5.088905191119345 5.110460890095276
Mn 7.05547679516442 4.447680357637174 4.200727157457389
Mn 6.464287259207354 1.5141734536504952 1.3310754128782802
Mn 3.9064576252969356 1.3515336889751677 1.5338194221269161
Mn 7.443221207706427 3.0088779486798702 2.7648623805733967
Mn 2.400717347813591 2.7025334554550016 3.0315459767371555
Mn 5.0149487352493685 3.095429639528985 3.109282024985683
Mn 3.2667881186455396 4.263954066893329 4.445726252427486
