8
Energy = -54.29733975 eV
Mn 8.360511649740785 7.609418964155782 8.171719599265138
Mn 8.035639127703575 9.065365005916618 9.202911213439702
Mn 8.432047872002254 8.14321110019854 5.859145626944799
Mn 8.163014599439595 7.275081391203014 10.257714245485957
Mn 9.02200434100863 9.5800336980284 7.628048575222423
Mn 9.928788233186925 8.143211100198544 9.070295543327953
Mn 7.08914650658801 8.879264741891639 7.33989696116589
Mn 6.639884216984849 7.459453998407463 8.625307235148023
