8
Energy = -54.63421841 eV
Mn 9.653436959323825 6.527845785513326 7.975497709920796
Mn 9.080892684984255 7.509486307241311 5.622916774522619
Mn 7.490907673626412 6.156563653512522 6.896484328668438
Mn 7.312225552181686 6.897373069466095 9.21279063058808
Mn 5.278278159246541 6.643332415010458 7.637423408455297
Mn 8.245351815978083 8.555660337743952 7.713536911028994
Mn 6.537165690329709 8.226434916867003 6.027673130759781
Mn 5.944377196975193 8.984780670207705 8.452441943348466
