8
Energy = -50.70304461 eV
Mn 6.705373961694975 5.331174480336305 2.0976249255486903
Mn 6.908322391958275 2.9388244663680894 2.841125338254765
Mn 5.911234204143595 4.621207406433691 4.24065831233803
Mn 5.644312359704089 6.696156281206875 4.025183474280784
Mn 4.261653111065375 4.4326737332437105 8.54948711286309
Mn 3.653935106731422 7.485839622268311 5.102967437908031
Mn 3.5676217029756705 5.414508777031013 6.510796561429958
Mn 3.3358710849952993 3.0630434562920836 6.614014880490023
