8
Energy = -53.88753047 eV
Mn 5.016450565321813 5.002940933711449 4.959876371424896
Mn 5.893468616084457 8.539458785442118 3.3386196698049155
Mn 4.480342288563355 7.164849763418962 4.596874415287636
Mn 2.8113666409666296 5.943490530749029 3.552624767068975
Mn 6.430128095843888 7.213825146264315 5.918255206282192
Mn 7.506160450277688 9.183646303913951 5.026216368824815
Mn 3.1760760818369573 8.739359892803229 3.562489125183551
Mn 4.928905965567329 9.456360466616578 5.433927586336301
