8
Energy = -53.07063752 eV
Mn 6.656568563896831 7.698760864785794 5.899839792251055
Mn 5.53916677279159 5.882869168520191 7.623494305814458
Mn 6.810645423275909 5.188738110462514 5.341520915071001
Mn 8.953181164950383 4.040091774089728 6.029101433085298
Mn 4.581036660031709 7.071693567233928 9.816644797785983
Mn 6.430454709166649 8.212160918225026 8.469074146418526
Mn 8.12746927193878 6.246420904231122 7.46499735288859
Mn 8.92662813509964 6.6511195344879885 4.981052913884341
