8
Energy = -53.7359936 eV
Mn 5.36348746101765 6.424670085130976 7.065681235732724
Mn 7.256904653370745 5.550078428717728 5.84431243368413
Mn 2.9315559104266433 5.970322817789716 6.38252889777823
Mn 6.9602254547981675 4.285688497191854 3.9952337779691964
Mn 4.9165867665696465 3.7289884345414426 3.20162527292508
Mn 2.90029826481325 4.500894621420611 4.288506754549457
Mn 4.970958962571737 4.090225617010726 5.879417021663272
Mn 4.982586823240993 6.099980315284394 4.477929792910109
