8
Energy = -54.78479711 eV
Mn 9.65839096254094 5.2112637606298895 5.222506610148385
Mn 8.429472995389482 7.328502210891446 5.700516192742455
Mn 5.9226125116612565 6.8069919617466965 6.154374717924042
Mn 7.200884478926592 5.766950094977073 4.419371017979502
Mn 4.892612782824503 6.346936338204319 3.903604582530538
Mn 7.66667728745571 3.648617855905783 5.336275583754194
Mn 7.626964629802987 5.3477692039304365 7.028614895698383
Mn 5.284706233261977 4.531487454260463 5.814191175546416
