8
Energy = -54.37104851 eV
Mn 5.618275483953689 2.9896653460783287 4.533433225049726
Mn 3.559841057862138 2.7804013990887233 6.141390451578406
Mn 6.279780477929692 5.460946012921664 4.751423670020601
Mn 3.850353274953673 4.886445389321401 4.585433721602649
Mn 6.653333821301338 6.321269919509751 7.062746315427554
Mn 5.139099420130324 4.396559999123041 6.564255211367581
Mn 6.2659019239834155 7.905200191589291 5.029974661282061
Mn 4.3526440863089695 6.761419139210689 6.163407291144136
