8
Energy = -53.93575108 eV
Mn 7.1873546166909295 3.117328901436283 7.58495174832511
Mn 5.642830111383093 4.71425889805739 8.91542240297588
Mn 7.7864777528277305 5.621659239002228 7.881842656454917
Mn 5.669955256928213 4.866788701128158 6.3567862186583985
Mn 6.363998119116142 5.3168284541951145 3.6785457458462223
Mn 7.289315524576305 6.469674271262419 5.692829801960266
Mn 5.589292824331822 7.050137353007349 7.676213398655697
Mn 4.981646794473807 7.110079642950502 5.041410220016601
