8
Energy = -51.28251861 eV
Mn 7.417035502802435 5.687481940328707 3.438049157084254
Mn 5.137899718386536 6.884188370325872 4.472411128071951
Mn 5.143896310388791 4.716041586312673 2.949539657535947
Mn 7.271324816561751 6.549621920421976 5.97378509642517
Mn 2.3362590792449716 5.392781572918167 4.7226305023333754
Mn 3.866658483256629 3.5405898500249906 4.735461342391558
Mn 3.60565007980777 4.667887047416833 6.900276176705234
Mn 5.2757065897769735 2.608255031429494 6.851174391847873
