9
Energy = -62.55696638 eV
Mn 4.936907465195621 9.453047729466618 4.888520823146487
Mn 5.122587812276979 7.05785821953958 3.6542271460889317
Mn 7.462286403328466 5.918719721948454 3.8925374727230384
Mn 5.877093403732942 5.68546790195319 5.527945011439336
Mn 5.869745203725992 6.17030582530738 7.844506285884789
Mn 5.431196419877939 8.79456087188908 7.380294061238078
Mn 4.160452478051663 7.149196044120336 6.04990496624609
Mn 6.657494939643641 7.7451453711127005 5.676527884741821
Mn 8.025476726692407 5.78808416814313 6.4534782894949245
