9
Energy = -61.98783797 eV
Mn 11.61160686411198 10.078667645435793 9.397797970552977
Mn 9.187259240093217 9.918798917282574 9.090663799865688
Mn 7.605750708777442 8.34449030048158 9.983043892743217
Mn 8.063432807338005 8.768330356933818 7.338528374545579
Mn 6.011103557729599 7.779005064373995 8.00619641378461
Mn 6.713668118197149 10.339571812188584 8.530691002172535
Mn 10.249559532933187 7.851135774605695 9.98600048453431
Mn 8.687660640044113 6.785282832339026 8.218768081264056
Mn 10.511628104779948 8.639081794308309 7.558460265060193
