9
Energy = -62.37296705 eV
Mn 11.320761151767915 7.260850614213463 9.161860881352373
Mn 10.336731724304112 9.699646568069884 9.863013742046542
Mn 10.508308369645155 9.066501843924108 7.307451200000785
Mn 8.437893565542897 10.110518174854047 8.270195328509159
Mn 7.866931202415424 8.185418323741938 6.7779707055673475
Mn 9.055188398903391 7.77498091827396 8.89167340161583
Mn 7.619754295875242 9.071840528653006 10.3987333009028
Mn 6.795018724561005 7.048852925038802 8.910109113596878
Mn 6.105202859690518 9.483746222882562 8.260250394433946
