9
Energy = -61.91809897 eV
Mn 8.037310836341373 9.748355033771574 8.512339134178367
Mn 8.037310836341375 8.630938490443793 6.092715441005478
Mn 9.84905660101497 8.728705232747973 7.722119532983253
Mn 6.735521604836885 6.380715216190391 6.85739746335529
Mn 6.7303398414115225 8.292907024528612 10.22193606516124
Mn 9.450696643383083 6.4314165273146 6.830865500932599
Mn 8.092684457630213 7.457642319182669 8.479769766993975
Mn 6.258944427957491 8.652047524824187 7.765211318758337
Mn 9.473645566344883 8.34375507678125 10.182183961369672
