9
Energy = -62.24995727 eV
Mn 7.42580276795503 8.818205324852189 11.122045282411472
Mn 9.564356401217934 6.9778040258822305 6.348352345746316
Mn 9.951406979945899 8.641254619547263 10.704918076280599
Mn 6.084729963087611 8.746034800933066 8.934942375936583
Mn 7.833328411887512 8.529793023035612 7.235542885465102
Mn 9.740813174998053 9.708703265331375 6.156421682253965
Mn 8.402261350846915 9.956018698055162 9.051952085521128
Mn 10.070453080872085 8.46282146442996 8.271817681990784
Mn 8.24558594695186 7.301969694418192 9.233850382397765
