9
Energy = -61.91306326 eV
Mn 4.416326952453239 4.561336389450382 4.381354481584515
Mn 5.61496981681724 2.96451972602263 3.356578750037819
Mn 5.204730757247137 3.6271393259342033 6.575886503669127
Mn 4.696515443397203 6.072211983891208 5.921997335458615
Mn 3.24498989673305 4.29710593452733 2.4830347099344445
Mn 3.2944979820531257 2.989378723379012 5.066613824500993
Mn 3.638959623201124 5.392811641073836 7.8346329579375675
Mn 2.283448745545652 5.248759171160628 5.529497695323864
Mn 2.6297654975712184 3.2274159280948385 7.292388142647534
