9
Energy = -60.34436665 eV
Mn 2.0085546451298293 9.699578664697137 6.2584883487106975
Mn 2.3006782468959783 7.79321511597116 7.982250377377664
Mn 4.245774022668139 9.576887128100013 7.948173694310177
Mn 3.6459601096041787 8.286774137527777 6.08209847258458
Mn 5.018329708770665 6.46187232858141 5.1273255328038845
Mn 4.8560895254335295 6.929725871581663 7.720215822308094
Mn 6.027211845745194 8.658170143725297 6.1659702389440065
Mn 7.044063413361145 6.3845434659354625 6.589450978890557
Mn 8.526907516214683 5.294854705731904 7.868797863896634
