9
Energy = -60.83598039 eV
Mn 6.283714530485901 0.1276181083202775 3.893678749819401
Mn 6.097170017462893 4.498128335611597 3.9950275913657576
Mn 7.435049766290453 6.615850757948382 4.577967139975618
Mn 6.234973637653915 2.324146667195266 4.918730911813235
Mn 6.937407947734991 4.775997444748488 6.248696666846811
Mn 5.190131302562973 5.4479827421681115 7.963933356380556
Mn 4.951878477504786 6.339867742398585 5.480616608764182
Mn 4.747941741714687 3.785618205126191 6.064682778992365
Mn 6.901642535882008 7.138235200738976 7.037998040705305
