12
Energy = -102.40587239 eV
Mo 4.013038474967669 4.962572388363568 6.547679719209469
Mo 6.259949126338241 4.20098104464517 4.6473912475223695
Mo 4.052148694672385 6.023045279662857 3.6662637790085157
Mo 6.906651321747138 5.08195526509682 3.2461983020602845
Mo 7.967102741218852 6.9948736523855235 5.395381565310771
Mo 5.719683569072605 7.749196893985336 7.296548978242576
Mo 5.070938228621491 6.87541710171324 8.701113462758052
Mo 7.928095219977747 5.934344695601867 8.273529287316327
Mo 5.123897761610293 7.262190513085172 4.354000664583046
Mo 3.085245269404987 6.477063625850875 6.47296720887631
Mo 8.895560475592331 5.480337297481864 5.466565122886127
Mo 6.8570544855297495 4.693416183101152 7.587337493013814
