12
Energy = -102.13809697 eV
Mo 8.773291688418562 7.050082408271025 7.357014074484214
Mo 4.321344246677683 6.044599119456149 5.73763370861645
Mo 5.318155874881608 8.624254558564989 5.94100814515618
Mo 5.8219676924183235 4.2822369794576804 7.270391131579774
Mo 6.5898747683600645 4.9305346247235144 4.731321676777452
Mo 7.272706236536984 8.812417002721704 5.8243250404666504
Mo 7.776550348853675 4.47044976547751 7.153690929653739
Mo 8.712240707601353 6.464974890725508 5.462801068403555
Mo 6.724672563573674 6.240625024550739 8.95269766896952
Mo 6.504837154454184 8.16410890914471 8.363323256783673
Mo 4.382412324731642 6.6297246840846755 7.6319350504190435
Mo 6.370045058319409 6.854090697649428 4.141956763056247
