12
Energy = -102.17132286 eV
Mo 5.493421434737649 8.714193121537056 10.841265203320198
Mo 9.565301405702245 9.556261144129893 7.074815391039375
Mo 9.700318816044922 7.761047676021228 6.703986698353828
Mo 7.049715288335364 9.717567540122557 8.436431162201995
Mo 9.243442919801218 6.315319134524361 9.303559421808426
Mo 6.988483366641107 7.78198163875377 10.722559733593231
Mo 7.071714565217304 7.012363321208933 5.586949033378154
Mo 9.648649055571319 9.285051565016346 10.11114924954398
Mo 7.283026415324431 8.805601903218296 5.43884483163143
Mo 7.783833412120743 6.033914381084494 8.324674200234535
Mo 5.98411438165994 8.31359543478873 7.952039828069308
Mo 11.046781071398133 8.571487342124632 9.285404491832821
