18
Energy = -156.68172156 eV
Mo 4.252764937972751 3.0265194533899793 8.030968475056639
Mo 7.708657024638702 6.343827390654352 7.621867458182744
Mo 7.248046111201466 7.829829050363811 9.856632561450956
Mo 7.421977745021958 10.107187440694421 8.263821765375502
Mo 3.261130173931944 4.204124316693591 8.976279824493231
Mo 5.578720481627902 7.99131981216989 8.145336753529689
Mo 7.310899658916293 9.14923071415969 4.003943292522602
Mo 6.3029456034033595 7.3306235885050715 5.607070399767029
Mo 6.13567535709694 4.367024269397792 4.990396224758765
Mo 4.830047307290357 5.676495498800415 7.240126993601374
Mo 5.89155141938371 5.269073731289902 9.064648117758205
Mo 8.238881441505162 5.8299372784337935 5.257523397700614
Mo 9.619370714732362 7.593724980797568 4.110732174377849
Mo 6.802227963850547 3.737330368288284 6.678741828592169
Mo 6.364647193308091 10.040581926040893 6.701230055741756
Mo 7.588711013479791 7.381940263920332 2.9902734850948742
Mo 8.61466831328825 8.448934744738382 6.125164248920296
Mo 9.127251400143258 7.96713863393925 8.753672760454558
