10
Energy = -84.16093234 eV
Mo 8.418221552530872 5.976218822871811 6.579486216704637
Mo 6.887182648230322 3.5955360380856534 6.343399969300748
Mo 7.161210499228791 8.030414252869118 5.281561874833812
Mo 7.2516310553432275 5.867089669994423 4.623982909090289
Mo 6.902911985178846 7.410029328972313 7.489678152762934
Mo 6.600995638109104 4.44650052810975 8.026704346324586
Mo 4.63885660441347 6.2386457646537306 7.769396494795301
Mo 4.741884776058149 7.140770742075664 4.137526495835728
Mo 4.906977273511257 5.233061825873743 5.897496158215928
Mo 4.447294348455413 8.026086431890928 5.812917070203002
