12
Energy = -101.30557033 eV
Mo 4.053211359058327 7.576133646248243 5.850206619789917
Mo 6.830005296882887 8.714780320898003 6.927072764862284
Mo 5.345566899126633 6.973821181471955 7.807491133065606
Mo 4.194563299905096 5.116941811514952 5.794804677911152
Mo 4.887178688045312 5.510429457546609 3.4191128693957356
Mo 6.193653650924375 7.03256551574597 5.092336172408905
Mo 8.614088403989934 7.400537718309384 6.5638908049449505
Mo 5.715749621708753 3.4025737775531173 4.927963065647805
Mo 6.9015817569270705 4.743957233541445 3.570858674386718
Mo 7.755849909205047 6.609345508238631 8.382097484239884
Mo 6.972419177736263 5.090032522927121 6.405588571934766
Mo 5.25991004853844 4.51216415319868 7.882683901422768
