18
Energy = -156.99820447 eV
Mo 9.48594781478417 3.652381344367843 4.967668205649857
Mo 9.35220867182962 5.982652701231134 6.826179041147477
Mo 7.740630890601234 4.797601867849442 6.967490682074218
Mo 4.054436121782132 5.0772802737330895 8.973734324324253
Mo 7.551877149916009 7.698903893488176 7.474271437199661
Mo 6.597207948911581 6.184343155868153 9.0687236769873
Mo 6.705899531253364 4.252035415534068 4.344675876502041
Mo 9.56137379032294 5.152554877739987 3.9178567077388915
Mo 5.33712420569833 6.0153538490560345 6.49931859232012
Mo 2.947794445536202 5.975655489858808 7.790243277806361
Mo 6.928786817347281 5.17431001332682 2.656415518173016
Mo 7.444049959302315 6.816891406481014 4.915808067905892
Mo 4.967051353490093 7.72625424644684 8.363727302437097
Mo 7.117740240785136 8.936931289757824 9.879843312359988
Mo 5.242731286964684 6.61467622126907 4.096428885482614
Mo 3.689149032611948 8.01602208323927 5.6803241551304655
Mo 5.5720331000920265 8.729639620172359 5.9493509912681075
Mo 6.632466236810046 10.060356316618996 8.512549810292233
