15
Energy = -130.5286799 eV
Mo 6.607967243353666 6.498245728568828 6.5597031824182475
Mo 6.1059159077012675 7.212474703837382 9.151550122567008
Mo 6.19864515025887 7.291844824722288 3.907168770405488
Mo 7.059316775464527 4.517089127077742 8.237892947449645
Mo 6.508120442314426 5.31350057874643 4.002757347844527
Mo 8.53860111260013 8.383008871810926 7.277973176150621
Mo 4.4793987953039816 7.98609218626471 5.832126590570396
Mo 7.5766972259672745 3.9118027364936303 6.3542437748915646
Mo 4.677815950246726 4.481113791984935 7.344139186237904
Mo 9.309204519583947 5.6752510628176065 7.053792446006771
Mo 8.82572433925549 6.4031932687613535 5.170222133799724
Mo 4.067198001898976 6.641842405532747 7.942780451926938
Mo 4.375303054545648 5.683700965709755 5.35074017313406
Mo 5.825422186173364 8.822136553976385 7.91053260863966
Mo 7.636896654120078 8.970930552484305 5.69660444674632
