17
Energy = -148.15734058 eV
Mo 9.50590409028382 4.984523858716757 5.616692488848865
Mo 7.573333394233717 4.933711678420875 4.2493240163304185
Mo 6.868163753600918 7.299941541431483 2.767591504765548
Mo 6.236010296289901 8.830979841756724 3.47688552898238
Mo 5.939453903072762 6.805361802599755 5.463659721315346
Mo 6.872486134072686 8.09314279019977 8.036754224203012
Mo 5.167532401494333 9.527600628754339 6.2648061752770055
Mo 5.224698859837301 5.582104632617021 10.232257908467206
Mo 4.683448832308044 7.327949697155733 7.9326944734754585
Mo 8.097896308732418 3.694473732289729 6.629613320768245
Mo 7.232352760866374 6.2390360018280075 10.353815058555195
Mo 6.175675430691538 5.2897286587279035 7.89852485561302
Mo 8.023605260518504 7.326006245241311 5.46010356506026
Mo 8.348461342473243 6.032023825105236 7.897342691211359
Mo 5.931320632571322 4.106549370338466 5.528919147255305
Mo 7.028506266055278 9.915495448497742 6.104177864398758
Mo 5.527377276322088 8.017068939525346 10.16649453882248
