19
Energy = -166.94061049 eV
Mo 6.2357643585976055 10.281238231111894 5.26451309338024
Mo 8.09513766054957 5.918693561077826 4.544825189304486
Mo 5.214245834847377 5.392805977651921 9.641323115563331
Mo 3.868014392552397 6.787160773327742 7.7837775066443795
Mo 9.642453948870974 6.483567714543006 6.712264409128311
Mo 5.729341888528391 7.920359315217405 8.158771994980668
Mo 7.883750463181413 6.147397681559002 8.43967306571887
Mo 6.937258045802555 4.100835381786925 8.485300409464678
Mo 8.7140333643759 4.48506345155469 6.445466737572824
Mo 7.545353312027595 7.906402479923264 6.100704362304483
Mo 7.285430870890778 10.105373267383154 7.065831178783514
Mo 5.719568941768709 5.640231778713402 3.902359629658439
Mo 6.041912519884882 3.081118371286296 5.47992653159444
Mo 6.491890720252196 7.807914859652555 3.6924037360137505
Mo 4.720679973585337 7.658349628449679 5.361153666829598
Mo 6.015635026570061 5.682690435370501 6.484542174709243
Mo 4.405101121823236 4.299477059311694 7.940114939419791
Mo 7.314416671040574 3.2388171145264697 4.175717321071218
Mo 4.577354937780941 9.601865574362437 6.783133092733741
