10
Energy = -83.83951693 eV
Mo 6.691373042441217 6.853472885334186 11.34487231592666
Mo 6.480034138425087 8.607702658018393 11.009478248372078
Mo 7.625237618412953 9.760295679581322 8.397638623840013
Mo 7.409932491317665 7.2606743533077145 8.690192605676925
Mo 9.084415707246022 8.038231845836563 9.787779043904287
Mo 9.951198302511447 6.939570420233187 7.534642432549974
Mo 9.911850864272706 9.831965277273873 8.281726333892276
Mo 7.623938714864416 8.033929357328123 6.159270756509543
Mo 8.363801087877963 9.951484329841756 6.054728458689877
Mo 10.389107442525672 8.25134225649479 6.2121292675448005
