18
Energy = -157.60957871 eV
Mo 7.248395133884864 8.189908278023212 7.918284538254537
Mo 4.4824753521971035 6.453712511318349 5.289519799458817
Mo 4.987514383325157 9.632709053987176 7.385816315257057
Mo 9.80800117376954 7.853772982934509 8.309480362090083
Mo 7.364425477593416 6.33933168035009 9.804348110748487
Mo 5.740479256872398 5.1460335966389765 9.789852561797211
Mo 8.274287399654344 4.170819042867142 5.270342552182384
Mo 7.06115905646217 9.475055555854523 5.690935138952158
Mo 8.932598042768442 10.134024828778845 6.930560074868115
Mo 9.562494403807527 8.189496104530932 6.051636481777828
Mo 5.201583096689563 6.828382962900226 7.984459119230942
Mo 6.073171039013922 4.451613000591813 6.916067309028284
Mo 3.46900993027323 8.342882486721841 7.183891189781685
Mo 8.609240906173811 5.827498943234428 7.500990610353754
Mo 9.31376582634659 5.585177237882237 4.745672267767973
Mo 7.070050525379069 6.861723652160476 5.7265315632767955
Mo 7.285311459918033 3.6675090247543958 8.257223269748277
Mo 4.844513187141326 8.276912414976344 4.757518676829304
