17
Energy = -149.72622808 eV
Mo 4.835489998564175 5.652917704453422 5.06389962130734
Mo 6.633257712575628 4.115074639207743 5.4913242676807785
Mo 6.6942232644928525 6.439108902489383 3.929614101940862
Mo 4.66657861275926 4.563758429956423 7.622921697571369
Mo 3.755670376222463 7.247263151956209 7.5856414590665056
Mo 4.8360659642817545 8.474448200437719 5.146701709512501
Mo 6.330378646330497 4.449821088919239 8.491706095755884
Mo 8.472447514455649 4.79938105280264 4.421284574530037
Mo 4.802258729306221 7.032683947067434 9.105351334086654
Mo 6.598140381519585 9.081753836501889 4.838278382374188
Mo 6.425049020299848 6.763370836204737 6.719024489184016
Mo 6.253613328558493 9.150235986166232 7.857920642057519
Mo 8.618794082012256 5.2300973084880455 7.018016383325994
Mo 8.747124904945029 7.10773304708884 5.522544441495205
Mo 7.7978268190127915 6.913604241310451 9.06261663041538
Mo 8.110551549901352 9.066201476994868 7.208466451715551
Mo 9.692529761357251 7.103864321380034 8.163950656883554
