18
Energy = -158.28087214 eV
Mo 5.7801697183056024 6.55257810105869 8.115318783922548
Mo 9.146663162747092 4.343689239845852 6.794145058575058
Mo 6.458619683074898 4.939152946583906 6.113809283224765
Mo 5.062908137549173 7.1544273308098445 5.8269217149116335
Mo 10.100356352744704 7.110664667751995 6.174302655421145
Mo 4.4723099145884 9.03991066995346 7.971311176342658
Mo 7.8927047834136905 4.0712082143142325 8.181859021275436
Mo 4.554497064263278 4.991158903402474 4.0490089580151105
Mo 3.820949873908105 4.826679521434411 6.86964574064397
Mo 9.661780818709497 9.362733269325211 7.26161977076288
Mo 8.281805510826707 6.741435138906215 7.8088490557715815
Mo 7.493533768297595 8.818462209020511 8.728857748009457
Mo 3.291278096139591 7.628560855751389 7.8587243964788875
Mo 7.882354686349021 6.88857022330259 5.284150297444011
Mo 6.96800359151775 8.965701402350208 6.548122422566321
Mo 9.098978405041647 9.357959280345412 5.262902767351358
Mo 6.036378485536978 5.883648242475476 3.4567533372302592
Mo 4.825947024450904 4.103573337396378 8.292842698355972
