14
Energy = -120.74973422 eV
Mo 1.761620915724766 2.0302195929015756 6.942786027828811
Mo 3.6099970909000376 4.401264631758341 6.6790809491051775
Mo 7.269101356737178 6.751215349076697 3.5523366832844108
Mo 4.495529791346894 4.605040689111609 2.991199280316076
Mo 4.669560084342173 2.5604899458623174 6.350021458458813
Mo 5.063981137538199 2.4729988130698795 3.9003538278786083
Mo 5.2625679896090025 7.349809731462353 2.7169946750023635
Mo 0.9153487605939403 3.570345780345105 6.564405223549921
Mo 2.618395181949504 5.276690063954526 4.55998159491758
Mo 4.920837898446347 6.19929136520412 5.141195629172692
Mo 6.216498558998956 4.506159031098069 5.096754561542438
Mo 2.8204705060939173 2.93784104657718 4.441469066513558
Mo 7.350042911037525 4.591358619405472 2.7692080805886006
Mo 6.056136610407176 5.777364133898542 1.3243017355661408
