11
Energy = -93.60801297 eV
Mo 7.8618908422215386 8.373652221346962 7.3200249474264325
Mo 8.135488768765331 5.900800054604101 7.616546671449453
Mo 4.06427572836431 4.3305616640735405 6.785011037101744
Mo 4.861029798016553 6.675611191123929 5.520020166954034
Mo 6.806689560342992 4.886436849580542 5.964127094855363
Mo 6.979500989012406 8.709455288462687 5.099343750744065
Mo 8.727839228060658 7.092960515160793 5.49372773496158
Mo 5.365061906222318 3.6355725261196357 7.889697221898971
Mo 5.3897920247292825 8.440524155890323 6.985151219527906
Mo 5.848621475578961 6.301324074616644 7.983206437301052
Mo 6.744838485798858 6.4381302661341895 4.128172524892741
