19
Energy = -167.50176491 eV
Mo 4.899778386012789 7.98310946195215 3.3627167754563727
Mo 3.6867661142012222 3.4929412680548406 5.226363415983515
Mo 6.674265701957531 8.01154527442627 4.362025977239753
Mo 4.78274997369996 4.448062501135261 7.304795717095536
Mo 9.533708207436868 4.829758139421828 6.033806653545544
Mo 5.619691089868816 2.99611364054271 5.075616922254658
Mo 6.130273123870246 6.5801548156611895 6.699807873986393
Mo 7.213000965808187 5.3090420263809355 4.736149608521592
Mo 7.948967016325148 10.063067052824337 6.191835093181999
Mo 4.281322381722298 8.190201497838675 5.669426672988888
Mo 8.124141232742293 7.60026902033878 8.137490631332604
Mo 6.322940799358357 9.644590615560054 6.85668718508813
Mo 4.8050299427745005 5.662608853006851 4.6452184340297995
Mo 3.0156520971462535 6.3127201695724064 6.854821182987605
Mo 8.740233725526727 7.299486763211242 6.132687815264362
Mo 7.066734125263906 5.3484018049179864 8.902191186527078
Mo 4.172581903402 6.973433648352949 8.363560016299354
Mo 9.486194711876395 5.331460466151405 8.034656507943197
Mo 7.210073360621698 4.004755679804419 7.059131014201074
