12
Energy = -101.93475121 eV
Mo 10.60914640703331 6.7228821664227265 9.68941190051089
Mo 7.943933555678238 5.8200209767449005 10.026462432754792
Mo 10.6197130331693 6.752192254047189 7.599381768859709
Mo 7.740386013639166 5.746185078461403 7.289643614516862
Mo 7.066193572796276 10.291571252589184 8.039870989010927
Mo 9.173547604105512 4.647365805988822 8.814142119344488
Mo 8.719591968014761 8.081546684223712 6.852712149926431
Mo 9.165666089490909 8.501743548463518 9.135645387663253
Mo 6.116153420935337 7.655934914493619 5.708060806434639
Mo 6.765485252766879 9.281088112391462 5.2348919481209055
Mo 5.368260004019084 9.704808584780563 7.769703645805571
Mo 6.85364573200796 7.480661609625832 8.621065231425845
