16
Energy = -138.94462466 eV
Mo 4.866541363033846 6.927021947243333 9.364745918810153
Mo 6.241041720868431 7.519079309699369 5.778971959142886
Mo 3.021677514280591 6.131629761939321 4.343282289983716
Mo 8.081514272780245 3.4592391191287972 8.004368486483818
Mo 4.181074195676126 6.867354272133745 7.032426708190393
Mo 8.629308646447514 8.921042375933025 6.145261507543602
Mo 5.019660718994525 4.954512496747303 5.992906505566833
Mo 8.2348445037434 6.433169915938666 7.516562991099753
Mo 3.657058933706395 7.8392394313272895 4.422830464103655
Mo 6.113054730858335 5.307633250922573 8.347163042338968
Mo 6.608079116984976 8.040894834500286 8.177744917227383
Mo 6.829452776514101 2.8069092451619437 6.823808289604158
Mo 5.859347994844353 6.100147529778312 3.4242548641832897
Mo 9.135492920762232 9.155728817532736 7.882270331424967
Mo 7.647913293948251 6.657859918103283 3.4803742634295474
Mo 7.454459597672545 5.197734411556157 5.619441134957305
