11
Energy = -92.9376988 eV
Mo 7.996596273374625 9.164196124963594 9.49227175808651
Mo 7.219255191782136 7.9827904730394215 5.814175827798184
Mo 9.058087929926337 9.618691011372464 7.001120297321059
Mo 6.321844268349643 9.032333842388395 7.920688029470649
Mo 10.339551134495297 8.829930923802184 8.115781917974353
Mo 9.777529277352325 6.805957491052774 5.834665639712862
Mo 8.243718331066033 7.026821278771935 8.16539634367992
Mo 8.586810004204038 5.4463687728763155 5.767332144453855
Mo 6.259976409868859 7.330329154150488 10.196414403521674
Mo 4.616410763534303 7.566150427273172 9.115373315779248
Mo 6.262375475524751 6.3929394806635935 7.36344836454566
