12
Energy = -102.00694454 eV
Mo 5.390814972964901 7.012132214427239 3.2714742349183763
Mo 4.9392396242975325 5.604315958573719 4.2615248138825885
Mo 6.286602142788814 4.616668024503975 6.635599141520102
Mo 8.025826565354775 6.333101680596693 4.656119800051708
Mo 7.759141279368485 8.263540298053623 4.090972047310447
Mo 6.053393971990228 7.227693966616251 6.164833155301713
Mo 8.328093258432649 8.501141369876743 6.370667852244563
Mo 8.24809939750392 6.4181132743691895 7.453083315221098
Mo 4.677382567076852 5.389756814739527 7.53418179948739
Mo 6.799129445744058 5.04086629939456 9.31896204352688
Mo 6.764239779811995 7.738652847871947 8.569745001892676
Mo 5.333391713035243 6.254381933515073 9.905902487951588
