19
Energy = -167.41497723 eV
Mo 6.013373106718646 4.23449799161667 8.911294898818753
Mo 7.452326921704074 3.172869748923344 6.65060625239423
Mo 8.91478997846392 5.302308695453224 8.226292831663997
Mo 7.058523798919332 3.729282771956699 4.798555744032183
Mo 7.134155821354098 7.5287407078083834 8.720634711341129
Mo 4.737374100072379 3.905271498624555 6.280035826263612
Mo 9.363595804889156 5.276568990081988 6.425121500985173
Mo 4.714417523677881 5.5312269041849405 8.757595773523843
Mo 6.66878454873118 5.735335861974378 6.712655887861211
Mo 2.6994283126749856 5.602360495041628 6.422004099791529
Mo 7.56649959614029 8.309735411513989 7.09271914569827
Mo 4.7896409144147505 7.615989939877381 6.668426207307645
Mo 5.041974851033491 5.614058396277739 4.694664774893081
Mo 2.565739334314057 5.102004782791589 4.49918843371346
Mo 7.768794943269005 6.668241822318557 4.366476783068068
Mo 3.4584878414976035 7.806047830405225 5.127495670443528
Mo 6.441197715927006 8.07052912605189 4.378323653496775
Mo 6.025512804226469 6.374443334752831 2.024233803570646
Mo 4.36844608970258 6.967256357416053 2.399669440967108
