14
Energy = -120.84178941 eV
Mo 5.965851070707575 6.4036650183881045 5.30564838292177
Mo 8.93448891980776 6.134477680830632 5.054949506727724
Mo 3.4193604802203446 6.2676270858906085 5.903739911277339
Mo 7.930991956170112 8.329508580213915 5.957853526919893
Mo 4.8632224350261835 8.694888402142245 5.791767890435671
Mo 7.451427961542136 3.9768186481585004 5.114560589775643
Mo 5.189785693591174 3.7927716908272195 6.119239163505335
Mo 6.023034754954635 7.908862051146454 7.70319642372458
Mo 8.789005863674996 7.693556952136797 7.681755071377263
Mo 3.2095711231875184 8.092756423001251 7.095346468293588
Mo 7.318249448154466 5.629402413257992 7.186289789855928
Mo 4.705932037119018 5.712477625298605 7.805013969776253
Mo 7.6494039544572106 5.887739094702339 3.4399383151248863
Mo 6.430125725045309 3.355899760727819 7.721152410878237
