18
Energy = -157.32287255 eV
Mo 5.504969407528962 3.5536931129451625 3.597488105913975
Mo 7.673118883500428 5.8095813443332265 6.292833191378979
Mo 7.590599256060221 3.5851069612062325 5.148784678759349
Mo 5.8404248958551905 5.870388479112974 8.161737435520672
Mo 5.405651611579507 6.550668516518394 5.5806317288832705
Mo 6.49150226173672 7.189638138659363 10.46893839091683
Mo 5.65132568407528 3.8467288127099253 6.374315488256158
Mo 6.4146522604836775 10.009458398397515 5.860262682242605
Mo 5.53274081298825 6.0919453535044505 2.9654497203883006
Mo 3.9621534266547207 4.477132786202 4.655273649833269
Mo 5.550686155257123 8.796184584701306 4.2328020697852775
Mo 4.773969415729992 8.489229224720173 7.023140678035463
Mo 7.638353739187663 8.0248276250953 4.675888791778391
Mo 7.502766286612725 5.646015164928247 3.5195350029603043
Mo 5.010358949973414 8.019867889649246 9.82913502545469
Mo 6.891852104032676 8.12050074603709 7.641942651043279
Mo 7.770401653202975 3.6886422323774335 8.133471886746833
Mo 8.238031098722454 5.336800041706605 8.943938286723276
