14
Energy = -120.85433059 eV
Mo 6.2944768041557815 3.9695619691623403 1.8084929851607157
Mo 3.6885874483943595 4.696534888906346 2.101255445819582
Mo 7.098052702519777 5.502153345081745 2.7122487849355603
Mo 4.700759696009305 6.327929713236612 1.6947673297007404
Mo 5.509065815154323 3.808478795137506 4.272376766073525
Mo 4.678653474497538 6.214058899270841 4.26652598111854
Mo 3.071716221269207 4.455786306975328 4.842317486142334
Mo 5.184899271095588 7.246970419995854 6.696897562572361
Mo 6.76697240481621 5.502755003765564 5.538645242163315
Mo 3.95104312006758 2.459401071453623 6.200407790757853
Mo 6.158750917162253 3.540971894933975 6.839497658843794
Mo 3.1925090746045717 6.217266959400425 6.570485806099286
Mo 5.466613818817735 5.425242250614854 8.042425658443708
Mo 3.4318814592651705 3.826870709894091 7.607637729998083
