14
Energy = -120.15566152 eV
Mo 7.402242552932022 11.381633735984684 6.370648354149806
Mo 9.03239812914884 8.75663363471288 8.837537070061458
Mo 9.6236524183453 7.6861985372174795 5.406684386801175
Mo 5.48795622566498 6.498276543864849 9.51432284592367
Mo 7.859771811699627 11.257406036279221 8.192435303775195
Mo 7.477439709889131 8.683181020169993 6.647938601635711
Mo 5.974588438776345 6.675843115780306 7.468401196547201
Mo 8.68435264631877 6.515799860518657 7.351021193595993
Mo 7.531779954038419 5.218207216561588 9.41297774021763
Mo 9.71684815190906 9.898800112705267 6.570924912083362
Mo 6.527239755236569 8.900571410688913 8.999751871962346
Mo 10.916178986250856 7.91899129649982 7.240491388779143
Mo 9.338462382655228 6.33922720551101 9.799708780503687
Mo 7.487690381477315 7.658350334904093 10.74885339856719
