15
Energy = -129.53949403 eV
Mo 5.461062235151127 3.840131011176009 4.864407033243789
Mo 6.787184450293226 7.214752978514554 2.763068464661141
Mo 3.1213812035021284 5.439843459510221 5.34401366824669
Mo 5.474683896626289 4.140307433259763 7.881984947270543
Mo 8.749887574477926 6.937076925677322 4.854253398732925
Mo 6.5988874077372595 8.62968515397173 3.964254777670685
Mo 6.492409535534613 6.596059986754541 9.274805074463535
Mo 4.96617551771535 5.639541410589456 9.837444846318077
Mo 3.349562484235183 4.135654669466444 7.0093675112648
Mo 5.628007182217983 4.443161092456848 3.1073258048137715
Mo 7.047530497877327 5.5579611229084485 6.5471138741740535
Mo 4.620034145394173 6.57813648982382 7.293522591527512
Mo 8.277673482345595 5.219145817577006 4.218237958984256
Mo 5.285182523017218 6.500659777674225 4.9195604879251045
Mo 6.79540588811584 7.851008368595455 6.714583527086387
