11
Energy = -91.14603341 eV
Mo 8.588352747676922 7.49532449443688 7.095961747840586
Mo 4.699978370750506 6.227750227040689 5.242100961388046
Mo 4.698787492348973 8.463492201226673 6.126350198855389
Mo 5.514313438170106 4.55051787983991 7.127744016777389
Mo 6.6445634119246675 5.091390406268755 4.790346538400873
Mo 7.96589147983098 4.782190485357965 7.2218499866708585
Mo 8.814770579731237 6.055552341420686 5.1686051043359384
Mo 6.9622298068829 6.34792633739706 8.819586254504683
Mo 6.646362953990216 8.63243929201455 7.548139716271053
Mo 4.680637833939556 6.701333732712217 7.986684194075095
Mo 6.894838673087958 7.762809170994113 4.983358069213496
