19
Energy = -166.33628493 eV
Mo 8.75386281366961 6.897866598641599 6.472800478394054
Mo 8.533624950139346 4.634269062022507 4.675757827579618
Mo 4.7924044188417865 5.766236209323054 5.883240277394964
Mo 6.889769713859734 5.143868743952019 6.76861135149511
Mo 6.0299015596154035 7.319194969072869 7.970646237400664
Mo 4.650722768679121 8.266648893150846 6.347961657200092
Mo 9.058035859081917 6.75587684969166 4.163494227626292
Mo 7.695898545981748 9.885070134485154 4.273068635330491
Mo 6.4880019006809775 3.0785612430826075 8.491861266795496
Mo 4.546679675664172 3.0180473164385546 6.411062572171855
Mo 3.2623179346904223 6.480389795604036 8.219727288909649
Mo 7.95953214373262 9.051063537824168 8.236221237677483
Mo 6.780270450467687 7.72551253261666 5.285354593076685
Mo 5.461103336462212 4.467200437027323 9.077633247791274
Mo 6.566326184209463 5.4062481295402325 3.9124531789522323
Mo 9.062268665990384 9.437881576004214 5.508884231233259
Mo 5.715183025690238 3.0419411200601423 5.030645081509378
Mo 2.7251657192967964 4.878391657345706 7.6215113079559345
Mo 6.640704990679256 9.976715190730946 7.205119809137088
