11
Energy = -93.3094512 eV
Mo 9.499477987640528 5.971729018363876 6.636103556713781
Mo 6.9342010806510395 6.937700972733783 7.01016093692494
Mo 6.76822208486235 4.92847950272792 5.3949832271762705
Mo 6.125710092935645 8.828604349244953 5.469796515263997
Mo 4.9028069304636235 7.506621204466488 5.167531684709425
Mo 4.590216411627094 5.909804606708134 7.7423578625781015
Mo 9.370842683051126 7.753105394562364 6.362176340729834
Mo 7.534334195004405 6.221760605583685 4.356516903273821
Mo 4.6010663889830505 7.646911796488549 8.294639192945862
Mo 8.025818465766989 7.545390392124154 9.330452827319752
Mo 6.996151820534889 6.098740751477129 9.58412841444472
