15
Energy = -128.31493001 eV
Mo 9.421239525344399 4.781506046106793 4.655787598972373
Mo 7.313212690587425 5.554373156649988 8.275324117188203
Mo 8.017254566264144 9.042028969108229 9.746516973547969
Mo 9.572842475450129 6.0110110644067145 5.829225548880542
Mo 5.818604372283068 7.3614879464589 9.733074347908909
Mo 8.784802021735931 7.763970152170051 7.8127634746057835
Mo 10.739958568647745 10.242215742367566 9.579370407277432
Mo 6.7763224504378 7.486250711197278 6.095139147110453
Mo 10.639720224974283 8.419418060821243 9.947589175505115
Mo 8.036853375091903 6.813142183659075 10.331626138935533
Mo 10.59290797054159 9.166155024890422 7.134001908957054
Mo 8.48892926715837 9.528860760504289 5.683358534030498
Mo 5.326853645085525 6.270115151161382 7.736331442083472
Mo 8.566268327967377 10.64195661688039 7.4467331632001885
Mo 6.385626164326531 9.035698284623596 7.582455044304125
