14
Energy = -120.03514528 eV
Mo 2.7899234981841516 8.179624921244933 6.768612363381612
Mo 5.32961718106999 5.799039558709712 3.3468997530344873
Mo 3.2490818405098714 5.539364141898126 7.384383029989823
Mo 7.1176462154481 3.331422400790884 4.571924711970786
Mo 4.85041998377869 7.3123555364190045 4.989301320457873
Mo 2.7567644262669204 5.664687343374818 5.4600468648447755
Mo 7.272029302044648 5.977965123734679 4.469221178735348
Mo 7.390236096339396 3.3638714015610285 6.570330093314159
Mo 9.142912374543805 5.806101225624398 6.636110176046536
Mo 9.575669301741732 4.516653040955239 5.416983810046993
Mo 5.1294194047505215 4.568319101732741 5.727842253282832
Mo 6.967896474073203 7.859011780170491 6.110139598083926
Mo 4.401071041719214 8.30577258538229 7.6334547474818475
Mo 6.229991304442462 6.016869763092297 7.165965038801546
