10
Energy = -83.59618421 eV
Mo 8.835740191532416 4.633016350075321 6.611145303485771
Mo 7.20547903802249 7.297766504104111 6.6262897664060505
Mo 7.988232066530361 9.90890070113961 7.065901744667346
Mo 6.487786110785989 9.43057132326418 8.355680796689548
Mo 8.316965910604829 11.315575388865062 9.428914627106957
Mo 8.71645658518653 7.986798676810344 9.004212780374445
Mo 6.921256387781116 6.14587234059796 8.02396342033689
Mo 7.879882839142995 9.50057137505022 10.586610926529756
Mo 9.943149852471588 9.919499159152096 8.758011316567094
Mo 9.820464298597093 5.768661059652774 7.545770893207302
