13
Energy = -111.39836951 eV
Mo 9.670970145919679 7.584431901767808 6.27850750710689
Mo 7.887343433041669 5.080112064568782 6.156476050309572
Mo 8.628717933332338 9.067685560640609 6.141559415222334
Mo 7.129975052038812 7.040169097891975 4.945927414045154
Mo 7.328824356466885 6.972358149902256 7.727525998543643
Mo 5.9361893510950665 2.59397572319351 6.11257532802622
Mo 6.136915651454806 4.8838108473464805 7.876101319411147
Mo 5.5350953760844215 5.175878843316172 5.180792560064142
Mo 5.826443326583439 8.330127353324883 6.520446685623775
Mo 4.07231230567699 7.394188136981867 4.378343884139018
Mo 4.459053590772536 6.374318538032378 7.088322554715821
Mo 4.251413727644611 3.238676086204179 6.432175512457116
Mo 2.925144996688053 6.038256052397271 4.867871690201314
