11
Energy = -93.18290085 eV
Mo 4.74139724342302 8.502154831447296 4.7685981876022225
Mo 5.699299091634862 7.817980503739728 3.4191739655178965
Mo 4.939832698990128 5.454271355792455 5.041273609531194
Mo 5.659234097547348 6.987340427196454 6.998253662815532
Mo 4.62538205217615 4.312495820425679 7.60216674944918
Mo 6.893322677546328 5.516610247689042 4.812963270319748
Mo 7.516823600968675 8.022999298634266 5.870812026274827
Mo 6.484695466638202 5.633024631641472 8.760908923180438
Mo 8.164450348466891 7.791393740188523 7.908423946412963
Mo 6.239297421296337 3.551560748219011 6.82436777891291
Mo 8.1546164661646 5.61076057802367 7.1584531240531675
