13
Energy = -111.50752171 eV
Mo 9.667317212606829 6.4218772628172065 6.485262959277398
Mo 9.757354966411745 5.244579001387314 5.121761200038794
Mo 7.5875986354647 6.9522744951938575 4.412387537642871
Mo 6.792243118648262 7.107105279626662 7.0532733740181985
Mo 7.178663042150234 4.980542474261467 6.5499872352293504
Mo 7.01035387873653 5.02281970433282 4.009438481743755
Mo 5.197089043229026 6.436383233165444 5.332551498656485
Mo 4.67801833736228 3.7194941240952604 5.483949305823189
Mo 4.740371417501989 5.535310675960028 7.97712372866045
Mo 3.9756418443610078 7.25258453671553 7.625158144450958
Mo 3.956157734975689 4.359093202642149 3.930965000786614
Mo 2.4978619969229405 6.772574763473398 5.04785542384507
Mo 2.3274037714624773 5.368562372726612 6.2138439262725775
