19
Energy = -167.65767295 eV
Mo 6.160232365225603 3.3698338758895625 4.307833575406225
Mo 5.820267066875708 5.9008538621145945 3.2897202705859723
Mo 3.907777043574881 5.193080819966635 3.962946699158933
Mo 4.46024334644101 2.769259246720471 5.051599793628539
Mo 7.842195092139669 5.529247574827814 5.334808255205912
Mo 4.2914994983962025 8.142325615193295 4.073674170154208
Mo 5.918414043808934 4.1558713448950675 6.852620778978407
Mo 4.464084232202221 5.9454683209141015 8.42161261323681
Mo 7.9391067634264 3.831242294372895 8.306969292055797
Mo 9.303459975101966 5.959307373834064 7.214577088473973
Mo 7.365518404894608 6.372039039510504 8.030509093895787
Mo 4.831165212168507 8.081701020616718 7.911402391147041
Mo 8.454432246916259 3.314134976116449 6.350932623743832
Mo 3.192517538977858 7.409057793594931 6.328079584412597
Mo 3.4231774584045707 4.996396670815864 6.454580226609947
Mo 5.09458945147624 9.335546175981847 5.431376710151142
Mo 5.623404168215713 6.558436013270542 5.850757468098513
Mo 7.810926905486705 8.29782941851667 5.9371192388171465
Mo 7.357825182192697 8.19150617238101 4.112003263239011
