15
Energy = -130.28013602 eV
Mo 2.5681840939373535 5.882707640970872 3.4014781196839925
Mo 4.335507310226503 4.346685529622391 1.9830744857965241
Mo 6.601267091333203 7.756326668842014 4.677308337369236
Mo 5.8792452133295985 5.191092636121497 3.871388641338768
Mo 2.3673141737629955 3.5412043075356783 2.9204599582273603
Mo 7.605603645682997 3.766637751425526 5.427570377946049
Mo 5.017386982111472 2.8079091003765733 3.4654701841725877
Mo 3.0771339938412154 2.570431434477709 4.998904418737326
Mo 8.25316372688276 5.4747949911839875 5.461776561663316
Mo 2.2093696889727834 4.857047769227815 5.3293835829143
Mo 4.906454787857881 4.021748991445807 5.921927369182003
Mo 4.2797003886321 6.330022332546598 5.294988253982148
Mo 6.540023063827871 7.713294386585091 6.495213764770626
Mo 6.590517743971394 5.0730217641352375 7.91509516973717
Mo 4.893813712978908 5.791760312852108 7.960646391827211
