12
Energy = -101.91258368 eV
Mo 9.512042139134651 7.182764910986733 7.048345859200686
Mo 8.069353383932725 9.548929299601095 10.3550836774951
Mo 6.601019078682299 9.68692119037573 6.755092168066047
Mo 8.06433378097649 7.07989366297812 9.085481784329504
Mo 8.27762668142405 10.6921662152419 8.15290312870777
Mo 9.10299251061093 6.983472679756971 11.754009344138161
Mo 8.85014982768618 9.458781718700216 5.719493712281419
Mo 6.31561244639249 8.699414632463881 8.805009482682886
Mo 10.344784083112286 9.773441652684037 7.143275755603869
Mo 7.470610601802031 7.24661615041467 6.5520411664935265
Mo 9.897428798372784 8.704650010534182 9.574886829692126
Mo 10.239771691813884 8.277115327818924 12.251374215534199
