13
Energy = -111.47496008 eV
Mo 7.4478657329617635 9.012339022161806 5.246626092450053
Mo 8.145092469860389 6.178822214289935 4.760839577035355
Mo 6.524589669311927 10.316064519711874 6.05454692869884
Mo 5.16387718820714 7.884879964950088 7.08505109894549
Mo 6.352902800591175 6.012845534761669 4.850744217283903
Mo 9.34028994918149 7.561620431486847 7.018951538873691
Mo 7.710462016877482 8.838148947576823 8.054970607050636
Mo 7.474874486751838 6.124903909939845 7.518162244278704
Mo 10.164124429582483 7.82039252808222 9.23256545350719
Mo 4.7490348696447775 6.148472960823729 7.394651343079515
Mo 9.134668838164613 5.88101285628422 9.324312062603365
Mo 6.5348800332722385 7.017384957284103 9.688292693521522
Mo 8.028945964790447 8.034200097368139 10.572944324863286
