15
Energy = -127.70910213 eV
Mo 10.555634603484032 7.306116340094688 8.56001653975758
Mo 9.213619945740305 6.220861997021203 6.550128191978467
Mo 9.20337898471324 8.504046142034012 6.294344210666914
Mo 9.789536716572584 9.057960829299047 9.084994672039857
Mo 7.976210223765551 5.660142578169782 8.528665635880202
Mo 8.602353708906042 7.1161456090649 10.3537201277425
Mo 7.395286823757087 6.535649820489161 4.807873869129643
Mo 6.3533722139303475 8.889099598215758 5.48902211937351
Mo 7.730429291147491 9.637946269163425 7.501113235649647
Mo 6.593975509039625 5.234967052485114 6.107034440140873
Mo 6.930853989901974 8.260153805548818 9.360038679784429
Mo 4.507842243852858 6.727722042388392 4.897264443272022
Mo 5.166498638750769 8.478994900196591 7.0279870109033435
Mo 5.748426771573575 6.264327472453007 8.5272471590598
Mo 3.926748106672986 5.99533259633137 6.524233676237973
