16
Energy = -138.10342534 eV
Mo 9.833797940022317 7.221738655636346 6.7438463322783235
Mo 6.410819816317956 9.195861728882573 6.358851676153736
Mo 9.036386734154103 9.378987434687772 5.408744025835185
Mo 7.464547250541942 7.330728055818864 5.175369804117262
Mo 5.529786760708591 4.730742140129809 7.487038109336326
Mo 7.941231518677056 5.807277765420317 7.105634788336817
Mo 6.7121158884946635 4.546425179437508 4.923350151267862
Mo 8.143491537612533 10.698167495968711 6.811563247152828
Mo 5.952991559535814 5.813661933900685 3.6807002142264698
Mo 3.6518702801005567 4.493112997144016 5.287539438568232
Mo 5.164862965073505 6.578436030733472 6.236087109266774
Mo 6.3645482487153995 7.351784954341175 8.329840343564717
Mo 7.246814215089625 5.219223476526687 9.81676932951339
Mo 8.528486058852684 8.510438342734089 8.075586275547545
Mo 2.9576794952580117 4.9455938946083675 6.955593984365456
Mo 8.683075408266937 6.335302223735745 9.867942547094046
