16
Energy = -138.27632607 eV
Mo 8.559764731422758 6.328362094284895 7.430057489461919
Mo 7.180068392461856 6.307583384091095 4.417587688872536
Mo 6.107818622720975 6.776365083308744 7.027906783950539
Mo 7.532926698916236 8.602715364760783 6.201697172577122
Mo 6.039221282577706 9.38337265231819 8.192794670138063
Mo 3.6393632249962664 8.036764819238577 6.761672571966852
Mo 9.989374323353841 6.739695463379342 5.007545333580612
Mo 8.12538154150614 8.173505859625239 9.469240670690764
Mo 5.255639293705385 7.749722102366926 9.163101685195297
Mo 6.625312629572531 4.119922658074117 6.599007154611865
Mo 5.037396649020333 4.609487287950768 5.801243085465225
Mo 9.556134498957405 4.950409793766897 5.294761467563055
Mo 7.0292344130744775 4.701061080935326 3.628895435325045
Mo 3.0315966982506843 9.130947902211345 8.021930362045557
Mo 7.400347733657761 6.25618144505234 9.652769220962833
Mo 9.562747169479715 8.412515358980828 7.230359524478723
