19
Energy = -167.6517628 eV
Mo 4.763322810210616 4.233547353984648 5.2573618034802685
Mo 8.871367382472124 5.871721348005499 4.274860391094188
Mo 6.031953845331746 8.80592559928213 7.574136676801677
Mo 7.239045335276712 7.44194533055526 5.246212728866054
Mo 9.799988935142656 5.2119607389072105 6.841863629507034
Mo 7.320495067026381 8.67833089566721 9.867870400108572
Mo 7.214466754476854 4.202104543507266 8.70823168340367
Mo 10.125075584369478 7.108647485102584 5.721262148164464
Mo 5.715925126304636 9.944634055489313 5.241387256272555
Mo 6.419910187062056 7.044473108752353 9.874621256515415
Mo 5.629016763592394 5.415705923099785 4.115204944397556
Mo 2.6766524108952576 6.217954999669696 4.945613940817273
Mo 7.580130606058684 4.665531930729648 5.927987759522592
Mo 5.701567188014297 3.5808622520835205 7.961019938045633
Mo 8.15439937523165 6.752011792902347 7.865221042509688
Mo 8.175149985747122 9.038027557277964 6.911763078662838
Mo 4.75614320439774 8.349992385658288 4.970596646885624
Mo 5.834831591121133 6.254353594485053 6.984046615604894
Mo 2.999225702276979 6.219499630649755 6.68991948901238
