10
Energy = -83.38147792 eV
Mo 6.441068582564829 5.605166207793103 8.078765671106265
Mo 7.733187372199764 8.227193856609217 8.53683813254605
Mo 6.1436010397718315 7.191563086720428 9.90096271961443
Mo 6.859906925054875 4.511858921532626 5.436123911295041
Mo 8.065612081821959 6.588045095359729 6.553665878876967
Mo 8.259798698369691 5.319544162769934 4.004857340938038
Mo 5.357042401666113 6.445789488351033 6.200793183342953
Mo 5.028547031253349 8.053870009279532 8.217057916434245
Mo 6.71434434759877 8.761933432362552 6.571768762389483
Mo 6.927145424568958 6.931073794400178 4.1906991628408194
