18
Energy = -157.00512085 eV
Mo 6.060619296904983 7.560350714750735 5.428435996787908
Mo 1.4778906143766657 3.573576589713197 6.7376808454173265
Mo 7.956895065612396 7.419900108225527 3.1888765712145415
Mo 5.8077188137173925 5.813277008662296 3.5381182233403936
Mo 4.049718175741989 2.5808508664689596 6.165987894554208
Mo 8.69119400402256 4.700653907556559 6.231266212061729
Mo 2.2457889128610735 6.072605296393693 5.893096326547779
Mo 8.361645211797862 4.524797173661783 3.2908800236011246
Mo 3.8481998555371097 4.531603420485479 7.258413768186476
Mo 9.036062717448646 7.131477952162437 4.604823055133966
Mo 5.961306863343525 4.888835775760079 6.031269327680731
Mo 1.833111285410174 2.4384167808792228 5.019028015417379
Mo 3.675257439656559 6.92335441456697 4.173266275149228
Mo 3.9548303150598803 4.3453628130386175 4.4580467533388015
Mo 7.977786130700061 6.190323112883939 7.095239279292082
Mo 1.511248898530761 4.831265853987983 4.236079386523765
Mo 4.680958059569787 7.236651427184496 6.8263799177519715
Mo 7.079808811421819 3.4467372553309787 4.03315259971406
