16
Energy = -138.87591665 eV
Mo 8.097438343375517 3.6442600518923856 8.568763281271215
Mo 4.379442284803391 5.8024821119014875 7.918683455712281
Mo 2.9156492195165558 7.598064373826701 4.875621812786306
Mo 6.170544428540599 8.00921747453754 7.193072162335342
Mo 6.249049369100712 4.284008451895795 6.744899595675376
Mo 8.128684659494835 8.910612779722625 5.219558707617392
Mo 7.311914317663354 7.566977649048576 3.756092386640998
Mo 3.3279559368322555 5.110578420133594 6.534112545037007
Mo 8.786292392869202 3.845735647632071 5.922260588882259
Mo 7.912679236330907 6.129039901656582 5.646752028904991
Mo 5.303135659964874 6.5977828803937655 5.364764232287233
Mo 8.607082702359289 7.5633361593442965 7.422809021893604
Mo 7.148367102348103 5.680611885425104 8.490480097463879
Mo 9.738905559410572 4.922472840925706 7.526313507489653
Mo 5.628212298524907 9.065764154685592 5.190290735379772
Mo 3.266268085957186 8.240974066694271 6.594080469461274
