11
Energy = -92.21481494 eV
Mo 6.967799895079528 8.507518118365972 12.388334116757255
Mo 9.472510494902739 8.585481109948152 7.531941413335126
Mo 6.427544176440899 8.222719992185574 9.773272035091436
Mo 6.440628387848985 7.53190395439025 7.128802198118589
Mo 8.422067306829444 6.919379639811773 8.844715916751571
Mo 7.613398493558612 8.698261467278968 5.3752058254863915
Mo 7.486876263597955 9.841613691528039 7.825902945309428
Mo 8.33221313216768 9.347061169476254 9.980536259812832
Mo 9.55624219700406 7.7077034275126195 5.147278253686552
Mo 8.048272945562461 7.169647675376757 11.783769337195368
Mo 8.347265241244592 6.251756451637848 6.376019353678122
