19
Energy = -166.96516296 eV
Mo 5.943035465522209 6.474468679697219 1.9361463886327612
Mo 5.69281036285427 8.094381964339316 3.466213793352253
Mo 7.865492822242647 6.605415238041079 3.9660146584023575
Mo 3.5587256663891185 6.303431994407138 2.9617632927295223
Mo 7.071430863162906 4.5402877538171715 2.710301786130764
Mo 4.882121084061302 4.157971278034687 3.2827256067794908
Mo 3.395238591328749 7.444158500454361 4.693001247319763
Mo 6.045490515633648 7.143256534968043 5.661835411283068
Mo 6.9447906422351995 4.71013369458953 5.175666250173971
Mo 4.357104514963154 5.283681773928668 5.447095099412397
Mo 6.174531185879072 5.286846479436821 7.6644703642045116
Mo 8.594047070491358 6.510679819942002 6.753531001012204
Mo 8.877540038785105 4.661958754130628 7.231288584686177
Mo 3.6545698678158014 5.166824443214134 8.035499035434873
Mo 3.9446512110673706 7.161983428817782 7.597609670997093
Mo 6.344893968900512 7.7923497340984955 8.61641550128405
Mo 7.313519567318286 4.388220914112411 9.65033300848937
Mo 8.238545123637714 6.221959285074826 9.616311029544415
Mo 5.486806952088197 6.4373352432735995 9.919123784507466
