13
Energy = -112.22894878
Mo 9.201323858279343 11.005170017746254 7.186086802886479
Mo 7.899882839206147 9.053778108056566 11.60261726269831
Mo 10.99573335978204 9.449838942435768 8.108523048776547
Mo 9.09413736143487 7.371201957818577 11.335339213238388
Mo 8.195280877460362 7.417213386443023 7.29618451446028
Mo 7.634124636645255 8.546112976462236 9.104850663110545
Mo 9.559887132479057 9.053778108056566 6.224645090963651
Mo 10.927708009204837 8.210540741159093 10.90706098981125
Mo 9.774068526253206 7.762038403206706 8.832624747255002
Mo 7.566183201172574 9.55576413743483 6.699911509510384
Mo 9.829403894622079 9.578523025801067 12.112100117799956
Mo 7.572306654056614 10.658418748803346 8.888807237599185
Mo 9.458333674641407 10.045996471813854 9.643807776652473
