14
Energy = -120.69564541 eV
Mo 12.191146369529477 7.997971158741716 6.69123181610137
Mo 7.294032039149392 7.888066168578402 9.500290138425163
Mo 11.604323339272517 6.291550536413687 6.7823525817173165
Mo 8.710273366028382 5.734112427605571 8.808659398244151
Mo 9.741220670202395 7.891534690001021 8.179925827949074
Mo 7.792125748081903 10.643509938145234 9.673399942094814
Mo 6.254409185302309 6.353551429284391 7.789951254750263
Mo 5.977496022510225 10.523587624969958 9.546707280924409
Mo 9.361732118542237 8.049615049853273 6.036796756190705
Mo 4.329431638067549 7.9429682339384655 9.214052042939489
Mo 8.78297199838922 5.811795507902781 6.575142055142685
Mo 6.532132627335433 7.21619285418072 5.905819818873393
Mo 7.279307942642297 8.973680881535884 7.551297146316273
Mo 4.361905153610426 8.541394647617356 7.516411232431027
