18
Energy = -157.79756373 eV
Mo 10.251459837767412 9.091914607268759 7.593093458856098
Mo 8.990671308028613 9.828263029201487 6.492435873867203
Mo 9.990380085247207 4.572209989558522 9.250668117668091
Mo 5.130063195337732 7.375617982296574 3.701258255330787
Mo 4.803533082874362 9.061496030351096 4.316725940429446
Mo 7.8882092436488715 7.793527378591067 8.174946448134447
Mo 5.606357309843674 6.376368893973945 7.324650806740755
Mo 5.90290295680115 3.8710992125067896 6.33689138569838
Mo 3.3748066566202906 7.477282537994533 6.181882845259299
Mo 4.392576246003298 8.637219583742036 7.266749036972833
Mo 9.208125161308468 7.047399967866458 5.963997753033803
Mo 10.209012160633021 6.323772480465563 9.123314309665721
Mo 6.755373368825165 5.716101149207365 9.672013567984333
Mo 8.156466627886267 5.410098408367502 7.403684131589805
Mo 4.671371535392407 4.817177032616546 5.320583357314046
Mo 6.87935520040938 8.110485649805147 5.7835568446369905
Mo 7.202212176038709 5.898328677349005 4.984418620264933
Mo 5.919685277370528 7.473847150691055 9.785832444599725
