14
Energy = -119.44515993 eV
Mo 6.058242400065224 6.385950939078559 10.040282240253863
Mo 10.039195110519211 8.838663067081717 8.134107537592428
Mo 6.485230205666897 5.830306015389903 6.217321572348287
Mo 8.239408181315778 9.157715042817753 5.012555036570082
Mo 10.2840799813549 8.379744968156128 5.616937827588572
Mo 9.473852071058108 10.677439118496158 6.248449063755435
Mo 8.282688001505239 7.360995227104103 9.572675106858858
Mo 8.509511549951512 7.107504037636446 6.930544738851898
Mo 7.982391457389691 9.738222608405154 7.825833989724063
Mo 4.6119613097194065 6.80282285580376 7.849095618509102
Mo 5.895446565803648 4.675120588186641 8.17379291432261
Mo 5.895778324628311 8.40887632388689 9.2473387718853
Mo 6.230881722981079 8.16186023391485 6.55750579386404
Mo 8.182803311996793 5.239767010541414 8.598726773430485
