11
Energy = -92.36828466 eV
Mo 4.588361992300173 10.491989381712052 7.615949928405634
Mo 6.896299778776972 9.066362002824913 6.364707162404216
Mo 8.417585274997652 5.958326527136215 10.08372697185049
Mo 7.654872771726546 8.612499254396596 9.092491919857059
Mo 11.009551725603263 7.322144556656048 7.656414714540512
Mo 9.883451326444712 5.276257701418814 9.33845348970638
Mo 8.42530087048363 7.106240169073731 7.445797572994
Mo 10.324818068358008 8.200344359402397 9.228426150643557
Mo 7.1861008967272095 10.663737186513655 8.049983035576306
Mo 9.063276999383595 9.331235892740096 6.809525958764592
Mo 4.939733266500115 9.154394328468332 8.810756450166597
