15
Energy = -129.91428171 eV
Mo 7.49977437395858 4.723075117267924 4.027227586335892
Mo 4.778352217248039 4.734313430577634 6.2598708258973295
Mo 7.29112112153754 4.657237440850955 8.739187764881594
Mo 5.559721945814474 6.293657056368837 4.3288298390225
Mo 7.089838732394834 6.276064596651364 6.325854193851973
Mo 5.417358820958214 6.308113195932765 8.174345773963742
Mo 7.400647285042712 7.840000028955116 8.625182042806758
Mo 4.835535198570135 7.883825567947524 6.236442198065794
Mo 7.478018728810901 7.916544995163604 3.9319303295631376
Mo 5.823607766298399 9.067417728934958 4.137552600948872
Mo 7.138550644255368 8.980589753052488 6.368205210823039
Mo 5.646852657068673 9.044234591612032 8.370153621495888
Mo 5.657407512829443 3.5242721971977264 8.410752805367181
Mo 7.07961856922256 3.5784134359670716 6.271026061676586
Mo 5.70376543796116 3.572411875490665 4.193610157270476
