18
Energy = -157.12241802 eV
Mo 3.1048408078844134 8.272088104832317 4.593586085309613
Mo 9.03247522013685 6.438504279268947 4.125103208079905
Mo 4.4833289901219695 3.976104701649587 8.085442989293322
Mo 4.24769011371481 6.115958519666217 6.190034402069597
Mo 9.775374832661377 7.540548538545447 9.497058945274558
Mo 6.793355342405357 7.266597376282894 5.766927054616654
Mo 6.37450022552397 3.535873759865483 8.160632208928334
Mo 8.063100901289602 5.902041101597987 7.915686333996853
Mo 4.604294654037343 7.610165924562093 3.8170512073067258
Mo 7.274596664269617 8.56429344974531 8.160791991125883
Mo 7.0596852914145005 5.7928762086383765 3.700323561357009
Mo 8.761881351719401 4.742458884994655 5.704782717913696
Mo 9.932108803041487 9.21072885057858 8.82502948616381
Mo 9.199732267105809 7.403389103128861 6.6427927033716285
Mo 5.433266630551944 6.350699624298048 8.181230691223737
Mo 6.353970839414645 4.66209694676886 5.92415765182585
Mo 5.486786674269157 8.967511120175693 8.937381079976344
Mo 4.827073057905505 8.558462290942662 6.589673179111356
