17
Energy = -148.61970444 eV
Mo 7.17374865985009 7.274476475340506 9.285952613682351
Mo 4.876052431541263 5.60825440152846 9.476450215779042
Mo 5.511927648038124 8.36581188580368 9.742730592456292
Mo 6.987476646584978 4.818290275900108 7.752162362489842
Mo 4.815744385264789 7.485141877776553 7.487497278811278
Mo 6.549190740139196 9.702953692688338 7.598576562837892
Mo 9.368087264455548 9.156432515641434 7.291770037756229
Mo 9.377737251945275 5.388765993212803 6.797982153029481
Mo 7.507614754373778 7.235624193443463 6.731571670467968
Mo 7.846047325589616 7.387714108452833 3.9588919816066377
Mo 5.724188130312709 6.060306588592402 5.506522797262559
Mo 8.216181103971977 4.757325797667525 5.247376424494607
Mo 5.7148451512797624 9.148884040335389 5.832114584105451
Mo 8.663624984804763 9.751432365809809 5.673534378881593
Mo 9.561968709030477 7.275926348254421 4.68275356378539
Mo 4.109663817497793 4.8784845560783845 7.87951200088492
Mo 5.787830660957812 3.8175787713918323 6.131643103525569
