11
Energy = -92.82380945 eV
Mo 10.33331837866651 9.209533144870015 7.350286827861077
Mo 7.930202520948486 9.072832830914834 10.541091718280777
Mo 10.634238977443125 8.283387297696475 10.956082346293483
Mo 6.585528889481799 6.161582116416819 7.8927904125832855
Mo 7.71166143814633 10.43809148870418 6.144377000354309
Mo 11.389863901821318 8.045566092792027 8.27509179368098
Mo 10.71703746359068 10.005436476382297 10.37431570226969
Mo 5.96978806487316 7.401740826300007 9.038711021377182
Mo 8.168425690824376 10.183791630215994 9.017582466277299
Mo 8.731263544922585 7.541313609814792 8.707813292986257
Mo 7.45685149250447 8.72848948092566 6.504234688311453
