15
Energy = -130.47210396 eV
Mo 8.623309285138461 3.9176427213327307 7.008874199460249
Mo 7.297195120236927 6.352544472584019 6.696507662543885
Mo 6.937722385210682 3.636042079218247 6.084692350386268
Mo 4.936932881867731 8.973955265543731 7.966858661599761
Mo 5.320087793121692 7.526688564540752 5.435538967790717
Mo 7.575663016711055 7.727154508071139 3.6792118934737004
Mo 6.638242911871038 5.522569517831312 4.073711288653341
Mo 4.780566739214346 5.315053057216232 6.939611940817561
Mo 3.4195772294743785 7.149760954959672 7.168582259280627
Mo 8.794013480932199 5.492253876179359 4.872969907838652
Mo 4.673134531537412 6.809278457892536 9.308097290445703
Mo 9.165145811633888 7.874608914652162 5.0770905375468205
Mo 6.468284611037708 5.2191538822594055 8.62166983867295
Mo 6.697415692004914 7.933518034527561 8.990799172612146
Mo 6.907846643811916 8.784913826994554 6.310922162681281
