10
Energy = -84.4779254 eV
Mo 6.98766343014291 5.6196501329761785 5.699658925723669
Mo 5.828478821904303 5.9148555015962305 3.4262706851939573
Mo 8.466938217805922 5.035832000071291 7.721802642005582
Mo 6.709423005226869 6.623099941879095 9.120232789843431
Mo 6.283133334457163 4.608261114064601 8.16281158004767
Mo 8.197474168873969 7.279443957194871 7.536976099317875
Mo 4.070456765434196 7.501995557861226 4.823678248535914
Mo 4.340129726299861 5.258882470485208 5.010675633555487
Mo 6.254317176810562 7.9300110684394385 4.381674710565775
Mo 5.550903612048822 6.919895711508877 6.84751906619935
