12
Energy = -102.81669343
Mo 10.5953634492606 10.125252721402065 7.873679355775095
Mo 6.05231339024034 9.067387849439788 8.659918651572147
Mo 6.797977520574822 7.439542723611028 9.412837421794613
Mo 9.614515081063812 8.590814533205151 6.471202672502992
Mo 11.046391708010585 8.433245324401131 8.675615894813571
Mo 8.799020804468563 7.106432024872311 8.32124133214268
Mo 7.097693031589948 8.260193273266424 6.9271737864051035
Mo 9.130559639604316 7.545852789446659 10.667979903804964
Mo 8.693266624496733 9.059166433595726 8.659918651572147
Mo 7.576564295588655 8.597563433884543 11.024895620411604
Mo 8.091942212832883 10.012081556897027 6.537628481431445
Mo 10.276372242268737 9.25190232259117 10.539891227773564
