16
Energy = -139.33044421 eV
Mo 8.921805432613901 7.086654769075783 8.240426924209181
Mo 8.389926001716955 4.975991059343285 8.510304229954519
Mo 8.051175987515979 8.392649413777175 3.9867923514705312
Mo 7.93796548035222 6.066241751852348 5.89439190742524
Mo 7.966030522379748 8.87327069379791 5.750434656597504
Mo 7.447491011281243 5.649027855256936 3.4823366394950397
Mo 7.281503599034713 7.057706038320957 9.937201138161884
Mo 6.244359724356429 5.135119445352643 9.457739648219347
Mo 6.233216443829914 7.499905334953896 7.711117297038103
Mo 6.320607798724864 4.111334475175242 4.4473564215102055
Mo 5.954514603472216 5.105906321564425 6.88834392580079
Mo 5.770247018835269 7.312587647202742 5.172333627772179
Mo 4.812307050854083 5.737864410935725 3.359136176646285
Mo 3.919502440376303 6.6052664270471535 8.081314282364941
Mo 3.6072211391123123 7.8065389912057865 6.504075934177881
Mo 3.9373517623012972 5.4269082482143265 5.3843159345749525
