17
Energy = -149.05953149 eV
Mo 9.45457041811551 4.460402222718887 4.1217051596396255
Mo 7.672443692362521 3.969122225739205 3.855818469976489
Mo 8.02788416795719 6.516029651240881 5.226233296883417
Mo 8.50939611344104 4.538756480112234 6.569919474529626
Mo 6.826874338058391 5.2672037601679795 8.432116159093802
Mo 6.763505551177569 8.168754861568301 9.211339199363168
Mo 5.220937928025646 6.986054082711705 9.478188871859203
Mo 5.973190538261874 7.03511839393232 6.842343408476665
Mo 8.52493649451095 6.808466686486882 7.616389500332057
Mo 6.9896870926296755 9.172422775217951 5.42179427642531
Mo 6.07740956032578 4.611866060046915 5.929030170416884
Mo 4.256107504908449 4.778083158794003 7.850183770462902
Mo 5.8768312219534975 9.735749168168299 6.795229202213753
Mo 5.42788634277513 6.807478778121315 4.093085045315213
Mo 3.4128551879590545 7.308840413392009 7.380783661097266
Mo 3.5245735763746358 5.59405388031296 5.953618866533787
Mo 4.361295033965863 8.156668049983328 4.864897219942399
