13
Energy = -111.59171178 eV
Mo 7.719693026372113 7.849285001695991 4.898854445597701
Mo 7.290522329243319 5.3367190660597865 4.9439770073455875
Mo 9.628727089896412 6.787192345594796 5.396292467737909
Mo 5.9059926703642285 7.175771418411468 6.472028437958554
Mo 6.3408225145962165 9.785254628726515 7.029225896256103
Mo 8.613974735063062 4.37917879754812 6.235693378194662
Mo 4.475879893101454 8.897549474541822 7.995366569945314
Mo 9.62011896661829 6.100216179398637 7.627929411689429
Mo 6.986396143095253 5.780933428776879 7.870018253119262
Mo 8.265607997440792 8.127721873194 7.393545480429859
Mo 6.746930051732152 9.465262513361813 9.314243435163085
Mo 5.172059894783198 7.265167643307044 9.363026343653795
Mo 7.524020534981767 7.340493476671512 9.750544720196872
