13
Energy = -111.90434053 eV
Mo 5.919022375034306 4.140792025812461 8.160521116580297
Mo 7.832153966100949 3.5930928163751514 5.948706103676155
Mo 6.988190449217876 5.701562593561338 7.7927894609609005
Mo 5.154659753106595 3.9147592799393838 5.485592948440798
Mo 4.688859322145753 6.029242501767129 6.719527972326434
Mo 7.588385779681847 3.3432426912445945 4.123014235519384
Mo 5.739263439464636 8.394530661913977 5.912979834703409
Mo 6.680922403011845 5.922105410380132 4.934673723293141
Mo 5.720467340250261 4.977501014378785 3.0163103332336187
Mo 2.7118514152469477 5.241099925583417 5.1507271347084576
Mo 3.8916820879392886 8.638829556558118 5.68737993017323
Mo 4.314354516127875 6.700140032331651 4.111690259727686
Mo 3.435698598763875 4.069686165653332 3.589340401669904
