13
Energy = -109.36460216 eV
Mo 8.74677727645159 6.24217601430022 7.847478976327527
Mo 8.42407920678751 7.2158854133635835 5.3017078191780405
Mo 8.405235571765898 4.976666349821593 5.850659528387481
Mo 7.4358379486710895 8.386256102948343 7.201762574873797
Mo 6.902310139531483 4.793494526627767 8.295624023606637
Mo 6.275867252979223 6.965647291736159 8.79835099634831
Mo 5.663372377145134 4.186253691318299 5.790015672019381
Mo 4.602540347336818 5.061599463229697 7.754898036068251
Mo 4.6170947426170095 7.5871815618958935 7.130907302135104
Mo 6.854644919792294 5.344615052356488 4.068446760919197
Mo 5.606259194900643 9.501960815948907 6.159295090216579
Mo 6.141466658364532 7.780807379048049 4.644945076616808
Mo 4.4830315754363115 6.068100213610783 5.2128154922423695
