11
Energy = -86.24487621 eV
Mo 6.924952239569107 9.26775101193073 9.534763987181595
Mo 8.69743135170502 9.788970345467332 10.885979048109558
Mo 6.765173566884411 6.725240781828306 9.01202590662859
Mo 9.576174551791224 9.754425441227049 9.010991737630727
Mo 8.185748418565373 8.305154429505851 7.411257195511946
Mo 9.58356328285388 7.221485626409905 5.375341444713812
Mo 10.918708502612517 6.738842124643069 4.007936119651316
Mo 7.024166226318054 6.332530235487206 6.200250804051048
Mo 9.072358499151028 7.832861265303551 10.178725163977177
Mo 5.39808786869346 8.047227018328028 7.441370987313113
Mo 5.095988768377684 5.9557976964166075 7.457910489406784
