17
Energy = -148.0121083 eV
Mo 6.606696356722253 5.94702028389514 4.11585860592484
Mo 6.936486734298841 3.596827793999289 5.687807370067117
Mo 3.899453521047233 5.8464278068714535 3.8903120933421604
Mo 5.83230392705678 3.338769192411916 3.309666408996882
Mo 2.8172407821236245 3.3564010336800805 3.2010521034037343
Mo 5.507278097461383 7.868221539359924 5.21632287048908
Mo 6.381810173128216 5.583585504546286 6.728437486696314
Mo 1.7026446534257105 5.339337256596822 5.003508218395972
Mo 4.96501040439592 1.8615549316320845 4.17217485484802
Mo 2.178196078264674 2.5600535115568226 4.814289160102443
Mo 8.630725486914502 5.690907129196189 5.173704738047887
Mo 2.35413116433958 4.493364476263554 6.854014340038378
Mo 6.761662197274535 8.220542479351858 7.252363846262425
Mo 8.118658229585568 7.962783615775685 4.883338003419101
Mo 3.8096179421850405 6.567814040184697 6.253952292928785
Mo 8.512748770727216 7.123122028915691 7.303977484437989
Mo 4.416036140120898 4.073968034834335 5.569920781670695
