14
Energy = -121.04446093 eV
Mo 8.557931384096342 3.064314403849967 7.057896578271776
Mo 9.35804902039242 3.958529937115658 5.656122285729648
Mo 7.619275661947485 5.648342285127659 6.883246131351474
Mo 6.025324104524921 4.631624952464386 8.034992647850792
Mo 6.636261555603887 3.9720564150601314 5.173485101099967
Mo 6.460461521552383 7.92155000841442 5.902635278520797
Mo 7.243319733411583 5.916864751622756 3.979487244022083
Mo 5.556247485286938 6.948929297032924 8.441917312352786
Mo 5.12297278839755 5.882645365281587 5.843119013963207
Mo 5.295894858446067 5.511642161907213 3.1328843078261204
Mo 3.5169471928836806 6.467129595693455 7.951379579305314
Mo 4.015424667754378 8.402368680385816 6.519477995418456
Mo 5.042901734245185 7.818828561974148 3.9198155780971327
Mo 3.036246657168737 7.156145470636659 4.991099493419382
