18
Energy = -157.97313492 eV
Mo 6.107545249866101 7.736073902588467 8.077584610438409
Mo 7.24780635116338 8.553851983378104 10.405799465146888
Mo 3.556586633722926 6.407839275959236 8.057856126404278
Mo 8.976652661288467 5.721402984208249 4.477870073610538
Mo 7.459221937135324 5.25112988861844 8.86787138968239
Mo 8.154141669403623 4.238578669882326 7.370658657843685
Mo 4.619606640094001 7.916507783266641 5.910996422852681
Mo 4.626988731996389 3.599421453718492 4.952158011706967
Mo 3.0153244094899554 5.553737912060483 6.528114922739019
Mo 5.25000406873081 5.33520196936725 2.7847667985772775
Mo 6.517633181317348 3.720757864829123 4.839127148831964
Mo 9.01890040815073 7.589488871339695 4.451816334748683
Mo 8.557290703119978 8.325866899632768 9.216379446538257
Mo 5.757202011974286 5.319643138985336 6.797394731908279
Mo 3.9218159807986654 6.2418965694922095 3.6741836199787876
Mo 8.15752591404173 6.823797679761411 6.843702352049273
Mo 6.626294268662243 8.97684483850386 6.13920765050947
Mo 6.421478300119548 6.650021905016796 4.7737454916542
