13
Energy = -110.50493319 eV
Mo 11.182668967049437 5.139678116237454 9.274261026874782
Mo 8.285136211203431 7.844138349631228 6.519161577845819
Mo 9.751544755294294 8.997382367426018 9.387714868211592
Mo 5.827326565346716 8.164720596500805 6.66815130591294
Mo 6.205913792777253 7.068952591348766 8.272831524187117
Mo 9.348192333130426 9.845782932013316 7.075235447459483
Mo 8.82427409288002 6.653403604000829 8.807764668750647
Mo 8.102018711668023 10.910068511012524 9.229878597612261
Mo 7.476881084104239 8.749524486304036 10.324258345658357
Mo 7.141084672654201 10.50893268005454 7.002678751302238
Mo 5.937715188573127 9.618825578120699 9.013341662424073
Mo 11.272013767343273 6.655960341264245 10.284254841381905
Mo 10.546157298589712 7.286496285908347 7.600345629628948
