12
Energy = -101.63169072 eV
Mo 4.082284426044624 5.769747924404256 8.905103274529028
Mo 6.389121210372182 7.905586505910964 8.494040207065146
Mo 10.557997027417727 8.058329571210107 6.11576738469946
Mo 7.961487722497578 9.942592687706346 7.8678405204473885
Mo 8.92719391162446 9.446490706398235 5.424419634335043
Mo 9.968062734410838 9.482679978921254 8.024359081043846
Mo 6.9274933432196395 8.148082092461653 6.056685950801644
Mo 6.302781072645945 5.593657839504162 7.006681221386163
Mo 6.957444447924002 5.134019347424388 8.714110526424752
Mo 8.598448375402986 7.242740010926907 8.131954614528043
Mo 8.736687290386902 6.674627214477315 5.782710673740522
Mo 4.898576653735464 6.40546422139884 10.366752991775124
