14
Energy = -118.82755821 eV
Mo 4.180898910722841 7.0866165512573245 6.055638186973783
Mo 8.30073191222342 6.692420130727369 8.821382991131948
Mo 6.215624778006403 5.4070975164457495 7.084477735619964
Mo 8.354002409341806 9.16223966577957 7.464031320750603
Mo 11.366638641733607 8.819442424428605 9.912077481747612
Mo 4.604512533893255 5.152999974028567 5.209035636754751
Mo 6.285694168622364 6.519475664491117 4.431155261102581
Mo 6.250582994331761 8.615130451273785 5.696014560518747
Mo 5.913439521639372 7.669998342466258 7.8792890326796465
Mo 8.007635881274101 6.7214294456413874 6.250318618866033
Mo 9.818203889109585 10.193938828800919 9.32777320670841
Mo 7.515432920901945 9.054537172790177 9.711398086039265
Mo 10.246700489280816 7.74589725415476 7.967285330120647
Mo 9.421186762138884 7.894300992868166 10.722042045407763
