16
Energy = -139.75317294 eV
Mo 7.538345432273284 3.7964569183828427 6.780193076484594
Mo 9.089631809241181 5.890222035502699 8.276297936214904
Mo 5.719757363780867 3.6586896795566277 6.734331628817571
Mo 6.391569141674282 5.745148057329773 8.590899029617935
Mo 4.231542434191894 7.3670335614639475 9.289053971983343
Mo 7.82541192620636 5.33408246832114 3.907017363405091
Mo 9.424160482977314 6.211980381504352 6.4749640415077385
Mo 4.087419304558035 5.931360769910353 7.386895428394448
Mo 6.298155800356636 7.882242871404198 9.656504767561978
Mo 6.43172137394305 6.3174056650123385 6.035243280944318
Mo 6.586625727718905 6.433450775270212 3.231921065739463
Mo 7.463064783319263 7.986095854568115 7.385153158800661
Mo 4.978688685668837 8.484660805154542 7.024364951170087
Mo 8.47416312932219 8.332174818110364 4.682275923895793
Mo 4.299189313550093 7.278069954610169 5.28375636403832
Mo 6.80451928635966 9.037682247386797 4.867975047562655
