14
Energy = -120.1263945 eV
Mo 8.573672385084555 6.900830036331811 8.33957100015943
Mo 5.868684516979684 6.2286424716585564 9.07120173745961
Mo 7.947621985624389 5.148925215511633 7.329228507723378
Mo 6.406599494408312 8.28288052967688 8.87894516648017
Mo 8.914465601999085 6.816690848745528 5.582948741930467
Mo 8.76412567408198 4.8083057295618765 4.657470234796278
Mo 6.736491588480786 3.8886658917462724 4.960593351432111
Mo 5.420786551649211 5.353721240272981 6.429842957225087
Mo 4.634586760588592 5.27600416861564 3.818850022730276
Mo 6.465366059525957 6.31023852366208 4.032145961202564
Mo 6.687205971908696 7.468018549719583 6.449987340956402
Mo 4.271910609423232 7.484604117556886 7.603331734693255
Mo 4.218427932020879 7.814344244399514 5.113966253332268
Mo 3.0563350514936873 6.13979319365265 5.724248427063401
