10
Energy = -84.09619655 eV
Mo 5.850670081421906 4.634112298304825 3.3950494040296086
Mo 7.248496140389919 5.610656650404091 3.9257503068030095
Mo 3.4826347600369405 6.527192209512759 3.5947996478700874
Mo 4.6223548834896295 6.729242506309409 4.952372873838615
Mo 7.051746275391343 7.170878238030075 6.556480950165748
Mo 3.3283539878912394 3.7121674242905933 5.0057985623609484
Mo 6.167857446280828 3.5501776487067804 6.030686298823409
Mo 2.421365947721183 5.034185360852061 5.816333312133843
Mo 5.154660686702606 4.61387229785035 7.103960523720385
Mo 7.921172339786847 5.666827914851587 6.868080669366786
