18
Energy = -158.47033016 eV
Mo 5.857006165567269 5.100013111894453 4.7641026171650624
Mo 6.698154862197899 6.672274847332513 6.719182535524273
Mo 6.636891397003973 9.458464160536652 6.416456475675525
Mo 6.660228760343969 3.9040812193448935 6.735572424887488
Mo 5.157631755320236 5.325889776656363 8.330846265202542
Mo 7.500583987239089 5.720132768295739 9.15286496974616
Mo 3.842042650896505 4.145252959399522 6.328227764005773
Mo 7.445846293183484 8.25644626871783 8.591832553745784
Mo 8.790894102443822 4.84311218338262 6.99870289739417
Mo 9.307438372044533 7.445259656381925 6.971326194334116
Mo 8.275902103792918 5.452710016281272 4.794235626487607
Mo 4.882072517930838 7.776760894525537 8.538312163729874
Mo 6.699326422185538 6.8742105583873565 2.884501654136447
Mo 5.416577554296663 7.67421768852561 4.103785417839336
Mo 5.886518235245061 6.996479322895346 10.341329743935455
Mo 3.7469107494366134 6.076401544193272 6.115914140269923
Mo 8.769350502912246 9.768887720225981 6.8558517771793825
Mo 7.999336855619142 8.036300571637181 4.914319960896116
