17
Energy = -149.8602074 eV
Mo 4.648904174273189 5.376136140033107 8.551923852157884
Mo 7.52963254671886 5.3031084293715365 7.443312879941093
Mo 5.8213391391449205 3.0120095715909505 6.65102082503996
Mo 3.1606840556913367 6.549216217306338 7.212220007629158
Mo 5.593406145239126 7.193311330988646 8.012030131066386
Mo 2.908614724613431 3.8227590319636375 6.774087356402802
Mo 7.788819605239048 6.559477162496137 6.040253306094482
Mo 2.5796698316007607 4.711025561056206 5.161505883179859
Mo 5.171303020716059 4.995609212497216 3.3286755269369372
Mo 7.899629529886917 4.953239679282794 2.146248503484832
Mo 7.124796244180888 4.31969064816408 4.67692342992131
Mo 3.5760095945073083 7.440431171360453 4.314781893314538
Mo 6.292325200367632 6.8258934996117215 3.711929003134138
Mo 5.170853929372037 5.604317550249833 5.852639502095295
Mo 8.939505869184927 6.026756627075019 3.2108441634498663
Mo 4.9058506921565055 2.7083806359485556 5.003125143601329
Mo 4.599321333203607 8.309303167099852 5.619144228646532
