12
Energy = -102.391192 eV
Mo 9.537597192061336 8.519203218548073 9.018702356402988
Mo 7.36453720973158 7.336769958756775 8.100549981238945
Mo 8.116345861740596 9.650334924083712 9.171998087502164
Mo 8.128318552222431 4.705267954968787 7.654777565341869
Mo 8.901877474746891 8.194289131968985 6.156605437212875
Mo 8.11848230853909 6.565889349519277 5.459552269434153
Mo 6.166927404306669 8.607144412960977 5.251168379273325
Mo 5.552973288931911 5.9741438056224725 6.429814016539058
Mo 5.525991115062306 5.693548614468295 8.693853192487909
Mo 4.716103253406033 7.626733669746294 7.609365600549118
Mo 6.412526493237413 9.606262748485323 6.82727751989783
Mo 9.632202257804208 5.6942950756215955 7.80021732646979
