16
Energy = -139.45154066 eV
Mo 10.09451198980833 7.781167511486766 6.463579697434519
Mo 6.276567767286853 6.249186640677671 5.541048171330403
Mo 3.277066846919109 5.727036465719795 5.252728721368767
Mo 2.5866370577120765 7.217894351510227 6.054061117498303
Mo 4.770221455885851 6.004025462266113 7.474181148968522
Mo 6.565337368850093 4.402052681182487 8.763263738021934
Mo 5.456028770559377 3.921054475241786 6.815057743239665
Mo 9.30324304981687 6.436072435177831 5.543260644307054
Mo 7.313036079844301 6.8692029141568245 7.582735315184367
Mo 7.66052730944464 8.95907855030352 5.32819306015901
Mo 7.913505780266945 9.596836173250082 7.067567592926382
Mo 5.152793285741364 8.626119502939252 6.45918242283838
Mo 4.8242880704715345 8.176284285032956 4.567060150320553
Mo 9.739079313778351 6.033827069942149 8.754785244768874
Mo 8.077775467150182 4.449612066378007 7.248112320780394
Mo 9.313792101656626 7.719202768916469 9.265980542498445
