14
Energy = -121.58101128 eV
Mo 6.4755507079866 4.27080119735346 8.159678663177186
Mo 6.367268964584723 3.682850157298298 5.15683921526458
Mo 3.6400838062948386 5.367169775833864 5.9365784463738835
Mo 8.143418274100656 4.369850720348044 7.314494558210829
Mo 7.633978259511252 4.828271594662478 4.331838617614255
Mo 4.216532073790831 6.071203479055618 7.9505722111407735
Mo 6.219895880802473 6.139729427154794 6.158233723775486
Mo 5.117151620740317 5.940405922352244 3.5226124697496703
Mo 7.355176393053768 6.976418771733353 8.335433306158736
Mo 8.725880505126776 7.092684648360394 6.50574615331943
Mo 5.324582313590638 8.245551515929462 7.743214057693967
Mo 6.18353755831119 7.465122384090042 3.747877447265527
Mo 4.117349437621748 7.589418542823425 5.69508266835768
Mo 7.1982477198995 8.64379751106188 6.1938066336765685
