12
Energy = -102.57131675 eV
Mo 4.81287960689877 4.439644288406431 4.908005508129303
Mo 3.5382869893795035 6.943693813801093 5.243445152916018
Mo 7.246027566616904 5.122687358535794 4.34549744858315
Mo 4.487135783045039 8.00533981609508 8.01371224447799
Mo 7.773980274003133 7.4743108025315905 6.029487606969901
Mo 7.770204945155483 4.77992531797189 6.854560861598756
Mo 7.548074395831051 7.404644231603378 7.883835901107356
Mo 5.1272805349977455 7.163087390701032 4.287658511812737
Mo 5.942675734664944 3.1529916981289055 6.675718845266475
Mo 7.222510342003937 3.0692019614884134 4.7348749953525076
Mo 5.25214315745435 8.958093350005376 6.691126893773379
Mo 5.628178316391983 5.789652742650712 6.67689588857046
