14
Energy = -121.07940524 eV
Mo 11.764731763982128 8.515389203072692 6.769041520846633
Mo 9.098104234535858 7.348787399139603 6.818922980028907
Mo 6.4737406595208755 10.14621274223823 6.173320275422668
Mo 9.393993016697543 7.0421294368601135 11.134632104261982
Mo 11.134158458763576 8.644634158192304 8.469119051015117
Mo 7.57600174783768 10.712248240872624 8.135104028100677
Mo 6.623808913321567 8.502628026315547 10.964465667956716
Mo 5.8898396423912915 8.789375183030748 8.378321773957142
Mo 6.597820036020507 6.684499114183289 10.294475569118609
Mo 7.084134083027471 8.150792453075704 5.540861381334092
Mo 8.363914026195747 8.526385472109872 8.984883503031098
Mo 9.172127212298554 9.635820997462492 6.595937077170396
Mo 6.750241064831387 6.782216961598194 7.652484334817743
Mo 9.5101297935483 6.062969149867692 9.637343400436407
