14
Energy = -121.47089762 eV
Mo 6.525885130963106 4.413788244340325 6.662753412907195
Mo 7.292663148239599 10.779417840439038 7.752557639145641
Mo 8.500257917677947 8.566442667505791 8.052293764269896
Mo 10.848904919039327 7.272904286052771 7.832735542868009
Mo 6.578442235169037 9.38541710685512 6.24077700939556
Mo 6.265884904532048 7.13926641061796 7.543263134739118
Mo 8.671172376171054 6.183306961590337 6.7283230317786655
Mo 8.75002951895284 8.232246936372606 5.346819446290347
Mo 7.159897227045955 7.555343986083583 9.780642100346924
Mo 7.085842158444757 6.931072380214774 4.996163478702602
Mo 6.684421446166057 9.809932270195475 9.948506108480741
Mo 9.859041325410765 6.401277404670563 9.164674996055284
Mo 5.148694277670091 9.17135076874988 8.425190476409341
Mo 7.079203106358877 4.687739305062523 8.397840395551878
