15
Energy = -129.89183201 eV
Mo 7.0567286699357314 7.290095480223008 4.741118201526351
Mo 5.531979886539921 6.508178835270486 6.725212866864056
Mo 8.786517929519366 8.205482757169339 5.043172528647967
Mo 8.40932070815362 5.444554460289691 6.363708706830244
Mo 6.145914324943838 9.47317378295372 6.31261607000989
Mo 8.18246938922477 10.315491289641933 7.00905619325738
Mo 9.465290312630032 8.725825513954284 9.098819581181175
Mo 7.745211572862991 7.734412459010884 7.457148956858468
Mo 10.169582930535215 6.721647037550007 7.067506998920988
Mo 5.242345024139024 8.369126242624496 8.195922178579112
Mo 6.959341106305729 5.302659953502461 8.274365037888085
Mo 7.202611429715331 9.896760435226845 9.01970352021775
Mo 9.220577961044844 6.138203804958372 9.102144061896128
Mo 8.611012879734394 8.220597876887295 11.171137078526657
Mo 6.99703703130084 7.379731227323139 10.14430917538225
