18
Energy = -157.67244212 eV
Mo 7.3346048433905455 6.841664188322982 9.300894916951451
Mo 5.545095834469053 5.373496638567607 9.699041733682956
Mo 5.754832573914416 8.341344756329399 9.870002954494758
Mo 7.521713434645656 9.772746787867579 9.214373289526266
Mo 6.427243911128675 4.499974693192597 7.704036702879867
Mo 4.99182079956517 6.922118583072338 7.741229177320948
Mo 6.5247067677462605 9.554746520140101 7.369845733418627
Mo 8.88840676345392 8.250620881491573 7.4631097519827385
Mo 9.685652025766963 5.805526183332034 6.714974740690819
Mo 7.0441345284209795 6.9378274871483026 6.5520374899217835
Mo 7.441742589485861 6.949085558417002 3.7312946082978917
Mo 5.09420982613063 5.878443793572778 4.858214224818512
Mo 7.619447475478805 4.968098332275652 5.2261268402268986
Mo 6.154345328865091 8.569179813553655 4.665945417800551
Mo 8.283042719623383 9.122010984170126 5.207360534072809
Mo 9.833487959810627 6.87988534848549 5.050723167798728
Mo 4.239462458523269 4.419311751281552 7.197769327183458
Mo 5.201719009070857 3.7919087631838257 5.124916362985497
