13
Energy = -111.81816147 eV
Mo 8.61376928086209 5.142274126112877 4.584544112338782
Mo 9.884578958695139 6.335510127929736 5.013536806185961
Mo 5.976880361019101 5.754764657735886 5.362953777186568
Mo 6.111990989085393 3.040602087193398 4.866568201496413
Mo 5.8561891861795035 9.598299353827475 6.296552600521696
Mo 7.515808013859152 7.825500854399084 5.506739094358481
Mo 3.4182757921541698 4.69641240180011 5.842364931773995
Mo 6.4587817727568355 3.4286633830935775 6.578554354400229
Mo 7.763126586027383 6.416948792269544 7.096778800464655
Mo 6.360372064317697 8.475771158231241 7.913088608680296
Mo 5.097657780975207 6.179730130762976 7.758845389225289
Mo 2.3144196106080797 5.643919202901801 6.898567409750526
Mo 4.344488910090786 7.54461759958211 6.295239166987478
