18
Energy = -157.5350985 eV
Mo 9.227946654579029 5.23957384622573 7.076259005374621
Mo 7.97453877100619 4.963590617711488 8.458778487795108
Mo 7.082626993580975 3.6771258933368136 5.819392517427708
Mo 7.9086879551142895 5.101222797358297 4.645470851356864
Mo 8.381575870010238 7.569243581902879 5.710472180480094
Mo 7.7052292905432305 7.57954645015216 7.832619274517651
Mo 5.275805122394269 6.239476359622552 8.78504740089923
Mo 5.381821652296855 3.8880858231990088 7.71504154979257
Mo 5.982571275421771 6.273217993962731 6.249558825896504
Mo 5.313845568305891 5.018526017102646 3.938879999024212
Mo 6.127842610610657 8.925373645464651 5.880087693610754
Mo 5.453013223029718 8.746899362165664 7.768181588104801
Mo 3.499701211799169 5.017125853038792 8.50504056310237
Mo 7.897718864495447 6.813942475459391 2.4984397422162394
Mo 3.3459803382138005 6.869479020101536 6.579571925311123
Mo 4.072046341893571 4.468470221915759 5.659258435768016
Mo 6.531735703486538 7.611303151572315 3.3124577851035673
Mo 3.9599487431017923 7.165903459189191 4.67567211984481
