19
Energy = -166.81029447 eV
Mo 8.894432931642267 7.909804247369463 8.53414032224378
Mo 8.968269816904193 3.9717053438010046 6.116144154194625
Mo 8.782782597324434 5.2238064561037865 8.21302201680033
Mo 8.338850203450518 6.367030161753678 6.0840060502355096
Mo 6.652301805255011 8.36381278389261 7.028501154231162
Mo 7.244277343759592 8.128737029675634 2.991215793313305
Mo 7.181782394106767 3.1116185615280934 7.382376378319457
Mo 7.40108909350618 7.365172820629488 9.605643770732724
Mo 7.596365300691398 9.140961387251073 4.451013416539124
Mo 6.787089450910162 4.4758335605812505 9.29669141683691
Mo 6.473693356877187 4.26049068706415 5.244751236352645
Mo 6.045716889972837 6.798298910393718 4.872138631965
Mo 4.970519363974787 7.851057352142199 8.318723809086395
Mo 6.009650155570069 5.689031339377983 7.410181797942937
Mo 4.054892761932382 8.148224579367794 3.8089651391848407
Mo 4.437374681913083 9.028609957517034 5.489706466810566
Mo 3.984190528447302 5.242071632892084 4.3751314283753535
Mo 3.725099154637779 6.664834073291897 6.304932465076148
Mo 4.252135254590415 4.086301641274975 6.251875524708152
