16
Energy = -139.70290774 eV
Mo 8.308601962505447 8.154414267082023 4.98659950652433
Mo 5.884134701057461 7.5484347010645445 3.3680728928658996
Mo 9.34892436999059 6.830895449041739 5.685387648587688
Mo 6.71983377261384 5.841655889856109 5.024155959677411
Mo 5.6773412689671705 9.189800904799654 5.825754399940323
Mo 7.004892303009112 7.146672501510632 7.260365210506005
Mo 6.307413846468906 3.161131747293217 5.449696838225508
Mo 8.041143210683067 4.770401907876179 7.288101017073422
Mo 4.670358751316602 4.865927299731905 3.8090359588941873
Mo 4.690059278129425 8.249441929888413 7.146943409186604
Mo 5.924708506014154 2.953670272140124 7.312027082300636
Mo 6.529493895353762 5.253600603192248 8.735461741657605
Mo 3.427747978981874 3.134612589695825 5.7783612401768165
Mo 4.199133516441988 7.1026280698815265 4.582118756116085
Mo 4.930125753283703 5.4738289984098705 6.641297440656474
Mo 2.610413924313192 4.767602542715111 5.286884803994323
