11
Energy = -93.47759386 eV
Mo 5.043877430749904 4.738550422722509 8.165992168330744
Mo 4.685287783617165 7.345952872982521 7.3387349508450646
Mo 7.4481893490477775 8.939725334756531 4.6774304582291295
Mo 6.700674863825914 6.710063822092509 8.279229184434339
Mo 6.152859888300694 6.647067026847162 5.606318074675057
Mo 8.63737764822641 6.084713429811495 5.052428947329878
Mo 8.682829963859644 7.369057142826651 6.559242761006284
Mo 6.441573531065169 9.333910030863041 6.133900572499637
Mo 5.931350610887853 3.9487521790178306 5.84464010290677
Mo 7.569088005511438 4.744769642186119 6.993592111494518
Mo 3.827292739759505 5.257839935469888 6.468892433650141
