11
Energy = -92.97627346 eV
Mo 7.428064528517076 10.15197857616714 8.188880942768789
Mo 8.69015377959676 7.671060004649841 8.15965825356568
Mo 9.627438711237843 10.021320951752404 7.565707513904511
Mo 9.201876611851235 8.845144499700625 5.686237799776671
Mo 7.449187122487358 10.24343840080389 5.901760591506245
Mo 8.188154053246496 5.5275406945275 6.655982894526359
Mo 8.116039666874444 5.188560318309858 8.883640227912451
Mo 6.386165921544551 7.496373136905901 9.185091424191448
Mo 6.833666367745273 7.85756223476695 6.736097329511366
Mo 5.9619379791004885 5.422652294197595 7.238906564269604
Mo 5.8659861262472655 5.323039756667204 9.546707326515534
