16
Energy = -139.66779847 eV
Mo 6.050550658581741 4.441185297331218 4.6693746908279214
Mo 4.789479129469875 4.1881377469206065 6.078889283646734
Mo 9.038773155105208 5.414500556001479 5.851282916580022
Mo 10.305716941271992 6.398974217825691 7.482691710742257
Mo 7.393448114698575 4.135919833933801 7.0984259056798935
Mo 6.722918519023115 6.630966642368174 6.094668551913074
Mo 9.020773221568804 5.15543483860221 8.640450973751049
Mo 8.71072926624902 8.256412597478164 6.336772385479542
Mo 6.216997089997237 5.824127620377851 8.302241976470402
Mo 4.412829389503857 7.096416960634136 5.043537599428073
Mo 7.923201084918712 7.782322711716568 8.353889018170559
Mo 6.08739286003283 9.14516733602273 5.383288447711954
Mo 7.423304491290144 10.406423065630209 7.275156764763971
Mo 3.8771908683039147 6.54212823032406 6.974459011592308
Mo 5.237780142142561 8.668553166183974 7.313535486732907
Mo 6.696817795865514 9.90238644921981 9.087114297973155
