11
Energy = -92.89304612 eV
Mo 7.818936950009193 8.306300972623118 12.786349597827881
Mo 6.603701714819628 8.5435389196247 7.612337048232619
Mo 8.165723181294721 7.27743315472265 8.828872428777611
Mo 10.023124419326965 8.666609670739973 5.886405985031205
Mo 10.351158890367604 8.065653257875 7.812949978898179
Mo 7.549809410099863 8.315273552375398 5.442086524620493
Mo 7.232253751703935 9.443405328120837 10.299752084638898
Mo 9.154228956868476 9.583782599529 10.280426301735293
Mo 8.558616881702058 9.851951271392126 7.765938676324882
Mo 8.351507008372018 6.591924034466788 6.4659732210572125
Mo 7.941334910732135 6.964551185604478 11.647124100320653
