10
Energy = -82.84677748 eV
Mo 5.272012161843182 11.394035527527466 7.932190407922952
Mo 8.847125342721755 8.98172386520133 7.83935282464927
Mo 7.13568967697122 9.639236413547218 6.329338059792347
Mo 8.896304187228221 7.114954392855425 6.526390457390613
Mo 9.775739693861805 5.043310061923246 7.942768621866458
Mo 7.677990825015192 5.397728868481387 8.202238288052236
Mo 6.564589027499924 7.673480407640254 6.997429191802899
Mo 9.683070007850217 6.88821705219673 9.219198905085173
Mo 6.061886376856942 10.0880279182209 8.76669256929647
Mo 7.4233727979023785 7.486916733866859 9.478430135040488
