15
Energy = -129.51074915 eV
Mo 6.219428508770849 5.774247625163253 8.066077574284693
Mo 6.363595279710302 8.011996450385418 7.290836445055355
Mo 4.039356799447742 7.103432285934897 6.5693668049269105
Mo 4.229276928071616 4.693756961594524 7.347236767428776
Mo 6.836858866283664 3.154328188822201 6.911003621320446
Mo 6.255708974354238 5.717732975575322 5.641181800612052
Mo 6.316487026157335 8.053785186050947 4.942032767668595
Mo 4.978053495751292 2.7865334241521564 3.509988059421398
Mo 5.397599979431966 5.216122700428467 2.2429948153612744
Mo 4.332509402118581 7.08368910623562 4.0558314816845495
Mo 4.131760033716853 4.671890508993476 4.815841998003204
Mo 5.235168342121231 2.3483503865506474 6.211998030244861
Mo 6.8653308058906255 3.645373520602301 4.199262068830967
Mo 6.985043215570401 6.087815721299211 2.8598628301080105
Mo 2.2779152144584502 6.1150378300662895 5.800577806904047
