13
Energy = -110.77572322 eV
Mo 7.097373105880975 7.513799788585931 4.873296721974946
Mo 5.811508106254892 5.97696445779263 6.688503502263958
Mo 5.353258584551507 7.756508063740155 7.255343867093432
Mo 9.331967457818452 8.44317374510481 6.322652806544707
Mo 10.860684470369646 9.47660302183573 8.355905166880937
Mo 9.627486395108994 7.373797068015713 9.982835958557438
Mo 7.80081255126075 7.214956394153551 8.077518541566285
Mo 6.512855104792799 8.660049213121571 10.002527462849352
Mo 8.410508749998364 6.145230689773299 5.764611745738068
Mo 5.306983608013436 9.666684476794373 10.686790562735846
Mo 10.317080489327815 6.586978726149014 8.453466872320595
Mo 7.417582118235159 9.44788787594571 6.552840920166325
Mo 9.12866906413133 10.048441961667843 8.63630410164835
