17
Energy = -148.13590704 eV
Mo 9.223922677004714 4.968688467059562 4.872863432980397
Mo 9.662620839184406 7.080084052404233 6.681041472354407
Mo 7.278424464685973 6.73499211793482 6.194143435003424
Mo 8.705006271130326 4.294792981087487 6.554850540519347
Mo 6.433657881276221 4.994253923085601 4.7109995545190975
Mo 8.52655912866426 9.29939844161596 6.283359835941731
Mo 9.548778506804506 8.366746790100478 8.637291325052267
Mo 5.026932565802371 7.3087014855733266 4.527059526710924
Mo 8.138729521684878 6.272755450125692 8.784373880061358
Mo 7.687072844879609 10.132667408166036 7.997158475379789
Mo 3.9077042528528154 5.25586460971233 4.967111307412978
Mo 5.819294005635461 4.429517736358005 6.864313182404075
Mo 5.842194317355336 8.63078663740884 6.929723077470063
Mo 3.5840980438445733 7.5361442134738805 6.215178933830579
Mo 7.216388158384252 8.132191410141584 9.565019973187377
Mo 5.4899354367421305 6.676519770145879 8.203960541911684
Mo 3.6105268025085877 5.274444259446298 7.353734231107246
