15
Energy = -129.89572746 eV
Mo 6.498347636585886 7.740919271553347 8.368345028406676
Mo 6.852331340765121 8.652828894597452 4.871067746991682
Mo 6.356030008967437 4.196755373777826 6.565804812062471
Mo 6.038610632233015 6.874344789564119 6.032844490627209
Mo 8.56254653436887 6.472409445286179 9.008211461190363
Mo 9.509887857154196 10.414901605483497 9.442337012144634
Mo 10.185110055720585 8.827332895073427 8.743065767543378
Mo 7.984337375720963 8.451752554995904 10.541983843689144
Mo 8.851686719392076 4.824669814042611 7.084019342000989
Mo 6.3255897898536935 4.993655773735688 8.322430726001175
Mo 5.726350327681921 9.700332760019881 6.469317156856756
Mo 8.149646013274443 5.761518233518547 5.199356684179908
Mo 7.833577839627697 9.91809491212987 7.262169611554776
Mo 6.750263316086772 9.892997897950305 9.555899111265095
Mo 8.633762603486051 7.535563829190807 6.7912252564051006
