15
Energy = -130.26369549 eV
Mo 5.927284073450061 5.891417604283714 8.344814982533878
Mo 8.490902201883863 7.423621276348475 8.381107928242509
Mo 3.9703934489542485 4.14360270782328 8.085133400433714
Mo 7.55887523359773 4.493975737877117 7.827796069920739
Mo 3.3590543540719606 5.757978182264894 7.115657445025299
Mo 5.586591666880201 4.439746584977088 6.041390821705693
Mo 7.825209161929378 6.077312906527433 6.121767816602986
Mo 5.531617343799177 6.793973081624075 5.828026979611734
Mo 9.335930172229626 8.406509929723299 5.703554173221146
Mo 7.085695815314577 8.377229973580954 7.602331226754089
Mo 8.038972037827667 8.3005200873712 4.482046013791438
Mo 5.63988292383834 7.082101694102737 3.075009532270373
Mo 3.635645516929763 4.996516046916466 4.172642672343328
Mo 6.605054430083915 5.589839143154282 3.454270425934809
Mo 2.9203199601179395 3.737083452587609 5.275878852516414
