18
Energy = -157.29099059 eV
Mo 6.180760718062321 5.997640448716564 4.635529358985492
Mo 9.592985186504315 5.768548061910094 8.089375745953433
Mo 4.916469992303592 6.6956829530438196 6.578776366842212
Mo 7.342256245135077 5.629557295648092 6.877555806685078
Mo 5.576978955354525 8.756441045450233 5.135342657565417
Mo 5.411401047245008 3.815421552896628 6.1634347236578835
Mo 7.972632861530929 10.55493705639796 5.2478488468037385
Mo 5.348081889660143 4.290329523210406 8.322354530827168
Mo 3.446319238131275 5.296795432529691 4.62322683927822
Mo 7.3776970528749155 7.967333769761732 3.5878656348553255
Mo 7.992070207589206 5.214614641393614 9.535025164425814
Mo 8.942031505631267 10.19523178886472 6.731407149050342
Mo 2.9385880897714096 4.806236363260684 6.36031197381969
Mo 8.25397024571498 7.725918943768269 5.51579263451043
Mo 8.435591385372952 7.766825185528108 8.448825958107218
Mo 6.286953827545523 7.016219785239163 8.81652649580661
Mo 6.338726563436388 9.10175327572069 7.080846403479337
Mo 7.418784445345969 3.3504703855284643 8.045091987245536
