10
Energy = -83.46845228 eV
Mo 8.090004628335382 6.5809099376802225 5.169838015532875
Mo 10.619579293455427 7.655477824394464 8.981031568565518
Mo 6.426066964228831 5.734449025681226 7.3010404872697805
Mo 8.347955965684173 7.172004141432719 7.580849355581842
Mo 6.007816174109802 6.125129612414438 5.049176616975167
Mo 5.317869925970027 7.842826619780666 7.081908563429342
Mo 6.978121660909302 8.651630303087483 5.693455051042336
Mo 9.27396303501822 7.809129002482023 10.140751896727698
Mo 6.4005988522817265 7.910447618518311 9.364495439020223
Mo 7.291205960095432 9.385344081742172 8.28499480638515
