15
Energy = -129.00137084 eV
Mo 4.730918358964808 5.256204716064751 2.142006529357293
Mo 4.5645173358625435 7.068466634392417 2.489816535212272
Mo 6.6982334612640475 6.277387595684759 3.9823634709951223
Mo 4.288159352865754 5.496728396902981 4.844800329636176
Mo 6.504705328322145 3.7180708885364435 3.755773523968921
Mo 3.9989899835792877 2.9254771666662145 4.46975755437835
Mo 4.995111475070273 8.111964214411357 5.00433905892924
Mo 8.219809502045573 4.908560536466472 5.7579820225330245
Mo 6.5412336916248925 2.6956795753934877 5.511022097294324
Mo 4.057291221810453 3.211796348239352 6.479850707570774
Mo 6.321957662908838 6.873793974636102 6.334916014757762
Mo 4.812844162683701 5.463779306168098 7.691050217071364
Mo 2.39951866041223 5.28575950706815 6.14877734247913
Mo 3.4488745446357063 7.154671351671819 6.83821515335226
Mo 7.245746534373476 4.379571064121623 7.377240718887872
