19
Energy = -166.07929687 eV
Mo 6.132304327108923 7.2537418569838445 4.940192447479374
Mo 3.5195809617595657 8.009983328527664 4.253291368312467
Mo 3.4870275112365654 3.432601579053235 5.8477663701636855
Mo 4.599716019939059 6.531746449209221 3.2367060003079127
Mo 4.705025881583354 4.508225199867618 7.845090427978704
Mo 8.838364913490553 6.268545063837408 5.404132885999782
Mo 6.983036074254423 5.376434784359123 6.824178357685959
Mo 7.777931247013262 6.473624447041339 8.831375067769851
Mo 5.097326868804865 4.153748326154892 5.030211128733352
Mo 9.804947106016384 5.405653589849129 7.297135604967721
Mo 9.861877543452112 9.034841018556767 5.115180080479257
Mo 6.498122941139291 4.116245283126466 9.43307634105338
Mo 10.010332735602105 7.562386456901075 7.555319166175907
Mo 5.219550983214939 6.949457381073135 7.8749431653861315
Mo 4.983709118686818 8.828475554201392 6.194671744947154
Mo 3.800341907811046 6.181929214033656 5.835633980103304
Mo 5.70074058851956 5.805066733079475 10.246227821825924
Mo 7.728642891063409 8.115127996540561 6.9673329425164265
Mo 8.295972931138271 8.977298080365552 4.247448131209354
