18
Energy = -157.74534045 eV
Mo 7.196673971190029 7.499592060789974 3.170913608759478
Mo 7.257795814451642 9.112936610040302 5.462236603369737
Mo 7.339411747640504 5.322877699929146 7.019678748727268
Mo 8.271786492072495 5.8606135915120765 4.342033345989729
Mo 8.51174613559178 6.464831461769542 9.31115329782166
Mo 3.6945380838415116 7.8220770257183405 7.046884678073054
Mo 5.430706415457555 5.419180869374157 3.6321342736055757
Mo 6.839002480854832 4.528735419366136 9.372932478838129
Mo 5.119545031674272 5.722959013917668 8.124446521042076
Mo 6.674655915999278 6.791087687580701 10.33803778956542
Mo 5.230829695280414 3.3199922242099817 6.975580813146897
Mo 6.665899764153699 4.064372206881185 4.80773830668366
Mo 4.609272389910391 9.31027738965177 6.480185722597504
Mo 8.954859661572824 8.497334687769051 4.061148664141784
Mo 6.389736340108486 7.887723013532113 8.114885713497019
Mo 8.453387539042316 7.5275388442931135 6.730320426829585
Mo 4.032272260192683 4.556178533716639 6.021564157871137
Mo 5.864330408635244 6.857672699826886 5.491148335937512
