19
Energy = -167.00779917 eV
Mo 2.5969217894058065 3.266652058134422 4.0594402876659705
Mo 5.330305024733787 3.0212326403353136 4.536238616150484
Mo 4.176777443631076 3.0798789402746767 6.389523417706894
Mo 4.207664167896721 5.214735373585938 3.3697793722127716
Mo 2.0265919537845156 4.617128568415238 5.230551671135811
Mo 7.036298718219673 3.437125747883974 6.721381997917562
Mo 6.954996463385569 4.780607269377436 3.330741245362211
Mo 5.967369979377233 4.16313149565779 8.219120522535446
Mo 5.476478537599452 5.375819011143969 5.7011853836084985
Mo 3.3874978156116677 5.5559109145003145 7.623551449264441
Mo 8.011490223597988 6.077014559983237 5.311567722881722
Mo 7.364465402221765 6.3310521420574934 7.497969609380862
Mo 3.632671502753042 6.816737709468048 5.181815311185351
Mo 9.697197282011622 7.858273180007309 6.537069074549616
Mo 6.177587843051758 6.7890750899748555 3.4023173210920903
Mo 4.6091643982071275 6.981533879439247 7.833646681922096
Mo 7.875758014714869 8.840777143639697 4.830057331563598
Mo 8.375918309188094 8.727005222116052 7.633062095028692
Mo 6.236147288999366 8.248955255651724 5.762023507604852
