18
Energy = -157.87151459 eV
Mo 7.753831437336447 7.896470764450818 4.121412918791098
Mo 4.808956284376805 5.227418178879676 9.036260345177466
Mo 8.877669603533183 4.400980120623148 7.780825869031738
Mo 7.37385616804767 6.5672368292218755 8.920875549267876
Mo 8.772949992302204 8.569562028806697 7.556601685719868
Mo 9.586569680998545 9.540331098145089 5.387779117466639
Mo 5.902980299641247 4.362634345400163 7.763368960618675
Mo 3.3773372491141997 5.192754551550698 6.352550652796164
Mo 7.845331879629927 8.569207862239177 10.085475109942498
Mo 10.115108628602279 7.603906783637817 5.246264224356736
Mo 7.7279295887716 6.458638939248939 6.097235766415147
Mo 6.414182582943291 9.188971577869006 8.77057311007448
Mo 5.247557905666041 7.17362850010903 4.68433271393978
Mo 2.946542167674943 6.792431186865238 7.083942761743858
Mo 9.885515741248723 5.928738768498056 7.846524404259705
Mo 6.908751680268152 9.062584249660699 6.01260545102988
Mo 5.890611982199186 5.211158267290609 4.980677947603727
Mo 5.576422437940533 7.181945459389125 7.261230544652504
