19
Energy = -167.21434038 eV
Mo 3.3202699079718503 6.288425589679545 6.368821473942506
Mo 6.989286170310094 5.002599535406847 6.917176233213414
Mo 7.14808544534252 5.1815465696065 9.581343734824614
Mo 8.209045431417046 6.960416415681567 10.0965306781944
Mo 9.790011331286362 7.107249140834252 5.430168805317209
Mo 3.8262628650886965 8.848828984953201 7.599811439740267
Mo 4.967574442599129 5.853850393685245 8.29110929208374
Mo 9.046102694663624 5.132124827891595 5.486714718503147
Mo 9.741440600072355 4.702462615674603 8.516827431346632
Mo 6.050205881398623 7.707996642186131 9.319604686327049
Mo 7.167823526268447 6.778694493127215 4.432787875982323
Mo 6.005182286259467 7.53862594513483 6.604645577975447
Mo 7.916946299083927 8.669447202288062 5.17343422423038
Mo 5.318689333091012 9.891022893609422 7.903295569521286
Mo 4.52133607407461 8.155235771733611 4.3130162534868886
Mo 10.969378738386586 5.689343676853017 7.705387881625539
Mo 5.0554559717831715 7.341196683279639 2.784307119139029
Mo 8.281197258184829 6.993452534559136 7.587764537017654
Mo 4.72935419833011 5.394643176939292 5.375766852716031
