17
Energy = -147.06217557 eV
Mo 8.439699825156744 3.1865423700370625 7.810565498498031
Mo 6.276986323306796 6.501209105812716 8.333895646698465
Mo 6.904359570915813 9.236714472540482 9.092803390231953
Mo 3.166256622228749 8.24261282838341 5.730400329973424
Mo 8.891205769273094 4.870714081027096 8.024150281299585
Mo 9.050327789970037 9.083194333493472 7.50820514694966
Mo 7.785170754332211 7.015128113641968 6.496623000372495
Mo 4.542964056289749 8.818575637082668 4.57328387114142
Mo 6.587561035160965 6.926024257738097 4.379572810982336
Mo 8.234793603575023 7.542467633939171 9.348631864010573
Mo 8.23347526597107 4.620692229735633 5.140536236389808
Mo 6.7533165124518 4.2659172741998965 4.13863725835755
Mo 5.575875152856197 3.8629179100369715 7.02270545307467
Mo 5.453924136189928 8.516056276313037 7.2867889998332105
Mo 4.350365033361714 3.7385657162713914 5.709721128025791
Mo 4.9353061727891125 6.3513684671958845 5.836697911902554
Mo 7.414214610542735 9.63169036495461 6.32941137244433
