19
Energy = -167.79279288 eV
Mo 5.4598510688901065 4.079890565408163 3.373274981155602
Mo 5.3911604958057655 8.894909042274492 7.392710741859846
Mo 8.36184289984362 7.669687983349523 7.54602340523434
Mo 6.133038431939543 6.137168381185213 6.907783246158395
Mo 4.599070883347735 5.913662233618359 3.011110173584789
Mo 5.123694249638578 7.460274967753953 4.995016825948988
Mo 4.610213432985292 5.497135964789047 9.200991353917928
Mo 7.61552355234773 8.064724127155369 5.441207324356117
Mo 5.803736715049956 8.126385308153226 8.999782630944535
Mo 8.793279523689439 5.73425256692437 6.538907253822929
Mo 7.391324909342259 4.008201055511317 8.478873572367958
Mo 4.406829205470846 3.9184498499459064 7.676234644443755
Mo 4.036362461198344 5.085627289218757 5.512239088388396
Mo 6.8881765940817985 7.681406714830481 2.491525649542874
Mo 7.301104595471865 5.822367294565276 4.429238361152083
Mo 6.322500044535627 3.9264885108371548 5.817639891604458
Mo 7.016789724487819 6.083706490726169 1.6398512549943016
Mo 7.605550550095633 5.570063378189832 9.36860073381393
Mo 3.6073122083419937 6.60281572547027 7.527569412340298
