19
Energy = -167.67864348 eV
Mo 9.248958332275363 10.223789875621991 7.544236923643287
Mo 5.128286851871837 4.727605474825144 5.612165875307407
Mo 6.40674553877334 6.032899201576003 10.3188597662965
Mo 7.57217434233687 5.631485855703131 5.047649705378466
Mo 4.80182953362743 6.8916109845298035 10.166098341547478
Mo 8.88291941605007 6.952130391290262 9.187255142353614
Mo 6.817520673386537 3.518420590450117 6.103371276345391
Mo 7.494941770021381 5.469620474867714 7.7134927777656594
Mo 5.962062625931953 7.14564164866027 6.65649842926676
Mo 9.437013148194195 10.234747428015675 5.732440376736734
Mo 7.21804226757244 8.605043704348008 4.663040336464805
Mo 5.15124879112948 4.913710656160639 8.02232102254572
Mo 10.025227903054668 5.640133201099676 5.885806024024241
Mo 7.190659755566979 8.226926005359795 8.806119593761819
Mo 6.595993183899565 9.697727115897901 6.138495895449173
Mo 4.180236229818709 8.676681217122088 8.029431133213494
Mo 3.4430797844827823 7.027277315304838 7.620469390281028
Mo 8.740248309824215 7.7318100871813344 6.695614529210666
Mo 9.849415124043636 6.9543500864308525 4.441615181486959
