15
Energy = -130.38315731 eV
Mo 9.409559203855315 5.506479939357747 4.961156907674574
Mo 9.41675642575139 4.771125346381376 6.68184248944379
Mo 7.768370885746217 7.752589019359718 4.827331734719436
Mo 7.289099902989209 4.96322769888412 8.716668691342257
Mo 8.331995121150381 7.20033556286484 6.981971665239051
Mo 6.331829112138845 8.995043344400461 6.134471832512537
Mo 6.791955204342685 5.310514168005281 5.87580905546194
Mo 5.718076501253217 7.157214642059346 7.590894239658075
Mo 6.457818166704854 5.193560558943634 3.2718591033716122
Mo 5.240753241227377 7.140694742630063 4.81684375890471
Mo 3.245092405530834 8.168783536066245 6.958319845868626
Mo 4.886804474223261 4.408896753741884 3.8983028979892613
Mo 5.59835676423264 4.416091317328278 8.389729542465801
Mo 3.1509770544522846 7.1141886058615835 8.474451700713624
Mo 4.192070538299547 5.6250785690985445 6.302547688695517
