14
Energy = -120.82836294 eV
Mo 9.16733035513323 4.179401891510494 6.099054063505403
Mo 8.8543640607859 5.391501392768379 7.417423801740584
Mo 7.203495092688396 4.146387729211433 3.396024113080487
Mo 7.580004865033864 6.133257155855248 4.992332723747262
Mo 6.227942736678907 5.564616116304031 9.181497568733032
Mo 6.36755854622532 4.487616511896803 6.351329624343204
Mo 6.365274467193643 5.565242959485198 2.4531815193626696
Mo 4.868095429910535 5.281705738316203 4.583733505448282
Mo 5.210019122661569 7.051219906887545 9.42752756433912
Mo 6.555776698599662 7.316296856296284 6.954680440859752
Mo 4.478237580634642 6.010381908793878 6.991631500713588
Mo 5.470194243495303 7.540160480758871 4.770218960580986
Mo 2.900930502878323 7.674604796362791 5.2629003804030186
Mo 3.685774084184459 8.456082451106084 6.805014042551048
