15
Energy = -130.70383169
Mo 8.744912715543679 8.56711148973686 8.6176947200158
Mo 8.05957102888354 8.971081706459222 11.28259101987586
Mo 8.321908417335761 9.33919220641508 5.917088176107704
Mo 9.158907866503602 6.747341587175382 10.487435170799914
Mo 8.700235429121674 7.43856421665899 6.038549557232955
Mo 10.641585944581752 10.47203104200748 9.350440186661364
Mo 6.618774100815244 10.17773126845029 7.977265078362009
Mo 10.0332990322011 6.190910816633587 8.387179279795362
Mo 6.890850061529885 6.800754820939723 9.711792238999207
Mo 11.392322086940585 7.692130442949885 9.253645391425051
Mo 10.8255576245947 8.567111489736858 7.209332036647707
Mo 5.971751422818763 8.906856229697357 10.091590669127848
Mo 6.512309972340702 7.980396648789297 7.547530219691695
Mo 8.04244716639982 10.744756563684414 9.994843932282885
Mo 9.702155243878085 11.020617584154087 7.749610436463518
