16
Energy = -139.66184845 eV
Mo 5.266489877084258 7.526881209764617 9.694104607795197
Mo 7.078695025567798 7.283028501319753 9.624161351795312
Mo 3.5886396555924844 6.927203480038408 6.438240638899702
Mo 4.411416488924915 8.032054417617701 4.898155968052684
Mo 6.176424503648168 4.84119545194764 2.6766128994644904
Mo 5.645125908462961 5.529241086506899 7.927522838900436
Mo 6.408360068507175 6.808249050295898 2.922112419953651
Mo 3.930979804045599 5.784678820861602 3.837632425519016
Mo 5.824610278974056 5.691061784100476 5.285383717313075
Mo 4.909174919219167 3.1703362998646845 4.741339176199109
Mo 8.183325475513339 4.991252937053564 4.54187697186122
Mo 3.8547177859312303 4.01678746855027 6.084457342096742
Mo 7.119157844343827 3.7005771155132963 6.417493237372496
Mo 6.137654234211264 7.63426247911316 6.964769017641939
Mo 8.0982959056816 7.108484762575274 5.291464878611337
Mo 8.057294193173949 5.587427936649547 7.301290295259667
