15
Energy = -129.04323345 eV
Mo 3.46068226872381 4.901922838802214 3.3028229718677653
Mo 2.1918840925944165 6.541789957654384 4.44614947268482
Mo 7.486489574537147 4.493481905662747 6.4583413883948415
Mo 4.159169772975655 2.831666168574141 5.16970612672705
Mo 5.620210407203701 3.9982254082723054 7.574272688747365
Mo 3.8351075473025116 5.395052699973127 5.972571787044915
Mo 5.702235730057694 6.672111593541253 6.205902248306318
Mo 5.296190340417995 5.949375952680912 2.2773912446407443
Mo 7.421375100987314 2.141420049744665 6.6543615450998495
Mo 5.8877045247594895 4.966884811730217 4.442899468878149
Mo 5.734892253958928 7.927856487190113 3.8962360850051367
Mo 6.413441349270069 2.4745746620388047 4.526897637948233
Mo 3.888032063447455 8.224221126817152 5.25837598461274
Mo 3.5991212703386233 7.67339035414987 2.8383197915279292
Mo 5.179738188268262 1.6843004680114553 6.852026043357641
