14
Energy = -120.77119405 eV
Mo 7.3212263502281365 10.447740875302244 6.336060897470128
Mo 6.484450330288192 10.86949291410659 8.005806708133171
Mo 6.901927835007185 7.4176991502979135 4.950158236640936
Mo 8.911485329769432 8.220629503896218 6.791896121521899
Mo 6.3663078595335705 8.101273050800776 7.260229144483445
Mo 8.27102739540401 9.331602717234341 8.824534546137503
Mo 5.777198122670293 7.721480828679931 9.86561320282327
Mo 10.513915587772171 7.504084441226309 9.01553634200444
Mo 5.175675488632214 6.208287244215884 9.033585827057143
Mo 8.697000628393445 6.167034884096856 4.864806333672203
Mo 6.645348443318415 5.58469002526012 6.641612240295944
Mo 9.601530336950734 8.07496280640795 10.560123218262657
Mo 7.95210503429598 6.652620221847902 8.612291835431298
Mo 9.16611049046676 5.407605720741658 6.832058910780702
