13
Energy = -110.3652003 eV
Mo 7.428883485321715 7.264003824783461 5.924343789325582
Mo 6.799564407307958 6.628697768846671 8.261280440858537
Mo 8.228213095810302 7.21122117410181 10.283810387954725
Mo 8.303332137280648 9.540415389836312 6.044937840331971
Mo 6.298999594432371 7.513708366974994 11.111672790809918
Mo 9.778630212286561 8.453397918917844 4.811917086739742
Mo 9.42433436094646 6.124821555372195 7.58374385396772
Mo 8.529889880044985 8.712361478848559 8.386540575795328
Mo 6.862195062999046 9.638754781380765 10.023392943534214
Mo 9.553331078239243 6.150069178453728 5.350542238564763
Mo 4.861214564196725 7.918159469123512 9.20442127966775
Mo 6.029256761725787 9.11080788981302 7.773388518063743
Mo 10.633465110419754 7.985791055610017 7.045830468103319
