10
Energy = -84.08190352 eV
Mo 8.82923503182291 6.889145140403982 6.19535560550994
Mo 8.282518695120563 8.09113915984164 8.12330661664752
Mo 7.2152973323006595 5.631111278871609 7.1775537413508514
Mo 6.704433201337573 5.639474639105513 4.828219185577895
Mo 6.440848533987736 7.8695221860747635 5.872001379810797
Mo 4.42824295093128 6.6818922076690646 4.46178823300541
Mo 6.2731186513527355 7.767647388309903 8.344175294388524
Mo 4.27616175851861 3.8774714980836698 4.820366852721145
Mo 5.471056569486795 3.475525574759644 6.112595929377135
Mo 4.49156092406327 6.237017490370531 6.440248085229359
