10
Energy = -84.13980869 eV
Mo 7.525535115962582 6.26839896316 6.785239530128404
Mo 9.328497233111632 8.040718046171573 5.7047733037550445
Mo 7.147109320794238 4.56813617482316 9.069129891705773
Mo 8.719351762293497 6.848307476836349 8.204686685980409
Mo 10.182549591743088 9.006752042304091 6.966405290728865
Mo 7.460593553683168 10.245083645738625 6.314033214250787
Mo 7.1942812485132706 8.616070236132316 10.071036375976313
Mo 6.116972397315789 6.0333530063514935 9.210461925132146
Mo 8.28363817764254 9.606444716786786 9.122606010069145
Mo 6.461126911414803 8.854247127839779 6.770600021677634
