11
Energy = -93.16412391 eV
Mo 4.6914449658739334 6.1246732732996465 7.537095979835067
Mo 5.017220268480008 6.115351767726576 4.7270218044122
Mo 3.8312531276765744 7.583769537837039 6.517340704761864
Mo 6.66515995982534 4.858337854648942 5.823242681496848
Mo 6.546269349928792 7.644152828460746 6.094346909121904
Mo 2.4431018269991887 5.114815583940068 5.96679676336437
Mo 3.740863706396241 3.8808466243617237 5.848736737873632
Mo 7.493235672407388 6.522735696136574 7.7493947711861075
Mo 7.721642199826808 6.086613854646152 4.250179358174758
Mo 9.281292691030165 5.453922045257794 6.518657258575884
Mo 9.27097157763561 7.3172361815143905 5.669642377277663
