11
Energy = -93.10712033 eV
Mo 7.97017156500606 3.2880448458592433 6.510878608236461
Mo 7.284963562519247 6.320881240038802 6.855849789743356
Mo 6.677398014229801 4.8506178810134175 4.853258777750267
Mo 5.64625847240336 4.632254569664243 7.508106714593181
Mo 6.330132588267361 2.433817817329133 6.192349779446343
Mo 4.159930216924204 4.716149703855671 5.8684095942532215
Mo 6.75952190451169 7.402764137694293 4.7354823360883955
Mo 6.077117966635725 9.21371318637454 6.8475114464799525
Mo 4.810997994825604 6.933120545950834 6.763022795485369
Mo 4.889880977674251 6.376158204256942 4.105179630789799
Mo 5.003529656761026 9.297694420565882 5.309564246084286
