19
Energy = -166.35507792 eV
Mo 7.957514903386532 4.734283633349215 3.148519057976246
Mo 5.005108767866847 8.15323019827362 4.4141847271894115
Mo 6.0968775604742405 6.933722970112358 9.409962284106511
Mo 7.915474888916488 7.375618592067732 7.552566383381942
Mo 6.033386055821501 4.5735982554500465 5.220776209914346
Mo 8.028204792854734 3.0953703027112156 4.665303350154597
Mo 7.798428606141022 4.948753202350074 9.023050306704796
Mo 9.547983357813555 5.42654274696728 4.567269904091918
Mo 4.591955843711312 8.63327579068131 8.537122019972545
Mo 7.218792088570635 9.093188996830364 9.303346276837035
Mo 8.378965996013365 4.615834953058603 6.461723370009615
Mo 3.468053323597172 5.761302423141713 5.105836311006052
Mo 5.825331956726412 10.535428455122515 8.321436545857889
Mo 5.484269361246045 6.6807523539442455 3.2574875462499433
Mo 7.318663890900079 6.698996904463219 5.017628840759223
Mo 6.126789143022606 4.410469165494493 8.112517707732442
Mo 3.655392251143044 4.644238430494863 6.598180617763314
Mo 5.299806402671559 6.851253587925075 6.911087884581868
Mo 6.584299817208973 9.04478154617114 6.547749771851242
