12
Energy = -102.02518878 eV
Mo 7.952181116243192 11.734348548121185 6.889541259252486
Mo 6.312871435583157 6.465276638009031 6.9308284371477376
Mo 7.543510519638 10.324881608681311 9.183127313126413
Mo 7.4595744957507435 8.985164584104009 7.176071552955469
Mo 9.646572027637507 11.21139503891298 7.517008770609811
Mo 9.387772063553385 9.003641569225305 9.19144940237611
Mo 6.88722756062288 7.604028758761104 9.593281550643857
Mo 10.57945279691312 6.62074895351383 8.317125854292623
Mo 7.412657160259278 8.434826859917543 11.183172473871792
Mo 8.06502083311675 6.121709821472412 6.909783068518735
Mo 9.653467059112717 8.580448483535022 6.748332558071183
Mo 9.43055033114884 6.343948194338968 9.74751765792934
