11
Energy = -93.62511298 eV
Mo 9.829994563103353 10.340340194924176 9.291470941631088
Mo 10.103013899699768 8.003776366757595 9.586445800986091
Mo 6.169683645419055 6.438191335190508 8.751678179990655
Mo 6.965879103317335 8.644080598445278 7.6261790858457275
Mo 8.775235123391646 6.99033412062395 8.06607905602776
Mo 8.947935448291277 10.67688345376189 7.204886504475978
Mo 10.695781489359268 9.057890062099553 7.59874180317379
Mo 7.47689177721868 5.747036039501501 9.857766133291806
Mo 7.4946874484387935 10.40982706776447 8.953625747005116
Mo 7.951666795041614 8.407693596938131 9.95370860079989
Mo 8.712977139664044 8.407693596938133 6.233165579716943
