16
Energy = -139.50223988 eV
Mo 9.571800511917491 8.1610803659688 5.333120206327644
Mo 8.269652305817333 4.2002063338002635 7.51279471657388
Mo 7.510249700662557 5.049810103575578 9.11754398028008
Mo 8.544537794109614 9.285284564494292 7.352727007088941
Mo 8.332544406252676 5.685521441462455 5.3511955734831895
Mo 8.13233677124756 7.862426983145365 3.8669661295958693
Mo 7.868012047485227 6.9539728221824655 7.382638255964298
Mo 5.428259551181792 4.004764901517826 7.7588465806809035
Mo 7.028124490974723 9.25323411844557 5.65113929002562
Mo 6.106506102316708 6.859276592234829 5.329969425226209
Mo 5.9314693196486985 4.311852320609386 5.7857196195285265
Mo 6.072653365714342 9.16187312425027 8.314194451735474
Mo 5.400937145358042 6.5238342765419235 7.630064851558546
Mo 3.1476490550704166 3.641063167067621 5.826618110723828
Mo 3.2950121216873045 5.390654007376179 6.1422844206038025
Mo 4.650286335822494 8.965289200265266 6.99729450803297
