12
Energy = -101.40328708 eV
Mo 3.4891925881759183 5.613237397087725 3.962050454539494
Mo 2.4141401339940503 6.149499181297044 5.306936304011607
Mo 5.022427324647212 7.577842854651025 5.587535083552566
Mo 6.562965768597147 5.459116896432564 4.365543181508419
Mo 3.6729225420178087 6.233783280559838 7.818395502049788
Mo 4.8241505480338605 4.980681786168275 6.435464436192306
Mo 7.434542389556121 7.247957017573406 5.424861977298953
Mo 7.251911357502701 5.060501207225271 7.036912869240281
Mo 8.443237436385187 4.501397948749702 5.161001630199888
Mo 5.827696727950758 7.251625028294602 7.624986821412694
Mo 8.864371086786758 7.2547313367642 8.000326400601447
Mo 9.858954036040913 6.326336752169029 6.840825362923401
