12
Energy = -102.21905241 eV
Mo 6.738710846449518 8.066176471041086 9.15599784738404
Mo 9.161863798826332 8.709002064364475 9.09338171158924
Mo 7.652530841782075 10.979595324254106 8.26499397650106
Mo 8.534571507178748 6.047168215270853 9.554724302153268
Mo 9.336279295280585 11.546607455804581 8.487478163395352
Mo 9.93052243677979 6.345014210470966 7.902948153509318
Mo 7.236866499884363 5.881891731324474 7.535377402891194
Mo 9.406846662293253 8.967313041930103 7.022860278750088
Mo 4.586912918106528 6.859999088279891 7.19782474287071
Mo 8.666594410631145 6.5757204412098895 5.94190269787633
Mo 6.916878667798255 8.436266812142296 7.041116493963121
Mo 4.559772231229403 5.10399918233685 7.365877433625523
