13
Energy = -111.66038713 eV
Mo 8.786851915910766 11.405985164998162 6.240346568046702
Mo 7.341669127581626 10.61359886203274 6.91032549289673
Mo 9.372441184830645 8.56951653837181 6.1504599947292915
Mo 7.653746553660198 9.662817362619142 10.238102797040955
Mo 6.89449122005305 7.526229630775714 5.677574643112329
Mo 9.721957838332797 9.668554863246134 8.370950300597137
Mo 7.468443020473475 8.0921426025841 8.167815435002009
Mo 6.034859825946368 5.934605424834646 7.863408123454227
Mo 8.095014599516462 6.052622610411032 6.308436771239697
Mo 10.028240471718496 7.481980900748985 8.001297315414403
Mo 6.442974250979894 7.0534919658777175 10.398230198531593
Mo 8.875251886593505 8.183280062400001 10.633258101245522
Mo 7.701696929309206 5.710047606129353 9.332281374614846
