11
Energy = -93.3743026 eV
Mo 8.774297299231314 5.599973251145109 6.527293855398756
Mo 7.1732327668515365 4.6429371104993145 8.809920505502953
Mo 7.313027726362803 10.525424608496932 6.44841425751928
Mo 8.993448626308526 10.940614276795568 7.857232669959303
Mo 9.916862771894815 5.7809656657865505 7.91389872727279
Mo 6.482989819779719 10.026200455869827 8.562381170027722
Mo 7.1570654082267735 7.9913672094575725 6.630382605133609
Mo 5.942308035382592 5.448733292227601 7.768915352254758
Mo 7.652294801116341 7.480228547224654 8.806353399011186
Mo 9.299005713401728 8.474340868624632 7.351475789534685
Mo 8.358185862086017 9.769128010477266 9.74487670974699
