29
Energy = -261.18565213 eV
Mo 5.348387992744827 10.854286422289787 13.13074447816997
Mo 4.8786764331407815 8.426306821559994 7.553901739762829
Mo 12.049598646797195 9.331181121143418 7.767284642753316
Mo 8.037382505547919 5.122589185638794 9.54267721833011
Mo 8.921053608043165 6.853948945858656 5.172551278535205
Mo 10.23975694344345 4.951948780957786 6.131650946975141
Mo 11.383020302444491 7.665187910383908 5.7996305427719825
Mo 5.2994140032671675 10.267611892032507 6.578785009576626
Mo 10.728233516110638 6.1679096122915515 10.179287279075282
Mo 11.983758077634233 6.933296530544538 7.868789180627415
Mo 6.813580814603667 6.7930678151572765 6.224733359087107
Mo 8.301961663427205 4.564639363451117 6.841850018885133
Mo 4.234610291826241 9.826029349455895 11.505686844744659
Mo 7.498728111742509 9.055958313387285 7.948669278755249
Mo 6.858290050617109 9.2907635243908 12.348271127876293
Mo 8.01028641131556 11.502602473482685 6.371158971808339
Mo 6.362888200468266 6.207168350374541 8.694370473741703
Mo 9.230471509785735 6.916175577298628 7.784488721837551
Mo 5.284933467687884 10.497807230840184 9.30982854822908
Mo 6.172754504276414 11.807697077597991 11.159312657984783
Mo 5.86598185504852 8.23748694086823 10.35277231953521
Mo 7.016497866892718 8.962788995873051 5.3700058428113255
Mo 7.916617784025638 10.273576547773335 10.230786545920683
Mo 9.702145645919083 10.993910659221674 8.51272286339857
Mo 10.565701385834798 4.6733035364241475 8.922177459369687
Mo 7.1114360351186985 11.99901788174117 7.954290801869028
Mo 9.65218718794651 9.243725848259563 6.452232806269832
Mo 10.356961820814 8.865625866261722 9.244584303401638
Mo 8.255172662285998 7.48943233369657 10.325521829534718
