20
Energy = -176.41043919 eV
Mo 9.196573404685614 6.465223690399826 7.646259181045063
Mo 4.873941043641644 5.505959366152715 8.421369688698485
Mo 3.9110463188099 9.518532537718407 5.744173096258502
Mo 4.3721577159097995 4.950582407557379 6.672462769137524
Mo 6.315937471302988 5.609909785264773 4.560908087126881
Mo 7.348415128847772 9.245916354486575 6.189538057861531
Mo 9.493400774888848 9.266538957963423 7.867162411044204
Mo 7.069531806680834 7.560777348034921 8.337485877872858
Mo 9.8601198798783 5.83604827801116 10.142885323755765
Mo 7.064387331674571 4.799919528458849 7.071502915292986
Mo 5.805525092530108 8.38188440136952 4.121202606542073
Mo 7.979230400399118 10.125872870256785 8.715261920424368
Mo 9.268617651557047 4.046507380781085 6.100750428746383
Mo 5.228734355467106 7.413768930036734 6.309875081373806
Mo 9.081900649188738 7.689478096569842 10.117475845725028
Mo 5.469550530848285 9.911128039041737 7.424272716371897
Mo 5.695612116097045 10.585935765036243 4.757538994107943
Mo 7.805267930239935 6.672987707932585 5.194205248148251
Mo 9.523582389070649 3.8419266453558527 7.9778677399784295
Mo 7.493212416909028 5.427846318199042 9.484546419115741
