25
Energy = -224.0768463 eV
Mo 8.193836584069595 4.3456861425243964 2.830718650303714
Mo 6.319736479011557 4.29208797497287 2.781808336516242
Mo 4.937870027263807 6.832748354483402 3.900393209035923
Mo 5.5636767288939195 8.764589561608439 4.720321546885701
Mo 7.316902279944847 6.879535758897125 3.274135076463407
Mo 9.169069088202226 6.1530267950721855 5.036845131619088
Mo 9.930423126571124 3.70042004445689 5.6618244401023174
Mo 8.203548841319915 8.42743902142658 4.653093813019261
Mo 7.1915371729929545 4.334616399962706 5.354048591127752
Mo 4.655696856702727 4.779974801661611 5.740056869304909
Mo 3.5700473876052543 7.475398421468631 6.1030573833775605
Mo 6.6378223672150565 6.730355863644208 6.067604608611124
Mo 10.676232278443601 4.874343470924344 6.95717643000698
Mo 2.463199239329375 9.288557452509021 7.611424519049111
Mo 5.731618787546066 3.3043888276084217 7.408020268203556
Mo 5.132496415390904 8.614077438483545 7.439924169016063
Mo 8.09266858846737 4.8037225571822395 7.608873697699043
Mo 4.57990159673163 5.846631229234356 7.870243456689289
Mo 2.6628479729236574 7.787021048617751 8.739833622962035
Mo 7.939458387775184 9.073224688362547 7.226987441188237
Mo 9.106530959138167 7.502915199816513 7.415387265777132
Mo 6.748880359340814 6.916671206237146 8.719804894842028
Mo 6.415406402492659 4.284643137769955 9.20383376322877
Mo 6.24074980723825 9.39792430414299 9.832966527992287
Mo 5.027024949604027 8.097182983145302 10.348798971192107
