25
Energy = -223.9912676 eV
Mo 3.974654117380326 8.168268957058547 3.8118933789931266
Mo 6.785807503884382 7.3400726117694965 3.213558314143584
Mo 7.796285494536604 5.170160985942797 3.776212793076533
Mo 5.084575448957474 9.549282479119327 4.3707810768790925
Mo 5.341347700986965 5.646608815232297 3.9405921916735553
Mo 7.7276612817329235 8.996102045239072 5.159129996724478
Mo 3.2085338149994085 6.20412727267834 5.861578893733994
Mo 8.65472901900867 6.770725587548571 5.347890683124238
Mo 5.795603135405643 7.257828005323501 5.795988540521184
Mo 4.367042188441705 3.559804458275686 5.6051963549193315
Mo 9.320485729783272 4.65725651315107 7.098334147521868
Mo 10.148988944141104 9.11857432921451 6.072294012724994
Mo 3.6011824219910826 3.3021486035038383 7.3620223572616235
Mo 10.277771783597643 7.630844574035814 7.341887640933077
Mo 3.646180717275417 8.018486276010318 6.819552081754432
Mo 6.7618983521591245 4.759515695853023 6.120106680620034
Mo 4.729767047924542 5.57854671313313 7.724078406003992
Mo 6.275647213103611 9.57936043469991 7.276956582487436
Mo 8.166809068479663 9.58238290260641 7.937550097614038
Mo 8.746750060942027 4.856086406426272 8.87041876882761
Mo 6.455209964756415 2.4077379656274975 7.269588598578485
Mo 7.705571197868547 6.988605470827358 7.725688119706411
Mo 5.5988350135307074 7.75852611996339 9.284236783712123
Mo 6.151633053944996 3.466655893159261 8.768561451241192
Mo 6.16782666449752 6.123087822930335 9.936698986553468
