25
Energy = -224.18876777 eV
Mo 6.440064601946167 5.547761004200406 1.8527291369480274
Mo 2.2560600269041373 6.725976634390376 2.267366072612777
Mo 4.383007230342295 4.949448190676308 2.2163564025919054
Mo 7.64255998232539 8.08383338184611 5.484728387358402
Mo 3.017701619847541 7.2990034131738115 4.720487130950839
Mo 5.741331148731167 6.516015110626634 4.292311196673965
Mo 8.289310039999203 5.364618967645738 4.0977789498250194
Mo 1.8133438220256333 5.222911378127626 3.4683331047401715
Mo 6.113998155145842 3.5769206345790563 3.5276330073123114
Mo 4.67765895209066 7.627170722261866 2.6063797545642085
Mo 3.7185117252833773 2.2505466880882965 3.8324188535799357
Mo 7.903657046558209 3.095882604365207 5.118158600526138
Mo 4.854201632521184 2.06843924275485 5.348666909565445
Mo 3.962881808016646 4.712296390496069 4.973407497297227
Mo 4.871584935229549 8.57504838126931 5.376200450301218
Mo 1.8410894750460878 3.5946942908710473 5.944208268909254
Mo 6.328451372397679 4.628604235579815 6.138556309445584
Mo 6.952537292092893 7.19260201538489 7.136238466563445
Mo 1.765944327432142 5.398358989882482 6.577849762354233
Mo 8.909776712655674 5.705823058231342 6.042951608706094
Mo 4.312601921225959 6.6497684618670485 6.961992070840031
Mo 8.122354588536515 3.689011654627105 7.916795382507979
Mo 6.5918552596855475 2.5469196684949136 7.87135093513516
Mo 4.149103049128568 4.064018733187665 7.754818569629871
Mo 5.587953627024928 5.161866499565177 8.719823523253744
