27
Energy = -241.65060359 eV
Mo 5.491044960501886 2.5690097076030605 4.407409691836174
Mo 5.486807885638579 4.27941758032849 3.384930716847688
Mo 4.040823851610119 6.14898449715543 4.7913077926400565
Mo 4.415315015018624 4.185533689496056 5.980836595084546
Mo 4.140019388631252 9.006473287229941 4.799889659195789
Mo 6.097231692252974 7.129942097749303 3.7702139226163633
Mo 9.123826516182872 7.917658497610686 3.4188164621616917
Mo 7.128852259837799 4.00987190319234 5.8475348735412
Mo 6.714265482663102 9.71544609205101 3.580653213815104
Mo 7.822000192190249 5.585475479267064 4.145822397326075
Mo 2.9046458957497716 8.387240757386303 6.068837148330471
Mo 4.015774374049366 6.319616896717119 7.617553365491135
Mo 10.519429803412288 6.814989036225248 3.960554296328252
Mo 6.295331920817697 6.594201492046136 6.324904439986419
Mo 9.505928142567848 4.757931857147845 6.253263509348283
Mo 3.970123489965127 8.013885097326355 9.361316750346067
Mo 8.115968640206017 5.432754777225885 8.043475079924802
Mo 5.727241426301857 4.538851426490393 8.249347467050802
Mo 4.403133377398699 5.442011199826573 10.696029211719976
Mo 9.025476047253072 7.156760280619509 6.062505083525198
Mo 7.721878339033015 8.330800877285752 7.993703069230738
Mo 7.147133737246168 9.266615228529014 5.336622467567949
Mo 5.089561368668862 8.786735491920691 7.479776550820624
Mo 10.229673346690133 7.002723664798523 8.571043411450079
Mo 6.183734401524862 7.008768045797252 9.346006211847213
Mo 9.042939993710329 7.274517043881054 10.007230656170664
Mo 6.125200669997672 4.741220208793586 10.866541013345268
