29
Energy = -261.75253244 eV
Mo 12.937615284415617 5.771458048902857 7.847200088623674
Mo 13.111678888436302 6.883752446580386 9.40049699407373
Mo 5.7138011984920265 9.110297305758055 9.896574243788816
Mo 6.691313198617562 7.131491005472345 7.685860233874282
Mo 10.638123943593493 7.57023969336547 10.43501741984102
Mo 9.465726537706447 7.913292693345964 7.921478429974885
Mo 8.07213584500066 8.408934658889102 10.292418469439344
Mo 4.622731478586014 5.784135160213457 6.583906670423591
Mo 10.659847755962527 6.1795022603549 6.473221443624532
Mo 12.173581920664763 8.28039054004744 7.0279229478788805
Mo 8.101143724518701 6.040008474789579 9.9185934306479
Mo 8.381117237792578 6.646375265461833 5.284605355089621
Mo 9.464319845384555 10.289343491806648 9.20483210869826
Mo 4.08009896089933 7.624680815534141 8.305120690475613
Mo 5.66820823839484 6.698896282383317 10.097429832674791
Mo 5.832895605843814 7.400666231709979 5.064202898375147
Mo 5.290162719545855 9.310699399584536 6.9325756083920576
Mo 7.776563847742482 9.173176116442303 5.77630758508734
Mo 7.375807580912282 9.972808599801448 8.134749341387902
Mo 9.159739537759837 11.468280377701031 6.603996528128907
Mo 11.766143816910263 9.233568047046983 8.967537955029002
Mo 3.965512176629399 4.9595508764897716 8.940959863437161
Mo 3.681446162026025 7.992634167810295 5.756288911435981
Mo 10.085813161287664 8.929410717650713 5.603460290019817
Mo 5.936998507393036 4.535604675903991 8.57577781541016
Mo 10.573666372462315 5.645160462517751 9.246412507136906
Mo 10.982005337440555 11.029265458055201 6.8854973036167895
Mo 8.659913927058724 5.082976645164132 7.533691771843917
Mo 7.020212178808033 4.858933977495588 5.82304385203707
