25
Energy = -224.56947956 eV
Mo 7.649459969869966 8.448828439801074 9.716199539700805
Mo 4.646195835171137 9.010634073315067 8.603811410015561
Mo 7.487322017809945 9.446806129116391 7.134907386080163
Mo 8.590048100215306 6.854493479389967 9.479898596338176
Mo 8.519631991176196 6.645494880229753 6.570541527370075
Mo 4.5213745429886165 9.272751412851825 6.721754255440476
Mo 7.5721542269875775 4.718947539565999 7.81475370279878
Mo 6.245714807561455 7.126461819095955 7.740208366443262
Mo 9.558298535080413 8.786601797984513 7.357429130274486
Mo 4.168523013742769 5.924175493711144 9.302277519592522
Mo 5.875028546257679 5.716993608459528 10.014768464795168
Mo 8.625591331651915 9.258766105498921 4.679549271383535
Mo 6.421069408334657 4.269490488405018 3.2315001601761555
Mo 3.5924088172225566 5.128372705533529 4.358562728171979
Mo 5.890605369455316 6.012020172413103 2.730921039245215
Mo 8.463666480697805 3.943565243953787 5.351619311789012
Mo 8.2396656455879 6.428794941840294 4.171157637227977
Mo 3.953951842513776 7.172068367573219 4.3078307840280115
Mo 6.884699384031201 2.8859099171713987 5.818697851664298
Mo 5.90372636944579 5.282223188277041 5.653286538692926
Mo 10.229972024059395 8.054990353623053 4.821711770687938
Mo 3.874675179177169 3.9564833266231823 6.907364186763866
Mo 5.281540218468458 3.579883428137568 8.156561427851445
Mo 6.426155308435994 7.832564171656888 5.123879996204977
Mo 3.8587508316932073 6.722908713408558 6.711037194899243
