28
Energy = -252.25354998 eV
Mo 7.550633569450376 3.852275932679622 5.944341084669803
Mo 9.356029979897679 8.688324822949186 4.929897673198701
Mo 6.972002755460635 10.576692735990283 8.442154469395694
Mo 9.525371719206333 4.150575447864315 6.877199663080096
Mo 6.4390982436237465 8.179864831706855 11.473084949502518
Mo 5.418289702624696 6.047159572130251 5.047242383004363
Mo 9.15903081544599 8.904850240604345 7.622796459596958
Mo 9.761945527900696 5.035341491267358 4.544880553613593
Mo 5.997935266854614 10.887356565524156 11.047459055441875
Mo 4.89190065288876 9.893620773615234 8.413545603028393
Mo 5.7242991061395365 5.4414902150058815 7.360764425810496
Mo 6.856473829805559 9.282944971590705 6.26986218893516
Mo 5.8032668327652175 5.8493352792979385 10.179335160341893
Mo 10.627081284132844 6.841831064295376 6.1493426579102275
Mo 4.509399587028949 8.346204092737324 10.343484539658755
Mo 9.052791679051094 7.03014272668841 2.607584360695063
Mo 9.800810069846046 6.903565211832659 8.393056959716528
Mo 8.014167883370948 6.6220549114046445 6.212248423455609
Mo 8.319591410273953 9.020432541148551 10.010939127757014
Mo 6.671877016567296 7.800251085419397 8.63475535853443
Mo 7.9137198767699255 6.126002167801114 10.682516888372337
Mo 10.853707419077265 7.195322562204718 3.467739877898463
Mo 7.078262116860488 7.905135287286501 4.27733562352486
Mo 7.919444637704914 5.027761764272394 8.544694987391138
Mo 3.9468253564023366 6.910402469427551 8.272187411409664
Mo 5.008728712008438 10.400437848608297 12.455921064339703
Mo 4.7496154973893665 7.99098929855958 6.390134733850308
Mo 7.55699125417533 5.2407670134699345 3.857139791765418
