25
Energy = -223.27140645 eV
Mo 1.9593552807149002 6.650623322802584 3.3508592537495328
Mo 4.6381983691265205 6.451387410337559 3.4063357726888346
Mo 6.138039841825749 4.172891017527278 2.5188426208023174
Mo 3.247511168385609 3.8872355309010187 3.5671235077377053
Mo 4.9870744771667415 1.8628047234953762 2.908277633294472
Mo 8.117007252825037 4.117579579410754 3.7654147438542482
Mo 5.415354559951654 8.449058445050106 4.268470578638948
Mo 7.394791516908 6.457669040758172 3.8752729238559738
Mo 9.546733301664023 6.347833039445701 4.720859234942687
Mo 2.5531255665740655 7.945092492861911 4.578433381598223
Mo 5.684399796744721 4.318270277258337 4.95283090283031
Mo 6.527651291167143 1.8498169252417742 4.159800621629115
Mo 8.403117584135558 6.947338816860804 6.486291017510397
Mo 3.6388856936139624 2.7038463151679673 5.212940959923336
Mo 5.841989923485612 6.707543547220139 6.044136681907707
Mo 3.227054990803257 5.493198931430918 5.5486821014997165
Mo 4.389457258718206 8.915319009989874 6.566807457725998
Mo 6.0010927483644005 2.5391078178399047 7.145307878858986
Mo 7.916357439964175 4.618843265167986 6.395615646777615
Mo 4.58783910018251 4.408331058143247 7.566278462929181
Mo 6.447945590082691 8.896741970465479 7.816464884450056
Mo 3.553637892293031 6.945317281869806 7.548802220140146
Mo 6.160283501677818 6.1102340492721945 8.439671432992455
Mo 5.043487124577849 8.193345956486318 9.224004240505536
Mo 7.149807541372752 3.5807689873208544 8.502674651482671
