28
Energy = -251.93609311 eV
Mo 6.420548876744753 9.282033356553491 9.201951791553698
Mo 5.111976893810885 6.586440918828031 9.387533749349638
Mo 5.024927983869507 7.76181858646475 7.242207266627823
Mo 7.450120379866457 6.534947994341807 8.617107444943755
Mo 7.220421080985048 9.559327435322926 7.627093035591568
Mo 3.096047155087759 4.895547043874026 9.44476201961472
Mo 2.8967614847332075 6.027696217736893 7.743510910024925
Mo 4.134826243126589 6.90411386381431 5.079737132029921
Mo 5.841406111147765 8.79786010227631 4.805056789024476
Mo 7.477655197153786 7.157260337203262 6.106754311771256
Mo 8.158920369751407 9.57215407900699 4.686241837439935
Mo 5.742429422212508 4.237962499423792 9.099648139925039
Mo 5.593189059255551 5.193244532320932 6.467482459913643
Mo 3.870137979255332 3.5064748165912603 7.402267988890488
Mo 3.217998907559475 4.4698261694383525 5.317240850856026
Mo 4.672130141884986 7.348436156165318 2.2733106775058456
Mo 7.784393781381792 4.390934492091877 7.934262185411072
Mo 7.330892617922428 8.495693859085243 2.7727819825923534
Mo 9.727879876280905 8.039897794509198 5.7193287693805654
Mo 4.114660209157371 1.7554119881046812 5.378293947773833
Mo 4.022717553254327 5.6703460899692475 2.7223991312840425
Mo 6.54269194328312 6.285344559047191 3.8895437665478036
Mo 6.276092803706395 2.649880311003826 6.353772509158976
Mo 9.075639793401074 7.011179965630538 3.8239476557058305
Mo 9.709998943388179 5.317366862352063 6.183378902528326
Mo 3.6118644512169213 2.752765936357581 3.58957797898473
Mo 5.827395037647029 3.6532489004338102 4.2771313518666805
Mo 8.36647232852608 4.459763755809625 5.143985979803278
