26
Energy = -232.01351517 eV
Mo 9.64864421023017 3.3483843917890432 6.993434463890894
Mo 6.541700001805203 9.105501070043362 8.062209377554025
Mo 7.896354715200339 3.9224150024908164 7.553898786802781
Mo 8.70911520554504 4.985156587320095 5.075287732249995
Mo 7.98733843866155 9.705622685727265 3.9502910188278166
Mo 8.553069660767695 9.31201089109663 6.696258744640689
Mo 9.601157810584159 5.610196651179556 8.637761750041681
Mo 5.021410511647974 8.199299607853089 12.291359534096756
Mo 7.849682191006758 6.8187166606136005 6.907268369009151
Mo 7.26829033326903 7.45862913510625 2.2333352492741154
Mo 8.519871360665936 9.549028176190962 9.41431614743121
Mo 10.586229628018033 5.912313845540218 6.353887333843236
Mo 5.906659554630562 5.195640790860641 5.242353029860623
Mo 6.557573979977419 8.93602137337796 4.922446675569985
Mo 10.105270650061362 8.00327056814128 8.40352429180226
Mo 5.258939717741613 7.248459909423261 6.745366257505711
Mo 7.47479561921079 5.651761990066646 2.6398427971124265
Mo 10.67773847902616 8.183990033600917 5.80415944194846
Mo 6.24742652248954 5.605087012412977 11.300357595868997
Mo 8.976984329700601 7.327025574199531 4.4252556980494315
Mo 7.686941107824878 7.229745134453186 9.525661495775436
Mo 5.7392526238890404 5.617093482531199 8.388614967895297
Mo 5.032082960456627 7.449569610638634 9.505970571101985
Mo 6.533609390108784 8.828740274491805 11.616350393080351
Mo 7.48539032583364 4.565596656878183 10.480759797234555
Mo 5.2306356453377445 6.433027786951194 3.967749203148298
