23
Energy = -205.6293275 eV
Mo 8.969738263939664 7.998529371852105 6.277096827459139
Mo 8.144037849347164 6.645983480189998 4.616991260501236
Mo 7.070631329977325 9.122795379071095 4.942836369648964
Mo 7.274940825552904 8.712908234140329 7.82049175704254
Mo 9.72476967216713 5.260270587961162 6.533907701845057
Mo 6.019505904095543 7.869602097597638 2.6798514771833437
Mo 8.862681462028952 6.516633497918469 9.0318253649295
Mo 5.34643203073217 9.511447054673136 6.382630919567313
Mo 7.07639223113787 6.172857961470989 7.028361590489252
Mo 4.653034759764775 8.883927477644905 3.39247697176889
Mo 7.052056205306308 6.636879896900887 9.791423166772717
Mo 2.929141714486915 8.01716401984148 5.685853078700876
Mo 8.210478887073107 4.168238960625775 5.711897802797388
Mo 4.84033036680727 7.546790647461991 7.783829178693974
Mo 5.437851883313721 7.023866361794228 5.250958049378259
Mo 7.68146279977854 4.149519358232438 8.3545801976106
Mo 4.096743950586921 5.329839815877566 3.8573771105332333
Mo 5.977086393550637 4.9828075934328515 3.516511879782807
Mo 5.1642931558320875 5.10739574465609 8.529337061150777
Mo 3.065874626246956 6.241329008170764 6.466987939306892
Mo 5.235149119105286 4.286754093571933 6.179569562669551
Mo 6.484170631701698 2.14166408666555 6.624336440131443
Mo 5.61491478905569 2.572063086338996 8.354590916947592
