27
Energy = -243.95777307 eV
Mo 4.451507032070454 5.378167312129342 4.207532458101284
Mo 2.768094771913884 6.250081793799876 5.724265620041591
Mo 4.676030556325633 9.090548862484168 8.527915920301425
Mo 4.811562273203494 2.4752857186348827 4.969149885868547
Mo 5.393179777109055 10.071147810347746 5.788977633149883
Mo 8.844434013169987 4.563031715868619 3.6802853348704376
Mo 7.243615560437177 5.966048907594231 5.150734534537854
Mo 2.6226618491640727 3.9633225923969095 6.098107083874676
Mo 3.2404005405686167 7.917818600542173 8.268885334138613
Mo 5.450524749383393 6.320009454285192 8.689713871706697
Mo 5.63519003110228 3.5872139944170702 9.12876407294724
Mo 7.5574163214292165 8.444013708179561 5.0809617678844194
Mo 3.6638532125957073 9.452674493981512 5.363599182303436
Mo 7.689964636127418 7.198709544424078 2.498650045218724
Mo 5.31311409200619 7.794679807703802 3.905398535973859
Mo 9.587733731217245 6.935186315520309 6.498808711784187
Mo 3.226813307714585 4.897494744100283 8.072824532516131
Mo 7.624768458867187 5.114566457722825 7.5794875872085825
Mo 4.5077823953807306 2.469341766009703 7.967216722115222
Mo 5.089590917594391 7.3348740754052155 6.34495933593701
Mo 7.1466515495999365 7.9649687505490565 7.429292249799872
Mo 6.54416339979676 5.72308798359271 2.3315342573761755
Mo 5.253991419659585 4.691516324980968 6.501509865882421
Mo 7.0510784636169985 2.8272327478539703 6.802490602073776
Mo 9.855073856583589 6.948634154622958 4.620932283383174
Mo 9.150686472724919 3.9563157309058403 5.632504466196331
Mo 6.483789810799659 3.26650020670947 4.301531168557329
