21
Energy = -186.36563678 eV
Mo 5.806740882598759 9.43554607839892 6.67768624206626
Mo 6.9080348860792435 6.489711605852333 3.181805693741193
Mo 4.977682902185179 6.996099924222558 7.781192075853148
Mo 5.9250674393783855 9.49642670599081 8.53885993488726
Mo 5.0516303503178746 6.346915612947092 2.3144981006614147
Mo 7.995333597211088 7.802161629572466 7.878219837883345
Mo 5.384261183597817 4.01647809421535 3.496206116595775
Mo 9.771122453127632 4.463535028140033 6.591221054184158
Mo 9.391240077911036 6.099905303510101 5.459738727350834
Mo 6.687504521906143 6.996141076251614 5.721069753020901
Mo 10.419056712084368 6.725252620259179 8.034103611669556
Mo 4.52254398849619 7.322479409652789 4.597295943413589
Mo 7.459887141246067 4.558727534809948 4.854666793843149
Mo 6.865871924668475 6.9817973702854434 9.64681529652804
Mo 9.297434039400871 5.713543968878924 9.303944198497197
Mo 5.511606404492622 4.928320283523083 8.895209160452879
Mo 3.6103522666399592 4.97535973115683 4.205284854293803
Mo 7.4436643784857415 5.1418436216427965 7.514917122178568
Mo 2.9955840091210115 8.41985660337165 6.740993213558747
Mo 5.149833435510434 4.935015846947832 6.125387692434456
Mo 2.6662883849869106 6.574289700532673 6.5252198042994705
