29
Energy = -261.74856508 eV
Mo 10.046273065331594 3.320199695426541 7.273359967437197
Mo 5.3764181369621875 8.241861164908828 7.797743938694764
Mo 9.891191428416684 5.973785316024284 6.6542370991939395
Mo 9.241178646269763 5.293261335574223 9.093794404413625
Mo 7.187854564689361 7.292445656424736 12.127344837480775
Mo 5.340876384891746 8.376154425803666 9.938012042054169
Mo 7.415958726733736 11.138026444623886 5.320383869128268
Mo 7.173833117860826 6.682209303596208 9.350045473475895
Mo 10.730265697593213 9.09643732341756 10.650059144529143
Mo 11.129894760768911 8.43604009669018 5.828964605916822
Mo 9.675120104715566 10.851546821419841 9.039852089990193
Mo 10.236955453532584 10.025911364915029 6.476515022783128
Mo 8.949174683933922 6.936510834287232 11.478114609346385
Mo 7.50573354245045 6.599116457847887 6.950438247942962
Mo 8.387422294631392 8.283046208363471 5.05288330468582
Mo 5.733925702229689 10.929994470051177 6.234499826293195
Mo 7.991883071525557 9.122330051336677 10.163333919833734
Mo 6.410159099357934 10.001421194206996 12.226233553419979
Mo 11.856944826543268 9.192778155462074 8.608072876151157
Mo 12.176789543591068 6.845338654436581 7.89754251112776
Mo 6.106802431970525 10.813535955620655 9.206349551273115
Mo 8.312895114594477 9.924663217460322 12.705944075157685
Mo 11.386353787687193 6.593368056064331 9.929269232261838
Mo 6.448680314280225 8.3602635628127 5.1074291512835375
Mo 11.453518812610524 4.035158632404953 8.215125664457954
Mo 7.845332948477545 11.98210774280735 7.89517829287589
Mo 7.628534983653193 9.404399224176395 7.457688495133016
Mo 7.907894099969436 11.653849625953438 10.5698180435554
Mo 9.644232605095185 7.839295416063333 8.324326675964516
