29
Energy = -262.53728992 eV
Mo 8.12630415430733 9.63147356480077 7.2201470293398495
Mo 6.0088376657404705 10.329759248386397 3.3636089382093326
Mo 8.122369946161989 9.832675631266984 5.315066082178284
Mo 5.671888345255481 8.795995158683498 5.8096088064011315
Mo 8.558324600390497 7.116507449050974 8.813961650179609
Mo 6.917688464218791 7.961803822357256 3.5620276203745704
Mo 9.492952108463642 5.503065997954526 7.6697156458481865
Mo 6.245530835126715 7.976294110849219 8.180246151192614
Mo 9.593584424460943 7.200395872289233 3.805445691739306
Mo 8.337182690548866 7.209427440625291 6.135795117114356
Mo 4.426948125827936 9.258533630628289 3.369172687375895
Mo 9.915959831662892 5.497972668148195 4.648808769710016
Mo 5.2326444378932635 6.528210693381902 10.22331409083938
Mo 6.849825923482866 5.286705826298158 8.48258489715604
Mo 5.825587436426047 6.174320003504286 6.082169465370654
Mo 7.755227421214543 4.2408082747401155 6.4279488141636225
Mo 3.9089358123579006 6.648959761752563 7.715426705966484
Mo 3.410030398879005 7.657950589823894 5.551092766694211
Mo 5.047655707769307 6.507448218168829 3.68091046374122
Mo 7.44993629416539 5.428072349212628 3.9032772875276964
Mo 6.559442601525335 2.478304596437912 8.383508722517023
Mo 1.5271615255230517 5.941740168181006 6.269539949992788
Mo 4.524546858160893 4.8200181033507254 9.824535188480308
Mo 4.742128737294994 3.9031945424528467 7.041853238199017
Mo 6.5658261449316795 1.748529292878048 6.668262224155549
Mo 7.512619712016617 2.8834904626690876 4.1077101456533915
Mo 3.481802656306648 4.958698075007782 5.199095501978121
Mo 5.655395869963245 3.475500133243973 4.39369577920212
Mo 2.318959359756421 4.664492944118459 7.726692011680734
