21
Energy = -185.4766563 eV
Mo 5.381099532807352 7.787081787248083 3.1624263653894156
Mo 9.406005934438591 9.015977254250197 8.841621012779914
Mo 8.878042253636139 7.462967773128642 6.4708749481815735
Mo 5.51447578223588 4.391550891867832 9.22830046239255
Mo 6.712136445008841 6.409780340564935 7.58161426102513
Mo 5.117462310264925 8.084341768190779 5.9849919800195535
Mo 5.0148458616449485 8.580117721776155 8.60883947115817
Mo 6.843438147282458 6.359012728445905 4.933714909158054
Mo 6.361595774730562 4.015278938422129 6.405802582217736
Mo 9.38939171507236 10.066222014587721 7.357397706932958
Mo 4.1066023232220354 6.711003622211735 4.070245845667173
Mo 7.516206106292066 6.75378350994905 9.850068154794549
Mo 4.353636335570046 5.846736251488242 6.876546538225438
Mo 6.773926582932292 9.064398121075739 7.803594983659495
Mo 9.148625229569673 5.310209991255056 6.518827327600573
Mo 8.284047846903624 4.729232198476221 9.10993837348969
Mo 5.217636083114129 4.230695683972059 4.828239186245129
Mo 9.91719538699557 6.186108033428724 8.656880646001472
Mo 8.463883676064182 8.004622749351975 3.8052092788633365
Mo 7.32669797171467 9.237116269710294 4.7843150385423785
Mo 4.5730117574618925 6.026657958049736 9.490212315082786
