23
Energy = -204.41435351 eV
Mo 5.888855134609558 7.086174564438925 9.654741981674286
Mo 6.867459857628378 4.901363055325165 8.665576539134397
Mo 7.892744927244552 7.425005096765154 7.743476235673799
Mo 4.059516178948933 5.930011508677933 8.913764531157618
Mo 6.243490091204995 8.816644447660547 7.801072818442923
Mo 2.8092973148400873 7.560066861310921 7.54159372349106
Mo 5.364156713595909 6.536909418989806 6.999239823591841
Mo 5.185763673650105 3.7102648288601845 6.198940174459869
Mo 6.900867451840537 8.19686767822203 5.08749938697606
Mo 8.898783986433427 4.7952949218710526 8.021044974334847
Mo 7.735365510213079 2.6933171352330745 6.887170215443286
Mo 9.197963796526889 6.714527382516243 4.619008569172389
Mo 4.152412409684445 8.38749245284453 5.599135095238974
Mo 7.463824160987079 5.325491149881081 5.9418170533097445
Mo 2.9078986014575183 5.865482398361551 6.026254283377856
Mo 8.869546977364287 3.2811841133929116 5.374426766770677
Mo 5.288387582717103 5.997381089092594 4.432589480280921
Mo 5.987032754683208 8.285604594141816 3.2540665451735546
Mo 6.178763822593625 3.393608632583394 4.397933170374948
Mo 3.339554462241942 4.079990100079091 3.825416647667837
Mo 7.882179411121866 6.176350131121334 3.3074414428029475
Mo 3.183885052168366 7.139407079105929 3.9334147986731334
Mo 4.540800298093702 4.391551358124465 2.418340320282122
