22
Energy = -193.68748091 eV
Mo 3.163689266828934 9.323553264356075 8.308355632909876
Mo 4.157832858269064 8.242625382711035 9.334245832231176
Mo 4.907775812084441 5.319090556476218 5.843069536725184
Mo 5.080372702314521 8.019194173078079 6.685850325910217
Mo 5.0593143911806004 5.607222249311393 8.308176021573376
Mo 2.6862811581469654 6.715130754617591 6.851453148394588
Mo 9.109085671335265 6.529530127424837 3.1556438589362186
Mo 9.208697351098756 8.222821745540292 8.430002418309854
Mo 7.238732947482709 6.501377169448221 6.691894132899518
Mo 5.004949112958526 3.1833836249323793 7.317267347191468
Mo 10.922466503608668 7.570262534983851 8.19806615715533
Mo 2.353510003784371 8.312382327658206 5.836844997886778
Mo 6.827817444503673 5.536483269585253 4.1664812222120435
Mo 7.2889696180566315 4.377787653071445 8.959907761801604
Mo 9.636837832754697 7.269543619233428 5.772274295451811
Mo 9.207923003225176 5.123522297958425 5.4731029884438875
Mo 6.793783157965536 7.003929423684629 9.086457724855265
Mo 9.280928958287225 8.459829955189095 3.5361041675459144
Mo 9.131558256930392 5.485713103724976 8.20183724158559
Mo 6.973307419089328 3.6714824379383377 6.704968676578688
Mo 4.388585007302497 7.435246232702867 4.503972289618883
Mo 6.90001097146206 7.786399258911248 4.377771538772284
