22
Energy = -194.54715154 eV
Mo 7.0679352628592325 8.524314953831801 7.980476993362386
Mo 8.174259408363865 7.179782616289432 4.334307529919624
Mo 7.6332457639372295 3.740758465774604 6.348342530819145
Mo 8.522935193554769 6.1841657963340015 6.882982505784392
Mo 3.2020576734789308 5.342498282292723 5.437241047579722
Mo 5.606322199145581 4.472023283479552 4.259524303568187
Mo 8.827474122457643 8.873195647461797 6.531661450052277
Mo 5.459816582380105 7.153779166197465 3.298879501396359
Mo 3.8005583968747176 6.55903478037576 2.938268281168113
Mo 4.180528687499757 7.950577984873021 5.6393064862556
Mo 4.432338687472816 9.234126008215194 7.975961146217825
Mo 3.2573428359753476 5.0964206764149225 7.285935589612694
Mo 8.168628438236174 3.920030934608437 8.461570136241065
Mo 5.105478203318487 3.3511593758881895 5.937642968586225
Mo 10.663020969848752 7.627921173232899 7.384193636335939
Mo 8.359226206832552 5.378962623480546 4.133213748952793
Mo 7.2515250839043786 6.313945462439479 9.005070858220272
Mo 5.856017824456531 6.128229870219424 6.338148978389877
Mo 9.510378734900335 7.773985946485325 9.034754133494834
Mo 5.807649815138144 4.409182718569691 8.25893077245051
Mo 4.51467951033958 7.435694980122032 8.568318055999198
Mo 6.153192759248185 8.824817597437887 5.553980501411526
