24
Energy = -215.08855821 eV
Mo 7.567287550270215 4.548221342273953 4.7332614686267505
Mo 7.942210548622264 6.933111362962686 2.8856936618644293
Mo 9.639291800575721 5.164190852220192 6.4770504435930105
Mo 5.105315992478306 5.2557750902577265 2.6506997957877116
Mo 8.560512296243488 7.472472978351307 4.523332171970349
Mo 7.22210263847303 3.6481630591238527 6.702929846544256
Mo 5.149437410166145 3.833384543055403 4.868502591521799
Mo 9.106315180746519 5.11156692225666 8.326666315783243
Mo 9.239597378376741 8.004690100368931 7.400116819305768
Mo 6.2383918151348565 9.356898734273154 3.790216668932929
Mo 5.956610509850726 6.636057294214427 4.755270559205076
Mo 5.072870303686774 8.319016519615026 2.805446523196784
Mo 7.089447681646238 6.208801583070393 7.04702020614876
Mo 4.613089528393561 2.7066122333041207 7.6225282172910624
Mo 6.505588252461537 8.800088658832538 6.473705683175091
Mo 3.592941859893764 5.77262814064815 3.824886556268411
Mo 5.938261024902582 4.997937393770655 9.31201759526158
Mo 8.08502493645756 8.057296146528483 8.848619667099884
Mo 3.1092005338895405 3.247301530665971 6.738878387283589
Mo 4.109578007760457 5.1100522575562675 9.468947328339985
Mo 4.265557331741925 8.171699220969803 5.695845894317941
Mo 4.68207976870257 5.431197908863089 6.729336439292033
Mo 5.289510710327086 7.685260481860732 8.335618235583192
Mo 3.176139935830826 7.171620286942945 7.608029336460492
