28
Energy = -252.09450696 eV
Mo 7.501372815870407 5.491982417263491 3.1781459581031393
Mo 9.198000862376778 4.584564035476148 4.91168215610294
Mo 6.958795318832313 3.286134126363814 4.391973688496066
Mo 5.057315060898607 6.813762883427872 2.7350010983105086
Mo 4.438895405161933 4.106681606673456 2.9911191642583015
Mo 6.602496935390579 8.24098099349019 3.8357330624292487
Mo 8.718017137798396 6.8162161475558385 5.008469686759043
Mo 7.28269169837025 3.333657469608722 6.5587123748465865
Mo 10.409973972052475 6.048942634096176 7.161773363055783
Mo 9.947989717984969 4.205946583587082 7.478674733555946
Mo 6.046630737054377 5.802973416173602 5.205124177568322
Mo 7.715827341707303 5.832202649515692 7.1648224448212
Mo 2.8235966966131323 4.931502214401135 2.5213513578499467
Mo 6.939291873260562 8.495989466087634 6.763885810501746
Mo 4.644338659809145 8.51078415776511 5.0013008145706905
Mo 3.5491508625570543 5.932931608779988 4.982565779835539
Mo 7.6280246164536525 4.231726566815664 9.39270499078015
Mo 8.68163130825047 5.899359688137886 9.659029849271983
Mo 4.62096398692597 3.5165689621795866 5.885491753939986
Mo 8.511385739302682 8.440919227834968 7.810379456428856
Mo 5.20825087265949 4.8284353487428024 7.846681174243824
Mo 4.444254544954011 7.074631285831548 7.19945144924939
Mo 2.9428508861409735 7.665966713133665 3.34219303267213
Mo 2.226058524664734 3.8686406285028205 5.357561772017116
Mo 6.410065057629634 6.842509183610559 9.00658384610596
Mo 0.8645334886064306 6.432540138106489 5.141599487917226
Mo 1.7398168541574421 7.663170145985064 6.19123342726697
Mo 2.556300766912286 4.983204946544991 7.271488538815725
