25
Energy = -224.76714609 eV
Mo 7.114665056950921 5.637352966996556 3.170544569932361
Mo 4.464273778656589 5.183982599635862 2.855600360360673
Mo 8.306721541457705 8.14895156615025 4.028372887721618
Mo 9.022653527310498 5.252254069471527 4.696100236047779
Mo 3.772150987674459 3.9549442685268 4.240849266157537
Mo 5.594029980311275 7.6221528765433755 3.949527374270458
Mo 6.363765101011394 3.9901193681590303 4.545549437793154
Mo 6.458903180488579 9.251886123675378 6.075036509307166
Mo 9.437978228700421 7.85696142636531 5.529031689098673
Mo 4.355702792934435 6.155704411943227 5.42193529523254
Mo 7.024414292464103 6.440473296829756 5.866386129769819
Mo 8.099686924489896 3.799627298596996 6.240211719032931
Mo 4.465017505158563 8.978419715274146 5.897108088854103
Mo 9.415983253991772 5.672437385330724 7.433445267862589
Mo 5.343793151857744 7.234499849938955 7.883409792105396
Mo 2.600946925928599 4.884027408492254 7.145714554871635
Mo 5.417097906304137 4.314556078139792 7.249827237245075
Mo 8.041520939366022 8.134414569104782 8.054324430648716
Mo 2.761623435321445 6.813700038707026 7.350309198274492
Mo 10.693368076210337 7.511332719927507 8.437816314255643
Mo 7.33792906384656 5.648271216822901 8.545805234839545
Mo 5.766176404692649 9.548350444135892 8.859483983467145
Mo 4.58824806500413 5.046415762789373 8.994737557207
Mo 9.409740182396563 7.064456651701523 9.88911422079059
Mo 6.6436096974729315 8.354707886742498 10.139758644855243
