28
Energy = -251.55293129 eV
Mo 4.857437561940237 9.607815129814412 8.267985298814015
Mo 7.291659044575288 8.25572232432087 9.531596299730824
Mo 8.75757024850285 7.282249751263702 10.13540808615717
Mo 4.906336137464829 7.072677647814703 8.342531688264343
Mo 6.960732814241943 5.529476628393798 8.933293740645386
Mo 9.317515185651214 3.2295303381141807 6.731487887853181
Mo 3.912044984340802 8.95956216495998 6.620952313342947
Mo 4.355353060268949 4.221202522119012 8.128230269750478
Mo 6.999299984983963 3.553269020388344 7.37516476729157
Mo 6.637733357584776 8.674504617671404 6.721271173149062
Mo 3.7261046633666597 6.162265729584183 6.149120382846795
Mo 8.637078425088694 7.080826566850737 7.363144381524249
Mo 4.49861396025559 2.439414584211456 7.491935052005909
Mo 9.340832671796715 4.857413020302843 8.361066038313371
Mo 5.4341284102892695 7.74208503371905 4.548048779348668
Mo 2.557597957526416 3.922803055004497 5.295551966601224
Mo 6.422557647905433 6.051414605935648 6.425830275734782
Mo 2.944253527859534 7.783034539432137 4.4210918400494
Mo 8.271723361418331 7.84676194530388 4.459178216009094
Mo 1.7759148194535337 5.360681682147075 4.302032616156333
Mo 5.343839862390291 3.8042914436751176 5.4062528794959
Mo 8.918938095234413 5.327524230091786 5.577237192039185
Mo 7.513546450934424 3.0688955394436395 4.651473008385473
Mo 4.189457770332842 7.5841242692056845 2.0410575866615477
Mo 4.284954066537924 5.450556349707502 3.5479832262327187
Mo 9.082210690185848 6.674189123257777 3.1956266317218236
Mo 6.952833684851707 5.291436439594525 3.8964080841553503
Mo 6.055445568405055 7.155472108798097 2.0248980524814035
