23
Energy = -206.15767711 eV
Mo 5.66870531993785 9.208805858587244 7.848295238268789
Mo 6.788642256674103 8.138806963235885 8.999001442144154
Mo 7.127338911826641 7.595895772869883 6.374529157190373
Mo 9.270274562670362 6.576553314192742 7.619677935990727
Mo 2.2601485146958593 6.412869327333447 7.177776824600092
Mo 6.337062304493865 9.565215215084699 4.748217527149261
Mo 7.80715411761087 8.606100461881974 3.9999097074321845
Mo 9.687452103124858 6.749873280820483 5.7843681829120435
Mo 4.200392840780567 7.950416733540233 5.816531470713329
Mo 6.805557972758273 5.445185651785045 8.430619532886544
Mo 4.442781480281351 6.707230223837319 8.03571324351764
Mo 7.072942425110412 2.591562391730447 7.916287992737513
Mo 5.640098058238065 6.998912930670505 3.751652323778291
Mo 8.061165096593475 4.400347018001483 6.501797038421404
Mo 7.786228141245888 5.640873914795032 4.076299095652398
Mo 5.431842092048815 5.235785538416384 2.1448345270306683
Mo 5.675558161451214 5.479237104045208 5.9556877249136
Mo 3.2195700863651124 4.61430601199867 6.424243170164846
Mo 4.881878895643673 4.1897922821944364 8.461421289349499
Mo 5.751538938621981 2.7281256560241616 6.40796317206306
Mo 3.2504640321594014 6.351164509163349 4.536991168744989
Mo 4.6066587681824815 4.175131734723644 3.7161982414617825
Mo 7.032210374000782 3.6363640850749492 4.111477313824012
