28
Energy = -252.98620077 eV
Mo 7.685905533760406 9.581365626836448 3.4773793552345724
Mo 6.920431470225036 9.963041561131636 5.9787432132910805
Mo 5.66542138716636 9.329866367129998 3.5161812316415504
Mo 6.502255191215409 7.055144148056394 2.6679995866918347
Mo 8.664952628882386 8.661422920120216 7.62268551182986
Mo 8.751405090644669 7.074145843871839 3.070329988765597
Mo 9.578795038804277 7.98375428294014 5.986085493956008
Mo 4.719247710010166 9.201536153722005 6.106141884635208
Mo 5.877114021140317 7.575830627494403 7.7097486520154686
Mo 3.5523492332329525 9.104140932302522 8.37360205036048
Mo 4.599287219134108 6.817367210937166 5.0824460843149035
Mo 8.240207192835697 4.8180979208510735 2.992654157421659
Mo 5.969652465547448 4.905633393280763 4.031830088062614
Mo 7.159305113373722 7.594067605265579 5.263027179582657
Mo 3.1344629168438174 7.232127330951149 7.501559222438362
Mo 3.651933927052582 4.870029496290701 6.2555134656725615
Mo 8.619562246732402 5.310563254887128 5.278455764595774
Mo 6.243953307404413 5.054079490688497 6.54604501290236
Mo 8.25420949645924 6.187190412230296 7.912782706477385
Mo 7.397733606919398 7.082946033735971 10.064907530874704
Mo 7.620602969557148 2.854256283431333 5.361703284459543
Mo 4.7635846715356776 7.474832143593599 9.844120564548817
Mo 4.826592723130048 2.7675992512318874 5.524113326361948
Mo 4.480811960367059 5.219690821726807 8.64311552073977
Mo 8.282041086926085 3.134511109664077 7.161969365766535
Mo 7.025684164371315 4.442149396878263 9.187872641173298
Mo 5.309878313840147 2.7525241709430923 7.495184893659874
Mo 6.027364308481477 5.4932238158774 10.927573524069476
