25
Energy = -224.19287111 eV
Mo 6.258947864110752 3.0725055965125363 2.423606245153963
Mo 8.503906421970157 7.9520214012382056 2.743863724128503
Mo 4.739921538060345 4.988364689724209 2.841914563431613
Mo 7.820890115840386 8.927774733436898 4.191973838453485
Mo 7.4673267556077665 5.372401959019591 3.220472595176516
Mo 5.913516645152545 7.320727308309975 2.7993223122869533
Mo 2.274029334112905 3.96460536349306 3.6359502223145768
Mo 3.6305924832260517 2.56281261894255 3.570028668450659
Mo 3.4202877261614155 6.615249932902755 4.307498044370203
Mo 6.410281878522935 3.1975922811993636 4.547173569748121
Mo 8.859296385565441 6.419294035676258 5.221886662800915
Mo 1.741935272569989 2.1187166341248744 5.805524587286311
Mo 4.648120496966553 1.699883671616666 6.256841921587868
Mo 4.100550732439073 4.464588594331672 5.643268218279528
Mo 8.396431157951328 4.637163077430751 5.893970773400327
Mo 1.4092677972979768 3.751170472493054 6.537669864955941
Mo 5.161846302621972 8.401215819359289 4.78394166729297
Mo 7.192309962630691 7.887963900083268 6.935519556813222
Mo 6.099473582202565 6.010800408226124 5.2358154159135815
Mo 2.1403457497646703 6.464391442004564 6.347520672746211
Mo 6.105200980128587 3.9206154077943896 7.179318305844182
Mo 3.7443335877147774 5.131180714216726 7.962904816794283
Mo 6.6522499019946615 6.381712537740424 8.001576562072115
Mo 4.3120498284280595 7.197676922007398 6.93714743464816
Mo 3.869407491979123 2.4120904711358357 7.847809749069759
