24
Energy = -214.67407262 eV
Mo 5.787106923955841 3.9567710356418084 8.83639306542142
Mo 4.695410189809189 7.253537115886778 4.170357149429232
Mo 9.479451750958988 6.814861438259704 6.612544342067628
Mo 5.819167722067637 8.501586725778076 7.675825290766504
Mo 3.9523337725460674 9.53754075521244 5.76635388984393
Mo 7.480804044922951 8.190315094675881 9.916440251812567
Mo 7.522591880915583 3.4087579375045647 9.067712281116743
Mo 9.004635356383591 9.154138576720442 4.858854662660613
Mo 3.3268370461291905 8.084260445005288 6.681893411223083
Mo 9.585985970644426 10.812755503916968 5.710318398367111
Mo 7.390778406744819 6.217740699144656 8.35158456510044
Mo 10.710512339581328 10.058169373491076 8.316769250468889
Mo 5.9233628296023975 8.590725930145544 3.7676928631306925
Mo 6.780391347791732 6.121282764042836 11.001393012986338
Mo 8.070610379130198 4.389526160202998 6.52595932863525
Mo 9.675277256302879 4.605149456709221 7.772713573990378
Mo 11.29501769244056 8.861902790994513 6.819839929318006
Mo 6.800010446484024 10.109512636727048 5.875399466284729
Mo 6.989545324640991 7.3004512064786855 5.799346583219919
Mo 9.715478687613057 7.5747786597154825 8.957667927190021
Mo 4.862314708746921 6.629740830139498 8.821482982250926
Mo 8.740568008596291 5.693016391361073 10.625349962269471
Mo 5.219847737162359 5.839696007545324 6.632844607675924
Mo 8.460604012027233 9.204199231055805 7.5300280684124505
