22
Energy = -194.90830096 eV
Mo 8.35243438521887 6.177720946718539 6.038519019964511
Mo 6.46145572911996 4.283549139841614 5.847888617822501
Mo 8.91549624245019 4.189311020839692 4.543027917022907
Mo 5.479140025658772 2.69593274253898 7.527778236617453
Mo 3.123743060696279 8.2995464118452 5.979491968098033
Mo 7.441255824791218 3.7048328781590376 9.125001849410785
Mo 3.65279840766911 4.364505831364366 6.180684023487666
Mo 2.9087162048507906 6.7373558899483355 7.416610855846628
Mo 7.349426834610968 6.066548131928976 8.253982630485096
Mo 1.2745097512935695 5.075170667785259 6.251888877817125
Mo 4.664161994406255 5.424783324609094 4.190452392110445
Mo 9.74629864205075 6.996772607175794 3.67065504157874
Mo 5.38091532793062 6.583080808289875 6.55478360014725
Mo 7.503680985670067 5.078404943434344 3.416731977548135
Mo 4.930195284559409 4.577698202223771 8.35573969383952
Mo 5.722051905556298 9.365425916224659 6.293005198219002
Mo 8.421138417171417 3.638461276056343 7.385437114923574
Mo 7.3210405330877535 8.744600386540608 6.939893173971592
Mo 6.991159125492285 7.465243511456595 4.471154024108958
Mo 2.0650694207318807 6.121922961237999 4.7226055303387025
Mo 9.527816855526186 8.448850934491958 4.748707432758445
Mo 4.4867475149052 7.693381332192314 4.070022382445271
