24
Energy = -213.70440656 eV
Mo 5.381173927051347 6.268493139756434 4.131827404497604
Mo 10.192764147900226 10.67460672744496 8.350298150750087
Mo 6.3652392229441634 7.417522274055766 2.924196131729397
Mo 7.367095292158578 8.1450989492952 5.229929989430029
Mo 8.352048968915408 6.1206251162429055 4.292488145068527
Mo 10.852654222240231 8.303130503688699 7.971244811156162
Mo 8.269377484586691 6.310194029911049 10.276109734301302
Mo 8.033492152278686 7.6942774570446915 7.844836413437653
Mo 6.161914248027686 5.855471702028727 8.731519160418864
Mo 7.726203870082464 4.39453918841785 8.484481232656082
Mo 6.327865192990115 9.870439489150481 6.922385146122596
Mo 9.168741878094643 10.178730539508017 6.5573208205024125
Mo 9.840241821434631 7.784713902366608 5.747301110938982
Mo 5.0742693598905655 7.644611209718611 6.732233148766203
Mo 8.176092129091693 8.212600408754227 12.36980157577878
Mo 4.735425316760456 8.873522676207413 5.162969416234618
Mo 10.055602971497207 5.949136537833902 9.003483773303536
Mo 7.7213540465885595 10.180914109499609 8.85662947053603
Mo 9.45074222352592 5.567242009952196 6.668252999933485
Mo 5.574524550909765 8.62838115221922 9.578597197752446
Mo 9.378384741574237 8.611962968891165 9.920556936321445
Mo 6.997042951946324 5.577306060369135 6.231698694245969
Mo 5.7669774278297785 7.430745150718676 11.011382054997188
Mo 7.439164968452853 9.744190370131838 11.608306307369247
