21
Energy = -185.23197197 eV
Mo 8.797231709116287 9.692990063689724 3.4634097004318396
Mo 10.003161109277462 5.122216872641095 7.216556535067522
Mo 9.80197466657758 9.187716436020047 4.861024685243528
Mo 8.341292976380855 5.080793416884161 9.755582516897142
Mo 6.110636162835488 8.05742716617507 7.869636818895203
Mo 3.40098285181346 7.962112096246478 9.029110509653947
Mo 5.859580944751806 7.901480091514111 10.733072855504574
Mo 4.590181243837809 5.991344455466292 7.32760213483582
Mo 6.8937559085584095 8.759747382330834 5.345579599877255
Mo 3.6931540790945863 5.170568100404123 5.0503237103966745
Mo 5.167840580377655 4.002674740973759 5.381493786846384
Mo 6.1239902483843105 6.422527616908301 4.963956052378794
Mo 8.061640079676835 4.851415709102712 4.867013172867214
Mo 4.398132926596135 8.088554208777172 6.21131760722629
Mo 8.34196321923565 7.257893983817297 6.447707906497881
Mo 8.559997307082993 6.696158283780598 3.882852508160348
Mo 5.670359753165696 6.195265322614911 10.01524881611569
Mo 8.362752476737349 6.957359842455506 9.335461154022118
Mo 7.044869474364313 5.357668225006695 7.433868482154357
Mo 4.304389375887233 9.615012709170818 8.869981337105383
Mo 10.667365922063441 5.905097311963611 5.74908524772036
