29
Energy = -260.67144552 eV
Mo 6.660119307156829 7.569725370776003 3.322499724532206
Mo 7.433768547253291 4.957176551384415 3.836830676612275
Mo 4.8392916682252585 5.723470398594701 4.2170047735667024
Mo 4.743767251356175 8.123225939201927 5.119408500832528
Mo 8.919966751595105 6.800595671447776 4.84875011637469
Mo 7.277134507403393 8.678968193177312 5.198376240886322
Mo 2.5434372593482637 4.140619777322676 3.8613489391477462
Mo 7.095767709144561 2.2638365437207133 3.6274588096820426
Mo 5.380560068206393 3.0935249411627623 3.3037882663628904
Mo 2.528040629306412 6.417319319727365 4.71170965174071
Mo 9.466676615134718 4.189452244376736 4.319057409762803
Mo 2.4595905079345144 8.897168542007343 6.107601009925971
Mo 6.462106147477006 6.171847981596918 6.244798538632052
Mo 9.775589102455623 9.012279752415902 6.317416284594015
Mo 3.2851996786373507 3.8927518910046217 5.6630072801295865
Mo 5.55713041953527 10.460101035187753 6.5289138865739655
Mo 6.151437998371506 3.465988216173628 5.8042315841046195
Mo 3.853459119118483 6.429031024201901 6.95291605631407
Mo 8.278942990492967 2.2944402379714224 6.538845011824635
Mo 7.290656957319118 10.454945713395867 7.293918682035158
Mo 8.72822301517262 4.8476158878818545 6.513441615274479
Mo 9.035545745899068 7.710449007631755 7.465551747319114
Mo 6.135581232005245 8.090224072033678 7.921017308341692
Mo 5.0598360570810526 4.458549909276863 7.864306188524899
Mo 3.3813562320091064 8.874183915154923 7.785340914339158
Mo 7.299002463112858 5.885980595161742 8.738735971113258
Mo 7.503735492504729 3.025762672290135 8.209755550153979
Mo 4.7616961082803595 6.819676396053723 9.583598280569511
Mo 5.741742452201125 4.9383000595135895 10.168295750426072
