23
Energy = -206.30153109 eV
Mo 7.51357216957364 4.219837011045138 2.612222671295671
Mo 6.71853989782349 5.938453425632681 2.179908117014659
Mo 8.434934235938538 6.434417582866414 4.515778749459655
Mo 6.012513769856888 4.996868552106529 4.786535556119873
Mo 6.745742890366624 2.2502232329545704 4.732243077383607
Mo 8.633196842771719 4.469395284254629 5.298332400049613
Mo 4.969460241927027 3.754920149451108 2.953803899505961
Mo 8.390483935995816 6.12534741227041 7.37700703680656
Mo 7.933251865644646 8.059095988507112 6.583250871891223
Mo 6.075022739296502 7.580667141406561 4.5484681563042475
Mo 6.689999463294143 3.9463819142427177 7.06186503862922
Mo 6.126290928567042 5.3700064266749505 9.41547189790634
Mo 4.9148743216457484 2.415492258886462 5.300055198523111
Mo 6.646058993226541 7.961738186881734 8.79606388218415
Mo 4.423097519538422 4.417272347956616 7.219460363727564
Mo 4.054580793138657 6.124293058476269 3.2596013422131813
Mo 5.518099150562664 9.545794645627192 6.663919296952496
Mo 5.619463330042928 6.705395511341038 6.949843555685198
Mo 4.397871723785553 6.2111422011856225 9.465729799444688
Mo 4.360001348640932 8.862153521708512 8.099514891951754
Mo 3.149324903842844 4.966432741917442 4.785892724078114
Mo 3.5696310802657747 7.783406246828876 5.3213206052805075
Mo 2.901239001541628 6.600646298983602 6.92896298241677
