26
Energy = -233.37465927 eV
Mo 7.196147874910572 10.148139007127563 5.244964458091007
Mo 4.364147749255414 3.1923780294498108 4.881779098792079
Mo 6.390596926937742 6.172905695437591 11.082776442945425
Mo 7.929101834435947 8.814684846006351 2.7171659951336657
Mo 5.713819330406734 5.333843591235376 3.5146889041593443
Mo 7.939926083079361 4.641127665630642 5.161242575658862
Mo 6.526397594035564 8.18294001321762 7.2726811682689645
Mo 8.127927248198567 6.286876603490687 7.313730731757859
Mo 5.357422985179639 9.774375773003978 5.432736580328116
Mo 4.005689148912543 7.391503423063296 4.600524429849001
Mo 3.5322795718669937 7.542115368255477 6.437112893113374
Mo 9.444522915751547 7.118165697983683 4.821242126304412
Mo 6.2198915093817035 8.111545716713314 2.3734975409602708
Mo 3.650485687150046 4.4435773992107315 7.323841045490769
Mo 5.57160702680824 5.574124866804856 6.2332340983120735
Mo 7.7741645005347895 5.899994740093259 2.8286942531016526
Mo 7.053716117600194 3.2257543107844664 3.8398442700640136
Mo 9.157960187992586 8.368117558512955 6.471868172225113
Mo 6.968163743351186 7.463371311206634 4.9145953360561325
Mo 6.665060058504155 4.602261894516606 8.742441609988955
Mo 4.488483712458481 4.08163215683381 9.925421592954342
Mo 7.672349883727589 6.896341361536769 10.01115320702562
Mo 5.0932217160346385 6.516126001509145 8.54219432136168
Mo 3.1308997324504433 4.776063018025738 4.866133564313833
Mo 6.250390621381586 3.235832378676339 6.678439049027444
Mo 4.652446175704532 2.5391795775247945 8.684398603904585
