23
Energy = -204.73188848 eV
Mo 10.328815824953981 11.249163624040785 5.612744635254944
Mo 9.693152604258266 9.571050446995422 7.8063571970516215
Mo 4.884016190511916 7.819805283937916 8.712663655483746
Mo 6.794641627060279 5.838854714596504 5.763505171465015
Mo 10.256925924888318 7.33044888558486 7.187032847080288
Mo 6.072345134441754 8.326450130277983 4.771640434028705
Mo 7.3701458703393925 11.056334189127101 8.19265528262245
Mo 10.817733437607176 9.57106136963172 5.141896429825268
Mo 8.687998587609814 7.475456935703222 5.418710583092342
Mo 9.507772504590351 5.617292629685672 8.920459977986493
Mo 7.327391102293073 5.588401453315668 9.739949550047378
Mo 7.5111096033786815 7.97857353145248 7.999700476812094
Mo 9.18751956783726 7.214517015884044 11.125827974638982
Mo 5.533770902303394 9.527317570489595 7.0475289637471965
Mo 8.015747834959662 9.736675383226734 5.978976690355284
Mo 5.694831441091574 5.735626914352086 7.9367461907825065
Mo 10.680159311945461 7.790008279089433 9.812861747340955
Mo 6.070082145919538 10.228542003064307 9.607374609480688
Mo 6.533491508850922 7.708012800439932 10.49780846819994
Mo 9.362695187796936 4.91320047482835 6.372446425851636
Mo 7.797735887109638 4.075960758870743 7.365756496913304
Mo 8.459559514260716 9.395417800168866 10.125030406987868
Mo 4.682349612186117 7.273203413375429 5.884120735880329
