21
Energy = -185.13524831 eV
Mo 6.957431372960969 7.797619074195905 10.765724162439511
Mo 5.39576228444274 7.096353055442863 10.078856355439283
Mo 8.061296060789191 5.629008417470025 9.422111660769573
Mo 8.224532781265333 4.506910445345725 6.647384116248199
Mo 5.183808204454358 8.092507359421868 5.453599596603513
Mo 5.382610154940389 10.416473582792102 6.063997917632181
Mo 4.07756118020697 9.422217928473952 7.679092499397152
Mo 9.752648724330328 3.870903073474797 8.72107546371776
Mo 6.4381914589882845 6.075463329191996 7.565982973094885
Mo 3.1706790687481257 6.227234111622219 4.835897033717891
Mo 6.308372747545229 8.717280381016842 8.112673272018469
Mo 4.21588749991563 6.8341793304277045 3.397501988747841
Mo 5.956421581328527 5.301980598755381 5.093112038615998
Mo 10.46015945509219 5.630172980332873 8.081434181869032
Mo 10.163887587018428 7.919207797213052 6.271645796325042
Mo 8.69950271187909 7.641597062341446 8.362158102782972
Mo 10.03334012464461 5.992696935867737 5.451734038439164
Mo 7.655491512488745 9.592809642082466 6.291823625343791
Mo 7.707532694027345 4.527236380562695 4.329822886332496
Mo 7.7003674349145355 7.2097477593517745 5.691014071947328
Mo 4.030596023665094 7.051990809286393 7.343368948023322
