26
Energy = -229.5216861 eV
Mo 4.409088944284046 4.581317455037379 10.318746440932468
Mo 8.182692623726842 8.808200428373267 6.3752274704085625
Mo 6.0547354646068 6.677420803204802 10.544435174677577
Mo 9.176793287614974 10.612713730513638 4.000629431550901
Mo 7.074002457773862 9.06257190460605 3.836687723547251
Mo 9.52549223732256 6.5061035684017705 6.588511583956525
Mo 5.19942304814026 5.856421090468122 8.052898023622243
Mo 7.437641802297877 4.952952064286726 6.640200665366518
Mo 7.639292080120676 6.977036474785104 8.358439106568865
Mo 10.340593401087732 6.837858040618189 9.091262850243039
Mo 9.403598193177242 4.6000563005977275 7.899132669198887
Mo 6.825728220844822 4.2898146237991 8.692651757015398
Mo 6.108970813319418 7.145769409910546 5.813023303133752
Mo 8.254286329153983 5.578901817435348 10.688495541369045
Mo 7.802883064579869 6.844639178338391 4.483703054300994
Mo 5.734209393843398 9.650411437851666 5.619768032587452
Mo 6.688078611953653 9.113987035435088 9.900561031171595
Mo 7.3401998912833895 11.404319494676209 5.889261443680004
Mo 10.001603873091403 8.799141717566597 4.54519804366511
Mo 10.851415816391228 8.825722557419258 7.124389941204144
Mo 3.449654223169929 4.040308061157839 11.681184269978965
Mo 7.124034860945781 10.8119015879144 7.8728490537247255
Mo 9.10061599088016 7.558127138493951 10.870480831526326
Mo 5.479207123556763 8.584524083980176 8.32970318614456
Mo 9.743415110293954 10.901897768438916 6.386697417524374
Mo 9.218626410779839 9.251406875216057 8.63334224022208
