28
Energy = -252.39817539 eV
Mo 6.009879022310983 10.60484120775478 5.661647976451724
Mo 8.297794414921537 9.510579569691172 6.316438553640763
Mo 7.815755536611646 9.381946482629083 3.5366555144320193
Mo 7.107007126350056 9.004660446855324 8.01139877937054
Mo 5.188083248295186 9.808904694304742 3.6517055622914922
Mo 4.718910167082509 9.356185209969404 7.402086638445596
Mo 3.3383263130777396 9.289119971120826 5.383848012071964
Mo 6.020232912194535 8.036267063871193 5.3893518983357005
Mo 8.659293760158015 7.774780116490306 4.046166927434363
Mo 8.078246283613685 6.809346265790526 6.709582321034692
Mo 6.026174914337601 6.952590361350455 2.889839488163538
Mo 5.333830836249236 6.823146902102706 7.7075761220484935
Mo 4.106667261773855 7.306730684571763 3.322506078653674
Mo 3.1120075245124372 7.329569620444152 6.05435316100438
Mo 7.449553216501255 5.386016694747525 4.753181873889233
Mo 4.7994642507229175 5.526788399767004 5.085055319864512
Mo 7.412766832218053 5.906651555457339 8.825275760693025
Mo 3.5718136309614374 5.017214055112475 7.803853266380206
Mo 9.05714037399534 4.366605063477026 6.914282392070852
Mo 5.973289641550288 3.4429926428093136 3.9608168976137863
Mo 6.356654348086914 4.222841981485546 6.9540985522775784
Mo 5.089485182026263 4.538871782118293 9.393817882476489
Mo 8.363166214930926 3.0903339305287543 5.39733992509547
Mo 7.662645091251298 3.1040705580917436 9.231779998892293
Mo 3.9630188608249215 3.2660726430711056 5.981267272907322
Mo 7.5672092572270975 1.8243609972628545 7.82357571462101
Mo 5.72469134696724 1.8316607799570936 5.390432968168324
Mo 5.0204483747079705 2.485145262579387 8.190388216543845
