22
Energy = -195.47290379 eV
Mo 6.881277016360327 3.826194447244076 5.753587731355925
Mo 8.149436755228347 5.157626875495945 4.110020613954043
Mo 7.681264643329084 7.621327800665987 5.274343949395452
Mo 8.15872097137278 8.923373168492777 10.398652390044724
Mo 6.513761414491647 10.602080067765339 9.186768606382234
Mo 9.623277219180203 8.443916985091379 6.603948493000277
Mo 10.537039857953648 6.642122991129797 4.837575200277761
Mo 7.2959620600890345 6.7463094120826606 9.950895589234209
Mo 4.12634134211198 7.2220619194491045 7.168457765318947
Mo 6.09423029918014 5.361582728638586 8.019493082725274
Mo 9.629800849215922 7.328293097606272 8.609351355526472
Mo 5.8238062906782115 5.969419095961293 5.753083578445204
Mo 7.604496724768862 10.439179472237292 6.784881327193766
Mo 6.896799313993363 8.160439536371916 7.94107560824645
Mo 8.347187384276767 5.9066767907641 6.918264402529487
Mo 4.974548256496271 7.26813691153392 9.914230348868461
Mo 5.922196332786716 9.106120055636277 11.11694796179988
Mo 9.066980656877526 10.349334693269554 8.220507467246566
Mo 11.082395486296402 6.00076264375966 6.610822890385731
Mo 5.057320222232738 8.783682436347702 6.161886631024864
Mo 4.615024553849495 9.390740805943532 8.734557900028431
Mo 9.464174763120647 4.087990668783923 5.269967770223508
