22
Energy = -195.52235637 eV
Mo 2.8987103533381027 7.830648583494508 6.654393865665456
Mo 4.365153390535832 9.371697984677859 8.690789102216932
Mo 5.192604309547631 10.024550234231853 7.118680448710933
Mo 3.075234469300064 6.599832138002354 8.065956931830652
Mo 3.714340127933496 5.017822094221429 5.7325586450640404
Mo 4.900032109341469 7.192264658023833 4.3802241223640594
Mo 5.5295322562583005 7.387618528098985 7.176586591453415
Mo 7.290904836808533 8.695423633817114 8.399000586455632
Mo 5.22956615821679 4.774806994504847 8.027991961761177
Mo 6.881820011459317 8.407344339330127 5.0759726637368905
Mo 5.997354063962393 7.146997996880006 9.697355074598581
Mo 5.519104001532489 5.248727502350359 3.2853870136665853
Mo 7.499889761894544 5.854752985833674 8.646799218683267
Mo 6.5173312991851144 5.531235601154593 5.841340678213892
Mo 4.766437450427041 3.4009960770527474 5.653361812445108
Mo 8.350904276811468 7.26828707935635 6.640862891143126
Mo 7.615539608641495 6.499862763879465 3.644102588588929
Mo 7.440311810743863 3.3185808485047277 7.180229488355466
Mo 7.304447704606701 3.846639901989016 4.349034299954059
Mo 8.921595063039982 4.406645794465013 6.469195258926149
Mo 10.234558469658557 6.366018775224463 4.600222402810699
Mo 9.893599702342675 4.812301715868799 3.713981795035538
