23
Energy = -205.33310289 eV
Mo 8.852012777847072 4.595990319741133 4.354458154547992
Mo 6.6771025781440585 5.738470550868907 3.1050097186581125
Mo 5.846114164493747 3.840399369353458 3.5609560945336525
Mo 8.868840152239825 3.617539727572208 7.088812951085436
Mo 9.848949154493573 5.873784842742333 5.484718736875209
Mo 7.5151305863668085 7.004349906745839 5.207539459679477
Mo 6.570286082401038 4.556234877982594 5.765737486720131
Mo 4.668088311537555 6.237755179234598 4.618263526686594
Mo 3.81466535593499 4.272050648187392 5.349675813796072
Mo 5.413415038926369 8.82035086536691 3.7482114717669623
Mo 7.426585856789519 3.6288855846086037 8.24229733522184
Mo 8.186861801947616 6.267389084072343 7.798708734347664
Mo 5.696329070942032 7.015552771940384 7.103414003360146
Mo 4.584392903484647 4.5437084614117795 7.884019998117745
Mo 4.16216330507162 8.77348992858917 5.2426025669183085
Mo 6.835339823008132 9.35229464561284 5.855223988136295
Mo 3.275564610018522 6.072962771032306 6.992357193924128
Mo 6.017089462938609 5.757961426218491 9.71382240790411
Mo 9.142436731824537 8.308350093862245 7.038496194986557
Mo 5.406290964639357 9.238725245753246 7.795225294037249
Mo 4.539170894978114 7.018463332219751 9.535211372501983
Mo 8.097343115766252 10.033444996746786 8.117949517305417
Mo 7.316973206806514 8.1960419982455 9.179542742395855
