28
Energy = -252.71343489 eV
Mo 3.438639460926762 7.763325348014455 5.361579535235782
Mo 2.04781315988435 6.4805767600875 7.506657863725322
Mo 5.720671295361122 8.652701483866796 5.085671473967882
Mo 8.305464129528366 8.57393165535871 5.036034975686053
Mo 3.068189099396103 5.039057547230871 5.433645536111928
Mo 2.6620609785587446 8.308564897655977 7.772741180141082
Mo 6.764685688731876 7.80004456330554 3.0695645209880413
Mo 5.0113874504768345 6.145469145568098 4.106324732184353
Mo 7.22400627257565 10.130255001831506 6.778889623200812
Mo 3.7605534530423896 4.312965587136536 8.215579580811802
Mo 5.054447952239543 6.671424166496916 7.091639697512305
Mo 5.312525879321876 9.124639576929015 7.616620856719939
Mo 7.317542484587355 6.242452802966901 5.434108109700477
Mo 4.147059521779263 6.927808302084156 9.742242874194101
Mo 5.760110180070155 4.15754781586525 6.199139236834393
Mo 7.166881886679712 5.228515830643578 2.968042135056483
Mo 4.997877205852094 3.5819149722229677 3.933694952276018
Mo 7.775522800884453 7.931915940076742 7.623687881319419
Mo 3.369897893060613 2.9544233180716954 5.603611767593636
Mo 9.488757090998579 6.50101372717863 3.7319913503086974
Mo 5.5200451078020105 4.404436646388462 8.966090540086723
Mo 6.017013479842704 7.207150920292085 9.677003356071333
Mo 9.74065611785462 7.1010843750922605 6.753611978923976
Mo 7.905010512486181 5.272234533447087 7.885921159989772
Mo 7.649832375608699 3.4804567964582485 4.604572137183424
Mo 9.774048089170982 4.602683260976029 3.2123669214661397
Mo 7.974844090223785 3.1605398862427525 7.221337644741839
Mo 9.483375277896394 4.701784073352683 5.826547312809782
