26
Energy = -234.14104769 eV
Mo 5.332788738406149 2.5701500793561602 3.6433456703993565
Mo 3.180554948928418 4.661369104510729 4.116654950470698
Mo 6.622183318934017 2.3663563067230076 5.058963814641591
Mo 4.321707767364419 3.346655037599132 6.257872981675384
Mo 5.375361019012793 5.097392403422461 2.217690139926644
Mo 7.500526391842384 4.414663300836091 3.3964604136324406
Mo 4.3909354830723055 4.816185965191735 8.74537021604291
Mo 3.5851830955255237 5.811910622544957 6.7380410394583645
Mo 5.701985990984036 5.042711281618715 4.9768135384262004
Mo 6.278182132509299 3.7228044081814655 7.576356939980754
Mo 8.426499817462652 4.602306686805687 5.983481383649309
Mo 3.5466680966571675 6.634807448503262 4.173248262947159
Mo 6.123012509370097 6.865020271392968 2.7353881666271582
Mo 6.771489069601259 5.45910275263436 10.092689236300933
Mo 8.636237334405886 5.000485811321744 8.08117789621661
Mo 6.300465186575477 6.411942017930085 7.333886877141248
Mo 7.979689307451445 6.686096762924638 4.726289750741121
Mo 4.600466263123723 7.180130508517447 9.235987458971037
Mo 4.024332045157797 8.25556094785617 7.1995936906312
Mo 5.652836815717693 7.9527548077695 5.253131527065936
Mo 7.421934114791126 7.196233192514881 9.796751799270847
Mo 8.664008396887281 7.362178557559693 7.016240186932234
Mo 6.3460834120014935 8.98624906356007 7.812975660757436
Mo 8.238288287045393 9.361457113199775 4.895825085251161
Mo 6.080572289493381 10.19894939127318 5.75721761282252
Mo 8.655793272060977 9.794411901005242 6.946403576794728
