26
Energy = -233.32915289 eV
Mo 6.404225084064558 7.715780229458195 12.628747143534648
Mo 7.389550258337361 10.627194430548442 5.73536215196786
Mo 8.163087822217916 9.140760839719876 11.11057210236204
Mo 10.115835089298914 10.150543341237395 6.96753979220398
Mo 6.82866346724671 7.658183466589425 2.845296487718441
Mo 5.5049665397893 8.735046764593749 10.609190429275024
Mo 8.652038158417607 7.586898963400782 2.9276592463095623
Mo 8.166528497438467 8.160515766592273 6.8403898700269705
Mo 5.738362429342462 6.3637664347084195 6.950061045113198
Mo 5.878407812323181 6.046001972088291 11.097297660532274
Mo 10.059081927257521 6.722096939600563 5.285893615883849
Mo 9.85317722975068 6.197014355478598 9.50636710914601
Mo 8.525663877954 6.972337839742683 11.683257091135173
Mo 7.338955457692359 7.227067298889076 9.24743903441813
Mo 5.928971288611516 8.409783025802062 5.3501271142371465
Mo 9.968290291453672 9.434530352083447 5.163719465976441
Mo 7.391279965906447 10.114386259700685 8.604386423555495
Mo 7.978385625494365 4.489645434795351 10.115336984342232
Mo 7.533792613004116 10.217762892532013 3.8919852445918455
Mo 4.586043515965643 7.08136978959424 9.20462217582613
Mo 5.644150624002971 9.08393923969534 7.8510999972363384
Mo 10.68945667340396 7.2333605011225 7.122659019841535
Mo 6.45275816568988 4.57851659917084 8.796844411770106
Mo 7.346634255293638 6.309510238697319 5.225034589316481
Mo 9.62604681098363 8.623706208425476 9.278552572082882
Mo 8.604919726077169 5.552034347813072 7.483026963531591
