28
Energy = -252.28109176 eV
Mo 3.545380830715782 5.222822486790187 10.159006143517601
Mo 2.777797356210423 6.891891052156148 7.683887041756179
Mo 5.386114237144162 4.911858261487309 9.710986795984374
Mo 4.442413095062701 7.5104306353928445 9.255037930775655
Mo 3.564534108413415 4.442389828736044 7.582770494411937
Mo 4.196534375595126 9.556329952029875 7.4158686641964335
Mo 8.174357182216335 5.144350498302268 8.603110116610814
Mo 6.680787586342216 7.023421826870563 8.29285419005404
Mo 5.630429927088122 9.930852206712553 8.57875126601845
Mo 2.5538903209952313 5.142699747249889 5.620286316873353
Mo 6.138543553000941 4.31901701088116 7.096176184115741
Mo 4.7354986146652225 4.591501210620173 5.016158229826871
Mo 4.748455895566704 6.794640840878975 6.416864895625662
Mo 8.28263514718811 8.835982099978263 8.189105845053042
Mo 9.844643363508506 2.9953060029060152 5.0153054819192056
Mo 3.914869089417466 6.945474517010014 3.6786934727744227
Mo 7.1107261990126 3.394140814809409 4.697855408097454
Mo 9.202281023079218 3.707104374640095 6.600438741477873
Mo 7.465329550464474 6.080184061509176 5.623321963908969
Mo 6.632305522224086 8.83453663228725 6.153234447585251
Mo 9.42753325601815 6.709292611541231 7.461329424627778
Mo 4.0970828451859 8.63891425453615 4.564289604409452
Mo 9.92463554488363 5.83244702749984 4.944095880805414
Mo 6.35004667511993 5.6965827726342635 3.1578830089592964
Mo 6.606255820285868 8.045335893058741 3.8280343601359563
Mo 8.36699620985542 4.6076495918234235 3.269110012680902
Mo 8.940011378022819 8.560446072553061 5.7006174557340605
Mo 8.933378578618374 7.322461861378463 3.4895952215420167
