26
Energy = -234.00408236 eV
Mo 2.9799095064467855 5.653757691317519 8.071986018181704
Mo 4.078883409811717 3.9613494118321375 6.325185665237283
Mo 5.816392396307458 5.337926222072213 8.081708910833756
Mo 2.3171231141773423 5.961479660106932 5.483126069307753
Mo 2.695827128720465 7.658037064944785 7.872967646228006
Mo 4.6978976768117695 6.7770211112728775 5.980491709121353
Mo 6.61300561979584 3.0552780221031233 6.405705226082624
Mo 4.0257163123710775 4.938410640102592 4.011807430352717
Mo 2.606672305534842 8.331078821160956 4.947536638906736
Mo 5.070763712321894 7.4494286668797685 8.729379859571223
Mo 4.611371613301199 9.537469190181053 6.5211884554579145
Mo 3.596611967312721 7.466390554725344 3.4111127075065095
Mo 4.60265119792844 2.4387103807276844 4.629386491853647
Mo 5.6335708330032235 9.26923313167915 4.885885991277011
Mo 8.188761108744522 6.738959498307029 8.77380055106531
Mo 8.198137985078198 3.847987299598721 8.335204989813974
Mo 6.812183139997855 8.10322150596214 7.071327734491207
Mo 6.456744717007192 3.8165508366571173 4.139646249076691
Mo 7.563734032454258 5.615240400672979 6.1418532960524015
Mo 6.222328478467009 6.651575757829181 3.919739394600831
Mo 9.866843142064576 4.671025495642222 7.431364069155597
Mo 9.461531974903634 7.429527879652425 7.438570383648246
Mo 8.113611270652859 7.8646974462844295 4.82719051902382
Mo 8.880808619599911 3.4420896922115163 5.584930366520327
Mo 8.670579654496287 5.337787729753666 3.5841496804762487
Mo 9.994631242640116 6.224860154879382 4.808563851683452
