23
Energy = -205.70526958 eV
Mo 9.367992658336565 9.609135540128754 6.652609727905571
Mo 9.774641557303118 9.044333485641998 9.815864954611314
Mo 11.572186646982868 8.624362614972663 7.686012772046747
Mo 8.332737674462324 7.733672195339453 5.26068631984215
Mo 7.3283808308581895 9.595044273788432 8.410719919376454
Mo 7.049852442614256 10.039004716720727 6.141733250802783
Mo 10.72844748350511 6.676937483245107 5.991310245344445
Mo 5.916677634325555 8.50806922385331 4.193543193219385
Mo 11.485922583174649 6.893038148971317 8.788790472658235
Mo 9.061362933398168 7.430321001084822 7.914651058044005
Mo 10.180514122659078 5.003975479230845 7.248250540035505
Mo 4.61830831726097 9.565292996432134 7.271797754079646
Mo 3.4222474883526686 8.053721985768957 5.2396157199719395
Mo 9.550707691540303 7.116289820823214 10.701439889633747
Mo 5.856025608201894 6.597987629372501 4.477164895415792
Mo 6.418365755121055 7.423947089323732 7.029287969780496
Mo 8.085266189731742 5.405914810830189 6.122290141438979
Mo 7.604201018511193 5.360707338952672 8.811489860101572
Mo 4.893143934709991 8.660135421118804 9.006914444772532
Mo 7.284297795127566 7.431983794143332 9.992667767433968
Mo 3.7487906658067325 6.866650680487558 6.653423386650281
Mo 5.698869680540161 4.672959072369001 6.847014744985168
Mo 5.3022004326087755 5.580645595960559 8.753102031536116
