21
Energy = -186.46331733 eV
Mo 8.11123409555505 7.424822128268047 3.1205202619089345
Mo 8.838959304576814 6.098546285038875 4.255867221401334
Mo 8.595611489916662 8.792925434779914 5.733978468430472
Mo 5.263665708001448 7.105861036879491 3.2788574411676437
Mo 6.987158253632497 9.628235323637664 5.245679513828196
Mo 6.278999475800528 5.163478452763551 3.2840387440156373
Mo 6.555898958028313 6.986222133061479 5.372857442645891
Mo 6.113936302248639 2.356758128507831 3.945143487945547
Mo 4.490423850066989 3.0477582971686332 3.356317349952088
Mo 6.893613450217369 4.385783107672838 5.894780278646367
Mo 8.217937064817816 6.335845911383537 7.563197908014747
Mo 4.269824160024658 5.389212544303908 5.044995856679014
Mo 5.301531124715945 5.874274286892158 7.604687087481087
Mo 4.754611807221775 3.277679501628049 6.3138186337202304
Mo 3.90880902131064 7.9260712168404615 5.987485353598145
Mo 6.1745267047400345 8.250492348362213 7.471399508915128
Mo 6.55593119076738 3.947437930446928 8.419098891114208
Mo 2.9871262894640536 5.443045354570978 7.325635726457924
Mo 7.385834142216746 6.347870679153173 9.329304831084
Mo 4.227429189789279 3.559828505154374 8.577823840359649
Mo 3.3663860239686074 7.886076111491588 7.925559760309916
