24
Energy = -214.02776531 eV
Mo 4.289426033946929 8.617546839379955 6.394955839789162
Mo 7.064896185384746 9.241022994425775 9.467613909142145
Mo 6.810648529158938 6.445416190529684 9.731536041050093
Mo 7.039420064993656 5.1742826827170525 7.324660478884088
Mo 7.005215806896345 7.7486871405204 7.179317630034054
Mo 9.009417853039972 9.469061055307037 5.936338983758584
Mo 9.673809808877468 4.184158157909674 6.73020112101632
Mo 5.238180284929366 10.013753253625449 7.24701113144708
Mo 9.343575360254261 8.668986796670321 8.59260623488733
Mo 7.923912883900868 7.182080433981684 4.474550140198625
Mo 11.498014558948265 9.897414446475848 10.03834371538152
Mo 8.994800225127552 5.831563812232534 9.001448256895793
Mo 8.390153292624674 7.753066498020305 11.113470413009264
Mo 9.355219335777083 6.700636560691908 6.670648531508532
Mo 7.931681193216319 10.83177531211001 7.472665867260283
Mo 4.697635686569101 7.827557781457135 9.059492781740103
Mo 10.145143733654601 11.114727506800392 8.255539339345706
Mo 4.617998683397828 6.188298965167935 7.885452118792099
Mo 8.274783341571549 4.454375845107065 5.3472479312106715
Mo 5.946188621368175 6.543386100521607 5.28151786099443
Mo 8.939426571750184 10.8700042046845 10.311935837638933
Mo 10.353566619208154 9.608455283733685 11.750821982118259
Mo 10.518329951451289 7.264963316702878 10.299304806259647
Mo 6.8679596437821875 9.291887432177012 5.0868612040615035
