28
Energy = -252.0965294 eV
Mo 11.259920800509944 11.046838263145247 6.143832069993375
Mo 8.090954260762775 7.420253033208189 5.251462888528663
Mo 8.207009240971265 5.672459223914109 8.732212242213837
Mo 6.225633627732158 5.799050034934722 5.5469478375376635
Mo 10.974142876236256 5.4139224981516385 8.214347624703578
Mo 5.967004492212274 5.901308317413251 10.066450076275519
Mo 5.903002917880642 10.240901575351776 7.661022602406405
Mo 7.676435226279871 3.902359978280984 6.79006861614882
Mo 10.140099416318948 8.972831107371524 5.054664271102627
Mo 9.09433619527732 5.195589871411556 6.133914047724359
Mo 11.800173906777859 9.488520439847026 7.2569449829882124
Mo 9.473212625274545 7.824348545178629 7.633837331516907
Mo 7.936691226280542 9.745983209812477 9.069729057330303
Mo 4.286577461383697 7.23541553942885 5.9913549623400435
Mo 3.7504388541618447 10.062732018961913 6.037278746863392
Mo 6.610310721008996 7.557333106041637 7.689130902728309
Mo 5.074798080423267 8.781595504995813 9.50597403835141
Mo 5.6202856733428295 5.071559761677697 7.817963541894496
Mo 7.350822168518766 7.714420664129934 10.38509269939477
Mo 6.011063241591114 8.756193071231943 5.405473025571544
Mo 9.772979997628656 6.787927044885088 10.376522547030925
Mo 9.583099165587736 11.06165854343052 8.02471403676013
Mo 3.16780485985531 9.558427576818037 7.739532199731714
Mo 12.01501848421624 6.9875581727752865 8.70575779551704
Mo 10.195565428307715 8.930019105431427 9.841979227754564
Mo 11.184818525809284 7.109150559735353 6.000407354261157
Mo 4.024216009112836 6.958176704149804 8.452854861902377
Mo 8.288539680464131 10.035243027058158 6.325001349917457
