20
Energy = -176.53178121 eV
Mo 9.076993230550114 8.451518665889463 5.870426260025029
Mo 5.940969679442493 9.703112679073062 9.406448168664937
Mo 9.648091960977444 6.242600459500545 10.0606330951056
Mo 5.422572777031892 4.979030851066071 5.254190853797724
Mo 8.148656084764498 7.961487814376022 8.545710787566415
Mo 10.448138457165104 8.632612992878741 7.087328085889019
Mo 7.289724006177834 5.841779622838161 9.499480121157115
Mo 7.333531998698557 5.935777511622852 6.975174408590001
Mo 5.173769995091633 7.096287159159669 8.398883658285541
Mo 5.080771270815325 4.963182780197718 7.64123733540749
Mo 6.588513240441199 6.817990689257869 4.582496562896992
Mo 8.933331466377275 10.342259791679181 9.398827964669877
Mo 9.2463198426 5.636158389207332 4.9892118236699226
Mo 6.512888640988807 8.410203048619154 10.61840331309998
Mo 4.916630691970721 8.727727898718674 4.741492183730941
Mo 8.043873600544293 4.264680434215636 4.796144460797781
Mo 4.127012364433025 7.195926151662512 5.854789385712092
Mo 8.24210740752893 10.687885127468945 7.743437996576153
Mo 6.362994712532925 8.549423881226621 6.772596450959395
Mo 9.837220482254661 5.93446596172821 8.137198993784262
