23
Energy = -203.30076594 eV
Mo 6.462783306195101 4.140337686380478 5.843627459874044
Mo 6.021683628237781 8.166354918722021 9.878528886721872
Mo 5.587402741942167 5.874129685762667 4.688627687067624
Mo 9.53692774835502 8.193213063394865 6.253782438452175
Mo 6.636304659901864 5.625982480027519 8.160622084811791
Mo 8.08199947180955 5.857147207515985 6.10792278544911
Mo 8.66435690831541 10.826879388215415 5.540728297720551
Mo 4.322133518165037 5.56404849176514 6.475529914587411
Mo 10.721703181594945 8.948117980422074 8.767840616669995
Mo 10.110909433931715 10.674358534546963 9.525595835739635
Mo 10.147617219231005 10.807899045764934 6.6538250645903405
Mo 9.76550590350842 7.118888401266939 10.508583245481532
Mo 6.988280622643539 11.065719147266854 9.481737196425124
Mo 8.533702350017867 5.08104355544222 9.840093870302118
Mo 8.53375782941517 8.920441490018133 10.636525206829743
Mo 7.956787557124936 12.009682562288075 8.243605863706444
Mo 6.797964666530816 9.675598999471712 7.224585268371405
Mo 7.270920946775713 8.21144720931376 5.301827337961464
Mo 9.08681220173808 4.183989408819807 7.673968293662103
Mo 5.50793471611056 7.559702023399251 6.96939429705287
Mo 6.749401449047678 6.675163285019839 10.863555379901706
Mo 8.130682735116036 7.76686400174911 8.25864165771584
Mo 10.234733049925005 6.068491203152295 7.957352707116308
