21
Energy = -186.13806742 eV
Mo 6.633951192171855 3.3206152638950535 5.572549684620898
Mo 3.4587945533097844 4.932270488301616 8.122858979189122
Mo 3.571976018426856 7.770600528280846 7.948214673544662
Mo 8.398730328424184 8.485547708527253 8.70694530387973
Mo 7.724673243323393 6.584884772806629 2.954397922143086
Mo 9.589032411041995 8.430614980250763 7.037989956603778
Mo 7.697979924535191 5.635131983326625 9.314279079553648
Mo 6.0078565031718965 7.558748171070304 7.569682059910545
Mo 7.041734002412903 9.811020597245067 7.007040593936155
Mo 5.877276901287137 4.907068128998458 7.278721654715468
Mo 9.48899285866424 5.956930262783076 8.97200735644161
Mo 8.309423340817665 3.755384377151826 6.945657912088778
Mo 4.43701775318943 6.051877658440134 9.517353840487528
Mo 4.663838768482696 10.032497857237086 7.227858116198691
Mo 3.7255532905228583 6.423072376450441 6.074218694368502
Mo 7.395456593953615 8.23064090620237 5.083547372387331
Mo 6.124891736410809 5.979044362755113 4.926933345945807
Mo 8.258088748153385 6.284792476014012 6.551059341765606
Mo 4.735144496211128 8.7510022045094 5.509186862573466
Mo 8.41516651783071 4.706344570545603 4.492887195581814
Mo 9.4132965022421 7.083685427353426 4.169165164585234
