28
Energy = -252.49316011 eV
Mo 7.617549222629278 9.38289948857207 1.4073084479901916
Mo 10.551622655175901 7.225526378560725 5.973797405053387
Mo 10.43894515550694 5.094684828454602 6.737954938050954
Mo 8.45600537763928 3.729107318049026 8.527197582187114
Mo 8.30361639638477 5.443321347354922 10.620080109058113
Mo 11.539928145112558 7.00427338699957 8.56185021581613
Mo 8.83460799082196 6.53515873900071 8.087423991972743
Mo 4.3991589791155565 7.5383400369664315 8.163333991003853
Mo 4.6582844523666225 7.42706760905642 10.111795663097105
Mo 8.53757178450135 10.252672678243204 10.134351479959532
Mo 6.515833349091946 6.995340730525192 6.460781035792179
Mo 6.494920878994049 5.738472229556998 9.082420079920567
Mo 7.021471514945451 10.720297559769532 2.461241778441342
Mo 8.796368277729867 8.894496339010127 3.862185879069168
Mo 9.733674153739521 9.529651608705029 8.52419232883472
Mo 8.509743902472552 6.458268238985459 5.076087699086166
Mo 10.975721112783491 5.332514007971881 9.413233957205737
Mo 7.774562318100744 4.337749481740021 6.818111860401551
Mo 8.353271991546572 8.853133968567654 6.450267636018017
Mo 5.813214785364332 10.129737842602283 10.678998450277874
Mo 7.201836508354974 10.858204977220607 7.972412717946883
Mo 7.248551296902415 10.829003202852563 5.362264758653656
Mo 7.14935739725621 7.544406155510676 11.179240941780153
Mo 6.996758176871018 8.417007226595784 8.81574180247609
Mo 9.459750032577345 7.64885990643975 10.329539438853446
Mo 5.651196926271609 9.51054913916492 6.157797026614478
Mo 4.894354570749854 10.195235961432784 8.918001717220623
Mo 6.729498993278378 8.329306103989737 3.978632433857244
