21
Energy = -184.89330266 eV
Mo 6.7264554551147215 9.159859440671688 5.39381721209969
Mo 9.766414128622563 5.32844906814555 7.498883760381395
Mo 6.703647063364312 3.650969682709271 8.106895446857934
Mo 7.585108355192304 9.021433734941086 7.311588268054735
Mo 8.86433730679522 3.183361561321058 7.165080493478965
Mo 5.070347048620181 7.773516411680063 6.78156689005778
Mo 2.509624596327473 8.546344740575364 6.581433275474492
Mo 5.143499248201188 6.30406439582662 2.323968191623995
Mo 2.5584060464862923 6.853467449874094 7.351639620739952
Mo 10.707846274856566 8.11514480078746 7.483382735354048
Mo 4.984813133405247 5.1452888339423835 6.304446550484653
Mo 8.666551021405867 7.161739970946103 6.0721587188558095
Mo 5.044347357733285 4.74159743651072 3.342895913399226
Mo 8.30772262993976 4.764739851309561 9.361959049784447
Mo 4.155032783031368 8.422184455775017 4.169766970069172
Mo 3.377229343127449 6.637445731587086 4.618954886555777
Mo 7.096968236292148 6.369769442039095 7.854965718984067
Mo 6.332999587479595 6.803326260711495 4.606415256008844
Mo 9.5500608124791 7.631653292421535 8.898117817471205
Mo 4.873882063091003 5.374536975115073 8.519868265395536
Mo 7.60234302551114 4.713695921483798 5.767514212923531
