26
Energy = -233.80763691 eV
Mo 3.552427542803012 5.510414607800043 5.363022587499674
Mo 6.127665649891667 7.151882682940749 3.153133527076116
Mo 3.458834820087572 6.827569324489804 7.131175402056054
Mo 4.129311955415653 7.717335442622129 4.261458281839441
Mo 5.22495602123126 4.501643241827006 7.183523416215022
Mo 6.666006431360639 4.481111126436371 4.526174796597612
Mo 7.506354966265033 3.111284700401093 5.9377333466614415
Mo 9.440435380592065 4.395112209130128 5.212340494283747
Mo 10.225326339433495 5.0293853379904725 7.578122064819346
Mo 7.13686888558125 4.545203815658632 9.358091071420956
Mo 7.867068801818767 5.4913472674117605 6.939078860510179
Mo 8.475337808216688 6.57813970636571 4.508476115666515
Mo 5.893575886682789 7.011157586974846 8.40394806536805
Mo 4.244994827736959 5.296693841537247 9.050233457025241
Mo 5.851947410274297 6.711045204269576 5.689005456002138
Mo 5.063035893198504 9.191309425590592 6.5704109348315125
Mo 6.7974222208001205 9.065495915925831 4.339158249044207
Mo 4.770930682459433 9.282563964629267 8.837056000957057
Mo 7.7798312016783004 8.291057861868456 6.84667628236754
Mo 9.073009252433913 8.959017172112285 4.865095334055549
Mo 7.051416212113252 9.302995388172635 9.415441630987269
Mo 6.968671493190389 10.50752727907113 7.4242217280689005
Mo 9.569213441189468 8.960866318807101 8.664044446017975
Mo 6.671507537476587 5.967710691883428 10.630485740286254
Mo 8.874597018052143 6.9901887673127865 9.111640710081767
Mo 10.173326835038603 7.015995361317377 6.637361415959558
