24
Energy = -214.50473688 eV
Mo 5.132368560554559 11.554447616283936 6.3396692819043166
Mo 5.227902532445744 5.815703355332222 9.097351838337937
Mo 12.373139111492014 7.685287229874181 9.932648120716648
Mo 5.946276826143301 8.238129444843437 5.881339168441208
Mo 11.417745386373436 8.244522760840564 11.418803758438882
Mo 8.094507854221803 6.525049925126937 6.467321557029135
Mo 8.562252985898539 11.405610221826413 8.702576218922216
Mo 9.308379504790718 10.25985051888805 10.917610810248291
Mo 10.431775421536306 9.251285518029572 8.977155708014255
Mo 8.366090249728744 8.702381183961997 5.087993571450897
Mo 7.686913268213353 5.984466973872028 8.754953769241071
Mo 7.5544493635621155 10.684090520863789 6.283369066956193
Mo 10.304717631598095 6.430001687703095 8.442997702292113
Mo 8.584166738762752 7.944694104424762 10.338255863439892
Mo 5.822085807023796 5.791880681297804 6.487044773938275
Mo 10.18057755451353 5.777076309113363 10.276634136479965
Mo 10.098573997655661 10.478305282563923 6.675779512587615
Mo 4.27587755511359 7.374037843171646 7.511393531546291
Mo 5.884066909291379 7.792481374059936 9.893027734392337
Mo 8.032114597311256 8.680839002438429 7.8970801765675285
Mo 5.945652426995442 12.301950251346714 7.879914343309344
Mo 10.472680059146015 8.421109108177156 6.2292678442473886
Mo 7.076198455475728 10.312212876132895 10.000288522377081
Mo 5.5519375366890795 9.480765981081424 8.044782040404462
