28
Energy = -253.40580394 eV
Mo 7.215106683367284 9.22453021432278 9.325173067773768
Mo 5.480643014331736 6.74989348142643 9.340427950097467
Mo 9.288953524926502 8.866822958364365 9.161500640186404
Mo 6.687375475218847 4.44691452526058 9.143852646960429
Mo 10.843539097509703 6.455023091203825 8.603024891586106
Mo 8.818609191644267 4.635638786754071 9.348081057925882
Mo 8.071430410060927 9.809046672247653 6.759823504398656
Mo 5.989699698697141 8.204201379661018 7.076670499314619
Mo 9.89445153844804 8.605462096426749 6.622977441694245
Mo 5.875759774077646 5.563451988469621 6.863114163686846
Mo 10.424840657149199 5.740157193591238 6.932767362785335
Mo 8.129580812034444 4.223581061276363 6.696146680033387
Mo 6.710405791690647 9.322562253588382 4.514712970789584
Mo 8.782092196566422 8.91697126535214 4.092444307602266
Mo 5.3442280121395225 7.032622107952333 4.612101131194111
Mo 6.637225929399769 4.5027261827992175 4.450126895169968
Mo 8.886787976875144 4.754144629685616 4.450916326012551
Mo 7.6693232809626455 6.775487001969646 10.5279372817053
Mo 8.119698604674534 6.794017971935274 8.155607098306321
Mo 7.982744376710442 6.934262644677607 5.528513432328177
Mo 7.224246621156575 6.718529229206398 3.224566583931861
Mo 5.241585171783054 10.759585749771976 6.519001397729701
Mo 3.9726654705345763 9.496807014255753 5.813943636789985
Mo 4.514009256539302 8.97616072442807 8.671179079436955
Mo 3.4544988126385605 6.792568311908448 7.166516074616032
Mo 3.609825248687209 5.160330562049255 8.322593267405729
Mo 3.7892733075906184 4.554351898403404 5.279891192078554
Mo 4.792423457316794 3.2819106356972347 6.27848697044836
