29
Energy = -260.69611201 eV
Mo 5.994006563344738 4.360635497197173 4.254303670080268
Mo 7.43072803490566 4.4163143693731115 6.423526328713289
Mo 3.7817611799563444 3.8277233681537233 5.228375627669018
Mo 4.928314987290309 5.993370429528632 6.022565244248474
Mo 10.500831301316184 7.914365102038989 8.294892574503558
Mo 7.808277692408313 7.9800367045949105 3.7092423301690918
Mo 3.8208795302933396 4.617275314445205 7.890028486212373
Mo 8.56964926574532 4.1500466523788635 8.947701620342448
Mo 6.431472713081214 3.1959140498874103 8.373153566052418
Mo 2.0168077658679677 5.671143963153924 6.214113380179707
Mo 9.631385679901022 5.563838488260586 7.272023110878377
Mo 10.230974792445002 9.531504117244895 7.141640541798585
Mo 5.581060714524893 8.065415255401534 8.10584362608772
Mo 3.8853693528479902 9.74079453410345 6.881337735046556
Mo 8.184396829567715 6.70455619721957 9.010667539562158
Mo 7.9285643903002025 9.521049768151352 5.891028629368585
Mo 5.98304834589351 5.4908354820786265 8.59877722660913
Mo 7.827806844907778 9.123973137271891 8.334121417087106
Mo 4.332832746214747 2.2165767402175156 6.915173839193764
Mo 5.605843505350059 10.594095004054806 7.116369853792871
Mo 2.938347979688915 7.006371288063292 7.619306968331157
Mo 3.3222013162143385 7.549006819839851 5.069052756371677
Mo 5.635156187295552 8.612009989064491 5.155824798318297
Mo 7.415072648727202 7.078008971124247 6.510973362896282
Mo 9.789606214078717 7.556911878314192 5.555877954160229
Mo 5.235347001693732 6.693320088319189 3.374985068784488
Mo 6.076490875070826 2.230668808068622 5.702645759499462
Mo 8.734325250590928 5.51190548246042 4.512680125227029
Mo 7.351251870940727 6.0447067067602775 2.5892170939825565
