24
Energy = -215.29316731 eV
Mo 8.1029736664999 7.932633762875635 2.5800834311201313
Mo 9.659333251760389 7.225395312429715 3.3594978460175615
Mo 6.902019141159937 9.355508449920427 7.555590083863602
Mo 8.198036157562987 8.18801058877168 5.32825526817624
Mo 9.080858896036922 7.5236542949528875 7.965834273421507
Mo 3.8613215203636972 7.279266807697538 6.240370233118015
Mo 5.810576841602169 7.261216200364494 4.072243749527052
Mo 6.735564685123092 7.0317834732163265 9.661471141164474
Mo 9.337395099808917 6.130881805895094 6.672115367156675
Mo 5.83093536464467 9.381527992877244 5.8936724535904945
Mo 7.515199266080721 5.820367761802829 4.341174610782767
Mo 6.600679001125153 6.775302855578938 6.848397115950288
Mo 7.423016091991015 5.290821453721379 8.91328176773726
Mo 4.934442505487893 4.973407012511207 5.669847442231019
Mo 7.389915627460932 3.7764690331788517 6.38056050264014
Mo 5.430623605013572 4.61420058342941 3.1723745932351757
Mo 3.724309735358526 5.930868588706146 3.5093394549672663
Mo 4.646624454017806 8.007453312574093 8.256786577499316
Mo 2.3531488816226065 5.0564483167378205 6.6832217363355735
Mo 4.763593399031506 5.561179440941209 8.28618233293343
Mo 4.727190038279497 2.4845170233894867 4.75040230888211
Mo 3.0496557722223305 3.386207739372018 4.35995261160378
Mo 6.082503173525491 3.044234996741948 7.451004588606846
Mo 3.203291889372771 3.451883021950925 7.286310518335746
