23
Energy = -204.34048254 eV
Mo 8.171280796021403 7.667113766709282 11.146860074261578
Mo 10.77440336105937 8.55589787872399 8.856642195702037
Mo 5.964025759857709 7.266196317692883 9.463226971107284
Mo 6.7640762929635985 9.299412090795983 5.935550037958013
Mo 5.539861118799311 6.818292565742285 6.803998806866083
Mo 8.250790707695755 11.529879929844858 5.858443240495756
Mo 6.031534518542345 4.844694545320041 6.303020149719891
Mo 9.560712819635002 6.403991365357113 9.663697809498807
Mo 4.482052038373433 5.12108545513462 8.654785076852967
Mo 6.943273003689891 9.92647950895177 10.2327769493883
Mo 5.861159740215727 3.6607477632220977 8.657204179848884
Mo 11.588626446488268 9.019383462290884 6.480750245866032
Mo 8.898405273451443 10.273220813447 10.314056166923073
Mo 6.808008035258086 5.450510814808333 10.317992596471912
Mo 7.449271695743052 11.232389794720133 7.857885243365705
Mo 10.235235338732968 6.981637717812364 6.902006700314887
Mo 9.919972642029725 10.584941018192758 7.527037717373995
Mo 9.385127591914012 9.110251420411785 5.5682758703107975
Mo 7.829056715260126 5.724041040318181 7.990147888290498
Mo 8.231110031613698 8.469913309172922 8.183156100774028
Mo 5.583686419364895 9.437278075430765 7.67223016306322
Mo 8.042936075786747 6.769356650247667 5.774963548594442
Mo 10.318262176306542 8.189937664410065 11.33569427336717
