24
Energy = -214.78793598 eV
Mo 9.506002798700939 11.501806457600429 7.206784157020922
Mo 7.643881418142413 11.687088167876311 6.926558059226023
Mo 10.275119174860482 8.946597470586664 6.1539831438680945
Mo 8.24271402640207 9.615131169139055 5.4835101317871
Mo 10.188228036532303 9.163238809033468 8.83512519958813
Mo 9.340667727713923 6.943430603771648 5.364109493513814
Mo 8.110421719432058 9.957994246897941 9.178835535293532
Mo 5.63473036190324 9.71712387246083 4.993783733755664
Mo 10.404742059279968 6.665497382468986 7.695334283461986
Mo 10.619352710850995 7.057281601706788 10.124783258147255
Mo 7.982736075734851 7.797403244670145 7.6671172117695905
Mo 6.7301035388880495 7.355485234984859 5.398846956213676
Mo 5.865789496390993 9.48769372865615 7.149718887806363
Mo 9.248768904012424 4.3838794932194665 6.641349801677127
Mo 8.450692038186004 7.81927222840719 10.501800418145052
Mo 4.115381614285543 7.723182415764863 4.215514958989413
Mo 8.672703883699985 5.586655961445045 9.099229176522119
Mo 5.901330952353204 8.390391695111994 9.918615650986368
Mo 7.776291713399875 4.661455476323712 5.3467796945532005
Mo 3.4458448649905353 8.401883772685581 6.082357885948652
Mo 6.803090577358987 5.352140677190543 7.524378316492876
Mo 4.808979468542474 5.9286256530972326 5.701372773564897
Mo 4.912580048155782 7.108395111132167 7.736577827743149
Mo 6.108284932577356 6.428030130613913 10.13734249198944
