26
Energy = -233.87529091 eV
Mo 5.000567438926442 6.798434336803217 10.613735704215527
Mo 6.415138617806672 5.185367992512485 9.388475891107207
Mo 6.59499202233734 7.843215115651567 8.967482889704094
Mo 3.8832728319102143 5.528717939565904 9.11556771583618
Mo 4.23908529888935 8.115735828748257 8.408190830219013
Mo 8.915733834096653 6.314961622519163 8.32551600109033
Mo 10.214400398694982 5.1206268624247615 7.6371473816398
Mo 7.65872351922414 4.3805462886753395 7.20539312975949
Mo 5.044117285800107 3.394931522728368 7.615626124795875
Mo 7.388770566578061 8.040669138144107 6.591225107882834
Mo 5.4881708962314555 6.167133449878556 7.0904112131119135
Mo 5.895802340276186 10.194080580293857 7.635237130883711
Mo 2.5800394476215196 6.623734172203106 6.776531749818882
Mo 4.605300707064107 8.400483058602667 5.886848556372348
Mo 7.217690540917006 5.72639063702242 5.000755582428833
Mo 5.552169609182444 3.5997495496280396 5.721392722697932
Mo 9.420760032373204 4.330473484067571 5.001458125047718
Mo 4.3267151548145355 6.018051129436968 4.674036255698417
Mo 9.656774255261865 7.079171273492043 5.666210713748146
Mo 6.353638661995277 10.173542631041805 5.685186594966952
Mo 8.365136855247322 8.108825824613598 4.212549673804517
Mo 9.627722921863878 5.591540209240869 3.5203832018578396
Mo 2.8766842865515763 4.722048887274091 6.487369469667815
Mo 5.7992101073176805 7.648516983877128 3.7508701092430368
Mo 5.904421269959575 4.9064274474886735 2.8225503313092593
Mo 7.231136481713437 6.239689865551425 2.210392490246598
