22
Energy = -195.71200609 eV
Mo 7.411410387176204 10.27992116099724 7.502125712084367
Mo 9.219643307906486 8.367137480696346 4.629607707499749
Mo 9.890385815081423 8.673523764709017 6.428261080107704
Mo 7.642869654472498 10.511585645263063 5.669783421285908
Mo 5.9305288507128155 7.968538589793633 4.051216051444461
Mo 5.131565141916174 9.333552764049317 6.122905123167284
Mo 3.8887073179737706 7.797995739262414 4.579721924855937
Mo 5.459603763323132 5.151034317950831 3.8697015121200034
Mo 3.5003118991382416 7.956432865373466 7.53239448758448
Mo 5.029320778354343 6.206367008609734 6.395159681843376
Mo 5.401147030550575 8.0665755973491 8.464360606395168
Mo 7.157753248370311 5.286468295021943 4.586801433066258
Mo 7.249759584549989 7.764991100058299 6.310783723720542
Mo 8.36229738484162 7.579896328471147 8.879624675773092
Mo 9.467698199910446 6.019686271690093 6.21038694646498
Mo 7.255416831038472 5.337683129437372 7.634540034301558
Mo 8.485872267870333 3.5381485854665735 6.915573670454188
Mo 9.992580796336206 5.090565804619947 7.992461730609586
Mo 7.211092236468618 6.571988868859876 10.01138901052845
Mo 5.46029207025502 3.530181675304385 6.496327304045771
Mo 4.929991371571421 5.3906980808968425 8.616630277986207
Mo 5.999100699739562 2.9742065707538896 8.290218095619865
