26
Energy = -233.26237221 eV
Mo 8.51728478298469 8.973302644943525 11.626151347761425
Mo 9.807912316343012 5.694947453756462 8.80677832241057
Mo 4.807896621543684 7.050634317036615 7.719112882324544
Mo 4.00372212612349 8.486484374334376 9.910057982564535
Mo 6.644720864714163 8.12988923250808 9.858128192440537
Mo 5.7234566874608115 10.533142853467144 10.918210932271496
Mo 10.662353854558777 8.926650827782385 4.536773949456276
Mo 9.324455685769502 8.427925046359814 8.933753640313038
Mo 9.363959886446892 7.237941690109454 6.3383487878898155
Mo 8.299365216415914 5.09439607078655 5.442581731507283
Mo 7.474361728119466 7.519997877918835 12.340491645170106
Mo 11.735607452257547 7.871175906211521 7.477264279955813
Mo 7.936226917803353 10.460131012939067 9.157141860904046
Mo 11.215270597172312 7.024408984685862 4.290067043923419
Mo 7.916271294628707 8.838394050044922 4.734068229409424
Mo 7.150334704830893 8.555020129741909 7.21677461968697
Mo 7.726764548583483 11.149329769630588 6.9998360346528194
Mo 4.999657330641605 6.166705898598455 9.685424910029072
Mo 11.744744076114744 6.07259126969384 6.7831519730203285
Mo 9.628394494574112 9.898569249660351 6.977379902569665
Mo 7.135075102037941 6.0729785781158405 7.8396659473074815
Mo 5.121234572919534 9.750570369015097 8.345447415276762
Mo 8.698423366298481 6.0704570848094015 10.246085144103313
Mo 6.6150825845761 6.455764249880318 5.400750924040013
Mo 8.762548733087325 6.9364644760388 3.76243265436362
Mo 5.19330065884893 8.977894140029964 12.057612427910955
