21
Energy = -186.3157541 eV
Mo 6.188325532855567 8.564244012285801 8.467350729582197
Mo 6.6212081602547865 8.735312325787373 6.62609344206137
Mo 7.326270919784186 8.449026336689457 3.7846645184661725
Mo 3.8901714545758397 7.226531872858358 7.026947930686194
Mo 8.70170156401962 7.2543842354012025 8.201429834938295
Mo 4.798527240797603 6.331876162255597 9.64994289127867
Mo 4.669511622385864 7.6150726058873826 2.538972863489528
Mo 7.786195191569327 6.351902968312478 9.628331457519472
Mo 6.297668088170306 6.037746850926982 7.2834356369003705
Mo 8.435096738631952 6.927059509872171 5.622801069288579
Mo 7.013533764107731 3.84239125384056 8.777533372434348
Mo 4.16455158215484 4.834427241691878 8.773561435957605
Mo 3.3863381435765563 6.493402567954752 3.209723142393213
Mo 8.47596874361415 4.409411872645995 7.328884371876897
Mo 5.72371158146775 6.564000826315479 4.790365553052624
Mo 7.8996920766205685 6.697268960671568 3.044777304575302
Mo 3.6757500738659648 5.478525620198013 6.045277028198887
Mo 5.828841704848942 3.612536990268281 6.667945710108025
Mo 5.63345140422579 4.9182888510389 2.4739910722751373
Mo 7.360041559447556 4.656447645217608 4.988431574260951
Mo 5.025984025458177 3.8950392473419697 3.9437345445673735
