25
Energy = -224.97195496 eV
Mo 9.100801754368774 8.125119699389819 9.392590234188466
Mo 6.432309598731394 6.810482791192832 9.371680258974168
Mo 9.760783801629868 8.908348412691886 7.88900184814771
Mo 6.920803993776636 8.974304442009487 7.804726488165693
Mo 4.70491305810579 7.7889017022687135 9.066872669589257
Mo 4.283510831571407 5.337053695318774 8.114467039753764
Mo 6.575583435781399 4.530775794758681 7.763281364433173
Mo 8.18645465011941 6.527565384317045 7.218214240864711
Mo 4.517382229451838 2.7906855106188653 6.759764924170353
Mo 5.731922075963766 6.92689086269994 6.537176402071565
Mo 7.9673510637210025 8.696909553065518 5.703574915894139
Mo 3.0453616083277657 7.9376117159790995 6.901928558816465
Mo 8.469022548737527 3.962356206171565 6.048753752025582
Mo 4.364416627501161 9.300478454778847 6.456088620714122
Mo 7.781665446522736 6.4064614578383585 4.718062057785223
Mo 7.207528003162626 2.487860053669206 5.610034291477706
Mo 5.837999261826763 8.334376989905472 4.283926563102638
Mo 5.882305610446354 4.684773521975839 5.150643536757708
Mo 3.349245992245159 5.29019681079706 5.9550066916904285
Mo 7.836118777667484 3.992845466909334 3.1414172944748286
Mo 3.9466700795017045 2.6943151033901898 4.987246838793951
Mo 3.8585885241263105 7.196471621409192 4.34770994280842
Mo 6.0215978165047295 6.2169103024340835 2.730029670659536
Mo 6.195728785297646 3.170975234050163 2.8501640010623133
Mo 4.1724133364842775 5.0902885439366345 3.1436612307371763
