24
Energy = -213.64686482 eV
Mo 4.597470525031035 3.484992058147347 9.941628779351305
Mo 10.293782153902471 6.466781470875416 8.620436006109001
Mo 7.682110311263572 7.781535509694198 8.224715726391784
Mo 6.081564979990447 3.9415672223320892 8.081333043134181
Mo 8.699929730083284 10.602444217062075 8.186476422372936
Mo 7.062310569936775 7.1033367026407985 5.351310473491025
Mo 8.322525070511734 5.518467318821733 6.457383923212947
Mo 8.578365813150475 7.191025135681786 10.962086235946645
Mo 5.801715146459562 9.636138811642999 9.068767128274047
Mo 7.8476958540040735 5.217976326228418 9.054409900159422
Mo 9.823140222356535 7.679849157800799 6.2304093802719684
Mo 5.6838636146382315 8.997193680704717 6.721658884098093
Mo 9.657778844997969 6.517069036831702 4.443992970062037
Mo 4.125845303129696 8.388522996249883 8.731537761275968
Mo 4.081125355778183 5.553500024958731 9.362468096289914
Mo 5.664777381888329 6.305527303986982 7.54168416518466
Mo 5.951627719587651 7.08193861722569 10.11524472738554
Mo 6.312717669956445 4.679728261734751 10.876868285312423
Mo 10.156146849050453 10.602996058080029 7.031861268994806
Mo 8.15824325200487 9.019327522310352 10.749789306884097
Mo 8.358487156370376 8.730526961323553 3.381394839932864
Mo 10.352112072997327 8.397675932425987 8.944339710253722
Mo 9.920539301199986 9.450020050312851 4.156196940875586
Mo 7.7815513201537705 9.504968338986393 5.930038238685866
