29
Energy = -261.88483648 eV
Mo 7.345887129568146 8.055394802738807 3.2150687109688008
Mo 9.333633467811193 7.507793672863372 4.663643506541278
Mo 7.0923167343918445 9.089222651030402 5.248674534466843
Mo 4.6314710174215 9.186953387148508 3.933606896977361
Mo 9.062242825940404 8.488556924244163 6.603032940954581
Mo 4.587478723919096 6.5078705488719955 2.3076226930387675
Mo 6.336340085396793 5.26285806808521 2.1898368820435956
Mo 7.787614397498034 5.402474735004808 4.374942906784709
Mo 8.57855345316992 6.648513742917851 9.072993558739482
Mo 5.583087359082419 6.75787776136878 4.53281355556836
Mo 9.498865464204092 5.169533513437107 6.852801684409392
Mo 7.432218222004915 6.64588736720518 6.635748293900862
Mo 6.2242875526358805 8.653812675231181 8.26743837263796
Mo 4.421394957005794 8.983699998860299 5.883051755217048
Mo 4.483904569549965 8.2417418607295 8.936081517045475
Mo 8.55726231076936 3.1153346596429845 5.4744026321075365
Mo 5.99286552104782 4.313078570196382 5.901651641286733
Mo 2.712758988173304 6.871517081963455 5.1009800440246
Mo 5.961667866118592 3.1603774686287243 3.622376390275489
Mo 4.72660491870379 6.412327908451164 7.126313229978005
Mo 4.109950641631757 4.4563901771951056 3.7086548349627395
Mo 2.1944421713502797 7.029176346822129 6.917030032237191
Mo 6.636765808707328 6.092276336739897 9.293981978885746
Mo 7.88461601853168 4.137116291137432 8.01068265541129
Mo 3.6181576486494844 5.158275781800909 9.119941807105933
Mo 7.075052126361332 2.1657059694664813 6.612370316728266
Mo 4.118262325490856 2.421373084489072 5.684496700299976
Mo 3.180147081829698 4.120723365197705 6.17509728460485
Mo 4.807901492017906 3.830204984447887 8.499036564686515
