23
Energy = -205.45871468 eV
Mo 6.988417279996022 5.747334513280167 8.555389981161387
Mo 8.759910824287482 4.179686092119909 6.418190011338665
Mo 8.623394941889288 7.7927701479318 8.500517652788849
Mo 3.7554820637938806 7.493532535747806 8.171817408468684
Mo 7.884175693917649 9.552077333888901 5.77212037967489
Mo 4.270171152768413 6.528820620074164 5.072431817186344
Mo 8.695859135478498 4.906816549892699 4.424822198940502
Mo 4.954719509211623 5.621818460956971 9.819938945869566
Mo 3.927270888905569 3.960447820954928 5.176825228091332
Mo 5.797848726268428 9.101754253684113 4.712582839174056
Mo 5.536665723056765 8.060310634703818 9.362619343357817
Mo 5.092819489383648 9.868366014662879 7.414435342900927
Mo 3.6192229386419084 9.041083858691465 6.1375103807909355
Mo 9.675489749822914 6.213691172309833 8.36708763517232
Mo 8.46351146130662 8.471641666833682 4.043013880812088
Mo 6.384581885348515 5.032753843222069 6.160585008318176
Mo 6.35853942740296 6.819058749794943 3.98871333021409
Mo 8.492225236270762 6.879491990697698 5.962244633452673
Mo 4.376658160547713 4.981480334778907 7.772093707945522
Mo 5.428141629849555 4.195431946668083 3.84985876579135
Mo 7.532955882790067 2.468941044497233 4.493295063163429
Mo 6.347456772430807 2.438470799567472 6.0341132857183855
Mo 6.002597103602005 7.580012604218645 6.757887313876255
