25
Energy = -224.32600408 eV
Mo 6.374638477313151 5.3279040759768375 3.5600628725194614
Mo 7.339540858258823 3.3441779749862492 4.241832663390345
Mo 4.307327757273656 6.785175743472402 5.3513131373550165
Mo 6.8314610071169355 9.545138928465454 3.797251217408957
Mo 8.404365205493717 7.229421477053246 2.9819908706608826
Mo 9.080721297278172 5.755726057276382 3.9677667509483836
Mo 2.796811281978781 5.108409388632654 6.590505121063412
Mo 7.760275167220329 4.731665345043514 6.133738224639157
Mo 6.770669753190237 3.007249408243935 7.944879879077322
Mo 4.249538703846123 2.935565596924389 7.714203519280293
Mo 7.017730903694599 7.085921402793397 5.451376929122933
Mo 3.786181134130427 5.174660824935907 3.7393418742781055
Mo 5.952901263615711 4.0104617072869 9.595848483703419
Mo 5.478966129829662 5.466533261695163 7.289405052552987
Mo 5.580721203220867 8.286267430905951 3.2642397210604464
Mo 7.747002516872263 5.62042189593946 8.704459594602644
Mo 9.351955996369213 8.706157917698135 5.2521374254960005
Mo 3.232283359216092 4.789622428759939 8.691741631089126
Mo 8.971636014708661 6.987435612389245 7.190513458744444
Mo 4.947368057022817 3.8953613261137203 5.3535029441309545
Mo 4.827803126186249 6.813362469080486 9.569608995857289
Mo 5.455452563853632 8.992427730433839 6.137892533136811
Mo 8.098293990650923 9.617335193611213 6.444572484001367
Mo 3.8932219904501806 7.734300489309066 7.978867003634395
Mo 6.683710367315055 7.837961698260512 8.061973946427573
