21
Energy = -187.10743031 eV
Mo 6.639074555700865 4.734090520317415 2.656908651961972
Mo 5.02837442874797 6.836019555567037 2.3846973860504193
Mo 7.568984562415532 6.513446239115111 2.7403250226951394
Mo 3.828862111920821 4.5136152788391986 3.5106397803842593
Mo 6.0095244081915205 8.924263029028335 3.747784873281822
Mo 2.8981982443771446 5.985516199611198 4.18696232120655
Mo 8.007183047160765 5.244661633643551 5.204747393919203
Mo 6.384470875193895 3.8201413117558762 5.524925572530347
Mo 4.156388245320055 8.646607347598422 4.372292016481726
Mo 5.601542562081794 6.310119253580897 4.70301150614812
Mo 4.264224358050296 7.216685304473754 6.900937050554771
Mo 6.557752046565573 5.828277928681383 7.380876369238267
Mo 6.351834381047799 8.200502375223245 6.328321477853276
Mo 4.276003990498823 4.841152751771836 6.466032991418929
Mo 8.43949299170961 3.805381770468878 7.730056069001643
Mo 9.3246015860481 5.6099442955305605 7.652908455713056
Mo 7.768845159543003 8.040463281816253 8.622736502627191
Mo 4.726227490391556 5.085712442725897 9.326023644541609
Mo 5.90999960704208 7.77469849438618 9.235794246036171
Mo 5.695215960532516 3.57568429612635 8.790990167044194
Mo 7.602643912893594 5.532461215172671 9.572473026745346
