26
Energy = -232.95308783 eV
Mo 8.324887771838219 3.9036499843639194 9.970587405240801
Mo 8.159950101757513 6.532704762011245 9.66428100020695
Mo 6.635131872248942 7.999035714795577 8.304936591836576
Mo 8.87232792552548 9.374710215497117 9.207990296432566
Mo 6.243472873783468 5.464187881259283 8.910522117094583
Mo 8.407243060813629 4.859847354967636 7.39125287935778
Mo 6.971894168465132 3.0252891939777475 8.879011630341667
Mo 4.075600321262795 6.927694539928075 7.8280305169479805
Mo 8.810839500163649 7.390423281547863 7.127861261546895
Mo 4.93987938615534 8.61069095280288 6.6200163651481265
Mo 4.498340651372546 4.49787017424376 7.0672978632878465
Mo 8.241363901729885 10.029530900640616 7.59098358223621
Mo 6.696140709495573 3.280824258048113 6.034059662566763
Mo 1.9006964234923267 4.969245659862423 5.8829362139148795
Mo 9.00462064960987 6.078059868906693 4.909311340352842
Mo 6.41287852511306 6.110499928385347 6.179326793115609
Mo 3.7725553491677557 6.790569821709892 5.208538006779312
Mo 8.784578445708135 3.3924273227726616 5.388675335630393
Mo 7.153099489215412 4.793967981168169 3.899991277071393
Mo 4.552544412260097 9.082273118732122 3.694592454706542
Mo 4.4942965084492705 4.4770921768265035 4.711943027470639
Mo 7.301733217419666 8.330314736388948 5.206852146851321
Mo 1.8856167649745224 5.230601873727181 4.046013025486074
Mo 8.013524851238738 7.351851123829586 3.1209472338246265
Mo 5.764945564530333 6.765168037212439 3.466625588256912
Mo 3.2354520508495073 8.060626297756087 2.8890559114525987
