21
Energy = -186.0358812 eV
Mo 5.646406819682242 6.597423525074894 3.3343794655347154
Mo 3.469963580041564 6.527958125248073 7.964875548127582
Mo 4.9081965628379445 3.9769516976879316 7.48505671653193
Mo 5.932005647584773 4.142236391327423 4.65633219816551
Mo 6.411384750910889 2.8207104904704394 7.2868859991419175
Mo 7.856942616119697 3.864969597939899 4.891319730079716
Mo 9.461902153157986 5.245305031420536 8.49545164231488
Mo 7.140941415203779 4.737274870029012 9.228231197098607
Mo 7.150416991146709 5.381470129083013 6.913019585296044
Mo 7.433448175043507 6.6442199742909445 4.255085165913718
Mo 5.265004357141261 6.787273372622873 8.748278154393512
Mo 5.072300803008432 6.570591676199731 5.881997994684053
Mo 4.435027041726858 9.040335092919966 7.08199276991308
Mo 5.972596909614995 9.195934518779504 4.614784913812047
Mo 7.098186721500661 8.052757893771394 6.816688956983321
Mo 8.83658929182319 8.912038617093552 5.317443700049758
Mo 5.757162915624381 9.574785604988318 8.446163781829036
Mo 6.711056688874505 10.537039112098746 5.808246678075395
Mo 9.780318397699027 8.461804954632118 7.323325375413135
Mo 8.201545022580607 7.052791057634301 9.001324070922541
Mo 9.486068686708002 6.397992833882987 6.345534403047258
