21
Energy = -185.92099416 eV
Mo 4.55019900068 6.015865124054903 2.93845606750711
Mo 7.045622683428031 6.9274156506019295 2.1829451679962353
Mo 6.727003976483754 4.8897411472176415 2.587280983624214
Mo 3.870150657185825 3.6250765777006517 3.695439576515343
Mo 5.499856431886295 7.688786401630717 4.234164898272715
Mo 2.655588955722493 7.523257565494064 4.240204216584816
Mo 6.796961146664539 2.6571840968755733 4.1615587908115055
Mo 7.774794648521431 6.655855010080542 4.48746441402755
Mo 8.293014065131207 3.96730387997221 4.649452204147895
Mo 2.280525289010115 4.603885092774588 3.6875035090145767
Mo 1.8794689055904001 6.7167046150251855 5.722478680574422
Mo 4.9827948090999925 2.253541667939719 6.395589592915044
Mo 3.1801972244341643 4.28627893291915 6.3760447755084755
Mo 5.787966643424444 5.063855098048463 5.3973429688364325
Mo 8.082928584626588 5.938624703582604 6.923962231550023
Mo 4.081140626617223 8.339960854935493 6.563229316872528
Mo 5.848058606576301 7.644461372031286 6.795578826070908
Mo 7.205820996596267 3.3482218905177885 6.821009976413851
Mo 3.9626435246947542 5.6772689973222255 7.522749376517647
Mo 4.816104447682964 2.899351576145086 8.24343065772203
Mo 6.529957041200114 5.128158010387377 8.224912033774164
