23
Energy = -203.28932598 eV
Mo 10.982414155209106 5.8153650662586776 6.945812059313329
Mo 2.851640420612928 9.237826365486798 6.6992581209229245
Mo 8.480388855461438 4.630076703922432 6.051410890010754
Mo 7.308124024909103 6.897738842776709 6.889955046953345
Mo 2.8284528245482705 7.665778671857013 8.644199868395901
Mo 5.43065414956076 10.089915084020282 6.736506994475396
Mo 9.361332818739564 4.951018270090893 8.68826632335333
Mo 11.275109668905841 9.411659024850707 8.507826892724792
Mo 5.177278427925488 7.87047874283026 5.685464612199076
Mo 7.4663783468572005 9.07564594858013 5.510137793232823
Mo 7.417831662100185 3.8560784866949085 7.681094502983529
Mo 5.471991372710947 5.4712876126685845 8.426700230446098
Mo 5.717968891893677 5.275378129169927 5.971625006746975
Mo 11.935194109416942 6.803042675455696 8.553969028867364
Mo 9.332936240633826 7.547484523792737 8.457460032373094
Mo 9.573972193089787 7.5636075301306525 5.675463925312083
Mo 7.520975075720595 9.383502359188952 8.10070168411406
Mo 3.497664465675228 6.505211268967151 7.022075759131321
Mo 5.461831571209113 8.023200934735437 8.44500060208524
Mo 9.682516474990813 9.685694487578724 6.7508985183544805
Mo 7.511865358969984 6.307216404380594 9.604946677985186
Mo 12.088449437234098 8.421156776502183 6.723791326910027
Mo 3.7586373455048907 10.11508169339308 8.463885580358388
