27
Energy = -241.04698371 eV
Mo 8.411855811688591 7.421341751075705 6.387208158356802
Mo 8.850287595991933 5.806437606497109 4.259928342298736
Mo 9.395937070016494 5.75118550885232 10.639213816474665
Mo 9.103908270091907 2.664695337146041 8.160840860385033
Mo 8.50150014888362 4.015231725330616 10.695333127176456
Mo 6.485762716524824 9.900293426485268 4.3545434252569635
Mo 8.996274029538556 9.463270833992537 7.458603366788676
Mo 3.5728527520547044 9.45218967519476 7.7645889653462055
Mo 5.971290199051489 6.263157407708141 7.527682061142907
Mo 4.878598954030997 11.897612629026069 8.724803185943715
Mo 6.207264110080179 8.869408961926185 6.933607652585898
Mo 7.158578733573551 10.26300230119634 9.168530465924022
Mo 8.495302775613979 5.330519379403477 8.137201137760224
Mo 4.767682081077013 10.619965870856886 10.11397126512575
Mo 10.255847199452374 4.252103373052382 6.116785894342837
Mo 5.489139371138412 8.046121700886784 9.220536396635325
Mo 4.205425727223787 10.410327781403177 6.288835563944957
Mo 10.59413607664428 3.57754536158284 8.871097211501793
Mo 10.694794592160646 5.994105596901062 6.835403479931911
Mo 7.526027746575538 5.019179963056296 5.310247579341149
Mo 8.031614540173834 7.710573483906608 9.09152367981188
Mo 6.582841899339681 5.88290495973972 10.294291669560977
Mo 6.54899303206156 8.012104391622533 4.4390595744193355
Mo 6.33127485058311 4.230888264959414 8.749863603831853
Mo 9.32100718797928 9.128948096005876 4.507941553994584
Mo 6.895451232550513 11.19924760932632 6.988999791726874
Mo 9.097075594249192 10.843825225698602 5.215887442197682
