29
Energy = -261.19907819 eV
Mo 7.403506191231667 2.035746562702169 7.744129101389322
Mo 10.11111393403023 5.823044339748841 9.873393265736896
Mo 6.523168875766958 10.865478408314912 6.195224387066424
Mo 4.939230260759821 10.032449143454478 7.9005455966274685
Mo 7.921174793163644 5.286828811444259 9.01215290864359
Mo 6.752892178311211 5.9812655915924715 6.609532682259882
Mo 6.758216783715113 2.9179889490499082 9.400030597974288
Mo 5.774623113037182 3.7949409747751286 6.890161985478682
Mo 4.0438614963995985 6.452100647674609 6.769508230114903
Mo 6.1417382420335365 7.396900242166463 8.559903938335806
Mo 5.049768093045532 5.033407148110023 8.684951982035733
Mo 9.007932760011496 7.101569407525546 7.515643875849203
Mo 9.632924811639217 3.3914155708005085 8.216667144278572
Mo 8.702463857543032 7.96027554029049 9.980654197896644
Mo 11.27445116712857 7.55090886251376 6.415065580910689
Mo 11.271492670607923 7.878969128882591 9.219668073536793
Mo 9.127090633379943 10.547034706938568 10.086747899405418
Mo 7.704086591368566 9.551719477279214 7.867824558695519
Mo 3.5625392082902367 7.63326481897316 8.339963857958095
Mo 8.987642963337816 4.28096514814641 6.551756451244631
Mo 4.007364728073472 9.2513139628208 6.158078002279589
Mo 7.0951538696920355 9.830599395730276 10.356254572546263
Mo 7.109175796145008 12.128291957447253 8.667911989823917
Mo 8.6880481331771 12.0666550950615 7.563982816901316
Mo 6.3768146026037975 8.43031246551286 5.844123984076181
Mo 10.325762811461356 9.568083388786293 7.979763209980652
Mo 8.944355008471215 9.103414409824389 5.364278332920837
Mo 8.848782767465009 7.194825948986738 4.862843831846362
Mo 11.21558167313716 5.687888999060149 7.509073946283403
