26
Energy = -232.40794195 eV
Mo 10.613710274009273 9.518460019917846 6.716313776180132
Mo 5.640542311856911 8.275231811413569 4.580310993533619
Mo 8.537705005882783 5.060773511948747 6.299884711984508
Mo 6.116456252503272 5.624193313377579 7.9217424715362705
Mo 9.702847049952728 9.483030850309568 9.338092192991326
Mo 7.399378012863065 7.973522329985715 9.32673594137193
Mo 4.488261509994752 7.3698347696709625 6.7454676206950435
Mo 9.934055156492644 7.2346777801241915 10.674853976076694
Mo 7.502548838136384 6.708855379915705 4.07130364231838
Mo 9.288644209266932 11.302412895076445 5.053723257542102
Mo 6.383673616125081 5.652038411562735 10.79298715220052
Mo 9.850878049071813 7.4065716872456715 7.863491450336748
Mo 8.612172954952914 8.720305702118734 11.546290140062037
Mo 9.439768672342103 7.783558380648658 5.229719611830862
Mo 8.229159564799716 6.388877201658642 12.780136329107926
Mo 8.40657463983295 5.674971402069025 8.90272707548412
Mo 6.735426767748368 10.137534378669265 5.311936742976252
Mo 6.587217598604344 4.927894496718092 5.465409565730916
Mo 10.517229896256186 10.170625626520257 4.008875789505371
Mo 7.193249939193723 7.471437902257557 6.57713468458888
Mo 6.033375315434312 7.559561410981476 11.60169637606256
Mo 8.895390240275429 4.984454635397171 11.54817902519897
Mo 5.4177477473305125 9.245028800452948 7.526938323845301
Mo 8.380473923346317 9.837158344534927 7.304216335562209
Mo 4.895213610451759 7.4397963578870705 9.295743605896964
Mo 8.199827121730186 9.188600394896019 3.607719944083497
