24
Energy = -214.33837037 eV
Mo 8.876902480762272 4.666209311850927 9.360188582849263
Mo 9.040891366850186 6.510760018505979 7.359064206661933
Mo 8.95218212626127 7.3478069760273 4.795539722556274
Mo 7.136568917924939 6.906247027028205 9.34535201806061
Mo 9.332004739080254 3.7523754206222972 7.760297831884334
Mo 8.30171464449393 4.7571205183513685 5.2793273865881325
Mo 9.128614850869447 8.494284048863868 8.667935074648506
Mo 6.644316641188623 4.610476798074434 7.822096551753407
Mo 6.556608951729968 6.794784340828163 6.448133785424753
Mo 6.819011810069881 6.050974265504093 3.7845986623541146
Mo 8.18841327932657 9.098707831836721 6.773387414044913
Mo 7.242082446247967 2.80885512540519 5.944465199229317
Mo 7.14216379713364 8.530735844628623 4.3062474720871355
Mo 4.944261399101984 6.063892813242015 8.790752106024746
Mo 6.251265902088673 8.727407267364143 8.235176242379332
Mo 5.523247264875858 4.2553394875386985 5.305267230138959
Mo 4.426289399957031 3.574337491185646 7.350528879115692
Mo 5.432150261677945 8.009668363168933 2.206939455153522
Mo 5.184583536532787 9.196387459726866 5.995843886447611
Mo 3.7787577906363543 7.494326858956157 6.867887486650065
Mo 4.49820750648647 6.847621653334868 4.699993443406201
Mo 2.7964077734910147 5.222210833302342 7.755200957538143
Mo 4.537683873301382 9.241030072296962 3.249535378378788
Mo 3.0087917661366936 5.0546045471762495 5.497852863408087
