22
Energy = -194.74064042 eV
Mo 9.821376909067636 6.795159892450056 9.440312762978454
Mo 3.2805227945717212 6.594131019927037 8.063682195323238
Mo 3.5841078837263507 8.536693248939626 7.781568270294161
Mo 4.859962751338419 5.682591428076853 10.141385427364948
Mo 7.114755139377153 8.550412681737273 5.4620633289282585
Mo 4.833115116927501 7.719053448089208 10.209400368043337
Mo 9.121146496804073 7.196045007386303 4.722587102114793
Mo 5.667740665842723 5.071104442089907 4.262776160195996
Mo 4.822681081524953 4.935734977967647 6.27702713355925
Mo 8.524285833754137 9.047620053301761 9.576708119235661
Mo 8.682698902299387 7.76684081482707 7.396146969572804
Mo 6.228393936898187 6.296816927429149 8.111241292397322
Mo 5.0185125311393755 7.337839415417196 5.90241692387227
Mo 10.143163030312953 5.380277011462384 6.690300239024759
Mo 7.443239078143696 7.206516656045413 10.37870090740336
Mo 7.476786231609711 8.31782483753198 2.8518754595590594
Mo 6.327326677372992 8.715629835475411 8.241036220499021
Mo 8.436796553786657 5.223529285768513 8.698503159970526
Mo 5.4567716328959435 7.448120496060318 3.4028044232384898
Mo 7.5505294453799365 5.751053738639615 5.753179526262218
Mo 7.804754029269945 6.120769798358968 2.9090841218378185
Mo 11.007491513581524 7.248413288535104 6.767160427544897
