27
Energy = -242.34226222 eV
Mo 11.361948079707377 6.656823288616463 8.293310887093686
Mo 8.328170075927279 8.94799125554345 8.916448604613887
Mo 9.129397810355561 7.056882269256745 7.233399189935054
Mo 10.378450813070614 4.357869366006639 10.006574310426547
Mo 6.967522300310711 6.401834985643318 8.78901986238758
Mo 10.981653335369037 8.501164863841787 5.953117301781344
Mo 5.716658772837432 5.135914175357348 7.1716356785269895
Mo 8.98221967861817 7.560284786206038 4.398473906153227
Mo 7.615956224385658 5.323143750638398 6.193746263894263
Mo 4.361556107625626 9.640802658250866 8.184740806900399
Mo 6.709009094111342 10.586876746005075 7.800896475810515
Mo 9.044514837210876 5.8073327716882845 12.252374708919751
Mo 6.6685450057403175 10.55407359752362 5.56345606541152
Mo 7.310640025595609 7.822177090692103 11.25779323763416
Mo 4.218578018972106 9.257927643824772 5.748772867998474
Mo 9.682774402725064 7.062528795818691 9.938709878679282
Mo 7.725154563954772 5.050252056278001 11.135987104930246
Mo 4.346091839206018 7.413576801590112 8.023422921506903
Mo 8.911584881327263 9.62663620536698 6.422011330646261
Mo 6.350518810866001 8.612920733593526 3.846461960987521
Mo 8.941014237904195 9.457628622035667 3.8460813605712367
Mo 11.02853955235719 8.951327703082747 8.261055778127211
Mo 6.429153234702672 8.00715144925024 6.705433427163719
Mo 9.259339864878655 4.4905065068432215 8.56797341723708
Mo 5.98276795327675 8.540318390995653 10.060412082058651
Mo 6.313792633601945 6.587107478604717 4.264356862665315
Mo 4.159780513728382 7.160228720238522 5.3973375388722244
