27
Energy = -241.97339308 eV
Mo 9.846159566650922 6.591907916955848 8.0161230088602
Mo 9.432971635715974 4.158849741269715 9.275505282244714
Mo 9.160457095201723 9.215540474648574 7.280367123202435
Mo 7.4975109319688 3.3755936938423106 7.575281613621954
Mo 7.260417525265669 7.397782125622384 7.554345079814521
Mo 9.210304661301874 5.33890024859662 6.550728060672705
Mo 9.402019916716092 8.161126489047703 5.659043082187021
Mo 7.770104297421939 5.136256891199581 9.403225302046222
Mo 7.1999079787852045 10.067252443601733 5.373039138788438
Mo 7.660652894692087 6.344445653333326 4.6233292559341725
Mo 7.375312545987497 3.4811910605850773 4.913534969209684
Mo 5.399588344929051 6.486032277405704 8.977332498343532
Mo 5.076640837157024 3.407617498682425 8.47636839210689
Mo 4.808602262234669 3.1055892743998235 6.3889026737376025
Mo 6.220474847028265 5.306893886599994 6.6765677561504395
Mo 3.620193363256909 5.41364833777747 7.767670435290789
Mo 3.412513642036609 8.015701660173836 8.414522046072692
Mo 5.411118176013008 9.001206905379803 7.517058089498581
Mo 7.31403178880431 9.165176759112624 3.770281691100326
Mo 5.91714081407582 4.504256769955259 3.947419686519366
Mo 5.477260409193086 7.042828951391103 2.5839118689985905
Mo 5.631648402496025 7.741964686334852 5.312647834475387
Mo 3.304984553674972 3.2773188724271085 3.8084571019827895
Mo 3.783883334865022 5.5108372480470855 5.400407462059847
Mo 3.1810143817485907 7.843162885878781 6.21096273365682
Mo 3.2387115920480043 4.713123186604553 2.703289519662628
Mo 3.824634465666784 7.55583342442832 3.265281868726088
