27
Energy = -242.71852966 eV
Mo 9.681400663830848 3.9825624401929067 5.2153767152567125
Mo 9.740525359479847 5.289610874338304 3.8346346049746707
Mo 7.949323762279292 7.395349434006161 2.961076469273675
Mo 6.898126560082909 8.242815350774613 4.887697549169682
Mo 9.013674890724115 6.753387343404677 5.945831087676551
Mo 5.8756389685338455 9.367286802721594 2.4581240432821643
Mo 8.368423124516433 8.736625228644929 7.2014416633858955
Mo 8.114125301944231 4.864977233071157 7.358711962679005
Mo 7.1977274940675855 5.4132427160791705 4.616397824507346
Mo 7.177369400212931 2.7985463325955835 5.534735567148779
Mo 8.416375589206263 2.03887625123298 7.134570538200754
Mo 5.8629109993193405 6.583500266095162 2.744914005286636
Mo 8.552700090459277 7.179680991457414 8.758458344859024
Mo 6.789973460490549 2.8602285349011907 8.305735493055062
Mo 6.384841634630509 6.797512757339385 7.082451275902494
Mo 4.484203776530384 4.049505754748595 4.406066132085956
Mo 6.2368209536375305 7.858420765132948 9.342892864207608
Mo 4.661434971325689 6.715189333988194 5.002144940912315
Mo 4.608054120083835 9.240266254885093 3.77301510652036
Mo 4.616762311755305 8.808090545679084 6.985815047496982
Mo 5.944466987341458 5.5194241353491975 9.19949884637601
Mo 5.356256001372421 4.231489603407112 6.653672560362111
Mo 2.923181303630464 4.973490018950783 5.43152914958493
Mo 3.8647723749300473 6.082869905386413 7.746219660226831
Mo 2.8447237930651212 8.107770271732353 6.2672737462562464
Mo 3.8675886380859485 6.891923923542326 10.437315163481912
Mo 3.1342523270566316 8.172641894722654 9.325114584974076
