29
Energy = -262.62507588 eV
Mo 7.05024403492934 2.2871487347706783 5.55358086795792
Mo 6.174410314709895 2.8602814813782955 8.131211386917382
Mo 8.084756280026836 3.085172151280415 8.212356437466733
Mo 4.401169645363397 3.4451457384708686 5.923448077292493
Mo 9.45809815922793 3.6606447823677835 5.663249652347894
Mo 5.785148413036896 3.556675136511794 3.981868248101354
Mo 6.753497507359834 5.334434414696861 9.647406461654517
Mo 4.682598232880358 5.21991178517564 7.8285804921985
Mo 6.911717754061182 4.672482785764561 6.169588585805882
Mo 8.617697339564511 4.056054004110504 3.953739810229415
Mo 2.9324169882913993 4.753203851499003 4.4468682529981844
Mo 8.890401800269117 5.781857244222491 7.797389539326283
Mo 2.5089383110184715 5.5386951616510745 6.461052136375015
Mo 8.858689830621506 6.505584080770047 5.572909664578531
Mo 6.568943587312008 6.923540144403722 7.282207249041135
Mo 6.828160695564985 6.20831674794982 3.7340052635956384
Mo 4.793693952043027 5.491796354095827 2.607678512494124
Mo 4.71938238473788 6.540015837686706 5.243603877852211
Mo 8.297913146729645 8.349669096372741 3.872037761194119
Mo 2.2211936570756334 7.876403749943849 5.271448069710697
Mo 3.9048738266166536 7.833061883929059 7.674397343913066
Mo 6.737917878585056 8.671297797563197 5.292352698093678
Mo 8.727662559633231 8.713327002665133 7.400216047946039
Mo 5.700032596257648 6.920570804506523 9.882802030300162
Mo 8.382318285951342 8.017530784657163 9.169057807592123
Mo 3.4303829611449257 7.511401927833789 2.9487101316464246
Mo 5.346901214015578 8.314883485608524 3.0559683653202776
Mo 5.770442409273303 9.092458704984708 8.025168611488818
Mo 3.8697110023352037 9.11942393802379 5.617649201600425
