20
Energy = -178.11921675 eV
Mo 6.73586314949142 6.8909081993168755 2.5713709067035913
Mo 5.187470161187943 5.045507751156494 3.569863389462863
Mo 4.22966031560378 6.87212796834779 3.747985305762199
Mo 6.020218692702046 8.636504753571806 3.71635240210799
Mo 8.946734223522858 6.292098184905074 3.9000439991449363
Mo 8.589727039129782 8.259690960081485 4.1684562360444914
Mo 6.561315211063396 3.8588050729465375 6.200102968496643
Mo 6.666665515596009 6.497111462218922 5.164954646288871
Mo 4.218474581164456 5.755422705153181 6.27916118762669
Mo 4.565666388906012 7.769532329335298 6.4640178202024385
Mo 8.275640279498246 4.530893191529071 6.456754697685728
Mo 7.3077709217528986 8.615426780442837 6.835093069653665
Mo 8.896612496442279 7.3805374957974585 6.777167218114506
Mo 6.466159298659475 6.224306025695115 7.808705048475461
Mo 3.892159385425041 6.758153176920072 9.052350256593419
Mo 5.203872061512969 4.10689693658524 8.909142878600019
Mo 5.162315787817839 8.004587980739473 9.440475817554633
Mo 8.80891143445919 5.8594094252260005 9.216082364602766
Mo 8.14965112198727 7.572536244957972 9.533710847789578
Mo 6.119341178984898 5.073772599981118 10.192438183997185
