27
Energy = -242.64605407 eV
Mo 8.38676233025292 10.212618956789882 6.051918926049082
Mo 9.741160903180933 8.33858251721913 4.782399691706606
Mo 9.865847714507563 9.623626677942513 7.345752109403882
Mo 7.202485768190993 8.630538949684121 3.8288265746265178
Mo 7.612185726870971 10.579122949564244 8.602558887999116
Mo 10.785585004735633 7.147339447285351 6.442382502215039
Mo 5.840037170683787 9.146500638088524 6.9103838844406935
Mo 9.010725302906513 9.588806879281794 9.891303575291218
Mo 8.217510302060793 7.453992425610868 2.640238403991947
Mo 7.9079320665102975 7.502045484985502 6.465946576155036
Mo 9.528968736566071 7.105474430362109 8.606150710230981
Mo 9.08441619184434 5.795127027949019 4.698495988609924
Mo 7.0593325558640085 7.739557918952901 9.19232611574517
Mo 6.9587060390359685 4.9991699732729264 2.4709830104587875
Mo 5.665960695890724 6.346802901182884 2.8068905630120105
Mo 8.788318012809755 5.144408265458952 7.235327433733913
Mo 4.9554824573092455 9.789424967983003 9.55929054334775
Mo 5.49868302432157 7.160448886043363 5.478964813332979
Mo 6.922148765811379 5.102685327594245 5.033030135824821
Mo 4.665249999904207 7.472665302114087 8.026972278341633
Mo 7.996776642121473 5.0450971190924525 9.782428549370314
Mo 8.83369787599136 7.292251026550987 11.494228865888505
Mo 6.857117730301998 9.455416925886244 11.110605253889698
Mo 6.357657325414961 5.414467659852069 7.570606974235989
Mo 4.524618576005426 8.010098828747134 10.558586605257954
Mo 5.907214409700855 5.402130470009908 9.946284024688618
Mo 6.997265086697851 7.003478429322985 11.95342826890505
