22
Energy = -195.6039204 eV
Mo 7.284014914987781 3.900018869763359 6.773304302967345
Mo 7.914214163428221 4.580761832143502 5.112920262927139
Mo 8.083696639649837 5.037795146392304 9.293961123239436
Mo 5.6762534536433975 6.058556946143081 5.872438861105648
Mo 9.617760304812807 5.309270597606979 7.312877244917197
Mo 9.732033223920153 6.583388531391911 5.547591215893887
Mo 5.855684214338422 5.914494357761175 8.33849695503317
Mo 7.396167708763292 7.530189832658529 5.063871732550244
Mo 3.740691492494778 7.476400777980284 7.074433751837943
Mo 6.7902893442220575 6.672218137109639 11.088195655071397
Mo 7.665010765623909 7.4079578603834895 7.528119987482743
Mo 9.348430156677686 6.73336390044414 9.775781780525891
Mo 9.586344685047122 9.446932499909899 5.244386457888713
Mo 10.482546534363244 8.023906792255916 7.476080245708201
Mo 5.351438768375765 8.100645513913044 9.15081337835443
Mo 4.645484030509671 8.464746211765956 5.208005733739333
Mo 6.876028227994502 9.771126188216027 6.005742708916348
Mo 7.496167631019769 8.426932623513988 11.0060460541053
Mo 9.434865147212543 10.59374789604899 6.750975718959029
Mo 4.4618266082116245 9.689314798259044 7.1400812907608175
Mo 9.527491589208768 9.145227466745073 9.075298747024624
Mo 7.102220247324976 9.666493298486879 8.390742590718045
