28
Energy = -249.21578366 eV
Mo 8.681359287505407 10.753820360234432 5.216239223862504
Mo 3.432195870273302 5.8118149109721635 8.990559872198409
Mo 4.581574834463352 3.307886647647412 8.558042842007161
Mo 4.795863255676397 4.929942456478642 10.304792906779992
Mo 7.610432696505705 5.275793896066354 5.542781550104777
Mo 7.852821189636109 13.137076744596499 6.58479627521203
Mo 10.655510492682927 7.214497391569448 7.164972354045595
Mo 7.128686589154502 6.199515721407658 9.434967266010966
Mo 8.591765950947645 3.302917709116417 6.797411082772466
Mo 7.332274030898497 8.796731616633542 9.429499536331052
Mo 6.809324584636904 9.593526706525674 6.620243495352579
Mo 5.552746633593636 5.611991981709023 7.489794920256289
Mo 7.1578893803019845 11.155450634844284 8.595694847688238
Mo 11.347763846567817 9.291013011268484 6.391998265147502
Mo 4.8654186490200795 7.765086871724154 10.262847275033506
Mo 12.216636391776795 8.624975086190801 9.056886915328176
Mo 10.238436699642277 11.788531442023254 6.387916948518213
Mo 6.371494367809378 12.088085919502847 6.016531163762368
Mo 9.19814284013716 9.529285586488319 7.51621704800685
Mo 5.025759496405954 8.232410387393957 8.356333627359854
Mo 9.778083301490907 7.391764992821413 9.346173614339385
Mo 7.793910869887297 7.131190582620151 7.149008107940808
Mo 6.882216379418039 3.6564969142688137 8.720486662998551
Mo 6.07133948180936 3.6987687242112175 6.19671697169263
Mo 9.144633457770464 5.073671858340126 7.923523216305143
Mo 9.301349635575807 12.014889510696817 8.657931723210188
Mo 11.8502526837152 10.47112449282628 8.681388719331064
Mo 9.586433456742006 9.717906222204725 10.037164033352733
