21
Energy = -185.06660005 eV
Mo 5.864953902754999 3.6398729652849084 2.1995840150843855
Mo 4.244368752020313 7.555747035853324 2.561866683319102
Mo 6.398679927990078 6.179708235939038 2.1699123313835567
Mo 7.518368151457636 2.598609083721558 3.582952508362084
Mo 8.130787735445773 4.9633312156648115 3.475244800610568
Mo 4.172489038070285 5.067311026338889 3.697610683709192
Mo 4.9199921084760945 2.5203337464211892 3.8500481963053375
Mo 5.723796501012271 8.663047900353488 3.3083159220672598
Mo 3.5274744801289866 8.429807228406625 5.1518904746370024
Mo 6.07699797112779 6.39979362573618 4.565018090880367
Mo 5.872766690331602 8.329551398365627 6.3062073719604195
Mo 2.5845327681648156 6.726415674259357 5.041997372327127
Mo 6.4861606484255505 2.5108255509872386 5.870227739013074
Mo 4.762852212718329 4.464333900988105 5.976817149156645
Mo 7.6135275793629456 4.513619000539951 5.732157272846112
Mo 6.1811441307724 6.379634054111854 7.3772600289547325
Mo 2.7361342697631015 4.626403217286269 7.791189212960783
Mo 3.8921017115162138 6.811022750292249 7.39813178391899
Mo 4.728974217905766 2.732255418784674 8.194183382395863
Mo 6.390421754806107 3.6634277479044854 8.326153594927488
Mo 4.059392192099186 5.110865967109488 9.309148129529033
