29
Energy = -262.20572877 eV
Mo 9.122707978828064 6.7369974757755005 8.788737811363994
Mo 9.264806666945237 4.173261083184193 8.399452296322801
Mo 9.808962922031213 5.334983661142621 6.449579764259861
Mo 10.250534323180194 7.919423185191889 7.1047760860243905
Mo 9.238392931653456 2.4470242380164127 6.555810668425343
Mo 6.550174815650167 6.459473800012216 9.847781810805719
Mo 6.910799595324155 4.375169224902252 9.84704225191323
Mo 7.162550828652361 5.580641715042143 7.277642501698009
Mo 7.505018334200196 8.203419364504832 7.777625229238844
Mo 5.146278988040466 4.39242774203912 8.318188959168642
Mo 7.262046514793493 2.650097748595663 7.2770246381364565
Mo 8.672384230335165 9.157247609548659 5.947187357204425
Mo 8.164849734492764 6.892089219881794 5.213787652615146
Mo 8.152742435890534 3.987772141026776 5.023851828906266
Mo 5.6942374021060616 3.998343520996397 5.559423467730307
Mo 5.086026748092887 9.17075557882822 8.917070695688853
Mo 5.360740921002898 6.581629103592505 5.1265304525231326
Mo 6.7771687666779385 8.442677646524189 3.559602972161612
Mo 4.806794539827194 6.921416729863589 7.911627203211109
Mo 5.567535658721525 7.1689426902404385 2.374794332101889
Mo 6.912659114640165 5.45708911086581 3.408755084312886
Mo 5.701916075553717 9.020671204357015 6.104585090637691
Mo 3.426702704607862 4.842575449284566 6.389389313388473
Mo 3.754565491395285 9.60549461346891 7.469216637027451
Mo 3.1637499127051822 7.035644962744962 3.5208709721856155
Mo 3.910531656825887 4.641014322256296 3.6536992644486475
Mo 4.273877328415841 9.084277023945829 4.245805356226577
Mo 2.9993478619325042 7.304847562391202 5.954950970056352
Mo 1.9435714626245089 4.979559217470891 4.642141810074944
