23
Energy = -205.32951188 eV
Mo 5.523122787596111 7.559368705244996 11.318277340604823
Mo 10.45592730521549 9.364367985255765 8.60067267149759
Mo 8.30378584851716 8.51902063959792 7.204082502851523
Mo 8.366856855847272 10.503770611663525 5.324365903832309
Mo 6.986903354378249 10.853390128803273 7.85309177748532
Mo 9.52283055983273 7.789198290268129 11.345440446285432
Mo 6.492688017997742 9.192003574310622 11.748747216358012
Mo 5.964497910962617 9.065289303985654 6.232579382901421
Mo 8.69901108684131 4.921690860545308 10.387369742429778
Mo 8.904337271476264 8.162063880324164 4.545928067984473
Mo 7.731679246756345 5.6993257413116645 7.687435571941866
Mo 9.280175036758823 5.66321157661398 5.617206237534059
Mo 5.5934753248962386 9.440951623720638 9.162484961202592
Mo 10.675642130541961 7.387963743068431 6.090369220416726
Mo 10.428213523249601 10.159739027751556 5.7699314245903475
Mo 5.529330059167977 7.505584752928028 7.724251718708972
Mo 6.850677159969226 4.9206892282309695 10.427194216257785
Mo 8.213096699944947 6.9345106228827 12.345172056288922
Mo 9.721132911105872 11.226681778258707 7.827224977199434
Mo 8.263969691771294 9.878893900726833 9.691651888127685
Mo 7.117073127837067 6.9192727000374195 5.297279722462969
Mo 7.457608029522818 7.501016670581772 9.638399292015905
Mo 9.711561056444904 6.5627794887120565 8.293260291778799
