24
Energy = -213.36119883 eV
Mo 6.690790093008955 6.465855690870068 3.9151131500722585
Mo 6.699486832116352 6.587013227156107 9.739176121170658
Mo 8.266966663079415 5.255981454249365 5.250185919535997
Mo 8.232792370665331 5.236064196384753 8.515856652870697
Mo 8.937601660984791 7.546406258862607 5.42702880738899
Mo 8.959103511879247 7.585436789572877 8.201502690586844
Mo 6.880979715253762 8.9428598544353 5.486432170293617
Mo 6.794848163063928 8.90818955319899 8.304706149985638
Mo 4.713180296308099 7.455771650990463 5.316707338338906
Mo 4.507963991284955 7.424406259516165 8.269887235383369
Mo 5.614774124357706 4.9360899315594535 5.361363188035709
Mo 5.623272795942223 4.931397913265017 8.27201563965409
Mo 6.79687554135252 6.729365308571032 6.842079806036561
Mo 9.136344558971256 3.170243841768438 6.847326092927839
Mo 10.700262409515169 5.874432775954177 6.886570323543446
Mo 11.253575661157969 7.664821102296054 6.889020160141484
Mo 9.111934349780714 10.015916750312389 6.893265662899394
Mo 6.367818992389355 11.281289259114605 6.947452667641297
Mo 4.877061002219208 10.20571658694335 6.7793716584171
Mo 3.038554721785053 8.039112307398907 6.852852482465796
Mo 3.221788150504225 5.1805505005049195 6.856665576509437
Mo 3.8576786743429614 3.4560513773704202 6.842527876310422
Mo 7.326869573285658 3.015113471522846 6.941197170823224
Mo 8.725348481456152 10.520155953801666 8.712015139119513
