20
Energy = -176.28963057 eV
Mo 7.450887733871442 3.206934606335607 8.020361423750538
Mo 8.52888917518903 5.151616943566695 3.665600118062093
Mo 6.492787386695295 6.480533540822737 5.070669642760176
Mo 7.815156409110436 5.10349277504643 8.034695104595983
Mo 4.475882977321048 7.398049162605663 4.086166142375344
Mo 5.591545291898104 5.092856865538579 2.7641392727212564
Mo 8.478524880756797 8.201585025123453 4.143074096576643
Mo 6.466729184143038 6.724394915136603 2.309056169883711
Mo 4.125830147611316 4.936182341131193 5.2487283463129355
Mo 6.950741098727947 9.180948500880424 4.2881404878908915
Mo 4.719629689952042 3.1894188384526765 7.491259244797908
Mo 2.931553513212557 6.676326475349491 5.861847337257862
Mo 5.046447983815307 4.113865177951081 9.197986953587877
Mo 9.11231974366641 5.359888478765752 5.446031047401739
Mo 5.107017245571696 8.434256644044146 6.4680647691989375
Mo 2.686380401674722 5.106676100273659 7.976663029313062
Mo 7.157950923962022 7.951702710586618 6.984399408935951
Mo 3.3574942300849564 6.763645847675957 8.719838119940048
Mo 6.843277424339104 4.093067778797503 5.606253447520926
Mo 5.414425863975424 5.938134383338286 7.348963135425562
