28
Energy = -253.20370916 eV
Mo 6.153801379815421 9.603137442468155 9.982557708141481
Mo 7.830891647646269 7.900318413756963 6.326756518930319
Mo 7.430707944178665 5.441397571227525 5.630395705047126
Mo 9.166653034314873 5.7055358992152145 7.9521200572502995
Mo 5.919803943645808 6.904822631647755 4.299572077195454
Mo 10.972574548918288 10.855054854300251 12.107162663497649
Mo 8.991992854797505 6.913674034495143 3.851583762781639
Mo 4.680597690662613 6.265195983809626 5.866926558964126
Mo 9.591087037279173 9.871350612837668 7.47088421195424
Mo 10.001039901186674 9.20929918728007 5.43696371977735
Mo 10.09038582546778 6.4165557362515635 5.325250918529514
Mo 9.886398303243322 6.811218295122133 11.44353374924417
Mo 6.5961376832546685 5.814211384859901 7.805663428270901
Mo 5.783913842310777 6.85720064013338 10.34692790143207
Mo 6.963317861444292 7.200328824746242 11.82276288407761
Mo 11.266265263133754 9.210667873502329 12.79022516229289
Mo 8.543620852623215 9.475204211861493 11.67334013937378
Mo 10.699812940519664 7.746692450281945 7.8499651996145134
Mo 6.829733550131435 10.160966307389067 8.091548257445437
Mo 5.388256714172556 7.952716928221374 7.800272534648462
Mo 5.55414529934557 8.962486017850662 5.699290030209211
Mo 8.211709659260622 5.444312082584375 10.077453726529065
Mo 8.183530324931123 7.939518603946802 9.285545001466472
Mo 10.671464889527579 8.67689901377747 10.064322466634408
Mo 7.757191288718014 10.73454575168478 5.4488995628547725
Mo 8.831237329838313 10.660665470853903 10.039938841398914
Mo 7.594404823431138 9.423679691914664 3.9868379832619607
Mo 11.026016259262706 5.937282819103026 9.80179841843229
