27
Energy = -243.39708278 eV
Mo 9.276152480410593 5.868799373774638 6.396598880800625
Mo 7.467351413166845 4.924250780282209 10.166782976148179
Mo 6.675703967156471 2.561797912211474 8.518428015070215
Mo 8.17112503066148 7.756462900340573 4.433131134290067
Mo 8.79946793090484 3.0963404367752094 6.520424945638815
Mo 5.547276510824422 4.907392849654377 9.930993046122133
Mo 7.158007893754492 7.599963827493156 6.553661565208191
Mo 6.645468501737194 7.495288445550813 9.312332112466772
Mo 4.847871474123364 3.0248258692347276 8.055773716933368
Mo 4.2532778841363355 4.572712679957516 5.874080966178031
Mo 4.51062315661958 6.390638630455761 7.611109993711625
Mo 6.8196845354886175 5.042904201366412 7.377616742862759
Mo 9.298506605630283 4.050689432421936 8.186639473953369
Mo 6.271885990454819 9.625495473744852 4.732629758510172
Mo 6.329519558157105 3.1953137765473767 5.6853398118124465
Mo 2.7321076879931785 7.053725483100648 5.735688173118827
Mo 7.717428562986473 5.197543622309053 4.736453536969177
Mo 3.639281948631091 9.07614689693459 4.932588092673377
Mo 5.331429852372142 6.908040517734015 4.677884691026614
Mo 8.534520494257132 7.087589814781343 8.731754881131065
Mo 4.899217079501267 8.559780261426212 7.185655642353214
Mo 5.46456583520333 4.5465571963257885 3.532877403998735
Mo 2.9412673712280357 5.564389315665892 3.910726539869097
Mo 7.094397956653443 6.569424798600297 2.414309415887861
Mo 3.3230909508446795 7.749509854828581 3.030518837362484
Mo 5.892757401509909 8.972959863897088 2.8970520741275823
Mo 5.074470197955126 6.2234229634758576 1.8514081672158467
