25
Energy = -223.95448368 eV
Mo 6.05473200253947 5.397777500851051 2.278813725935243
Mo 4.271322096076632 5.169937227055301 2.9854592823882875
Mo 4.894166147299261 7.745910521380369 3.6186144472622233
Mo 7.337682230922099 7.2393039154105665 3.695849177462919
Mo 9.040118067698389 8.927170465763336 4.767556632159547
Mo 6.110659390563997 3.496717285885043 4.525057379182559
Mo 3.9681316735614516 9.846893404666158 5.348546707989518
Mo 7.788722576431872 4.578275147641137 4.627087110595465
Mo 9.926921391513307 7.2325297965333855 4.860058951067454
Mo 3.5509995073641845 8.06220443796907 6.09154458109652
Mo 5.490442703293745 6.116398910620311 5.215033433036482
Mo 6.280064910032534 8.796128257979264 5.580144337334766
Mo 5.982700635942125 1.7343516955838292 6.827564108220455
Mo 8.011987528303925 6.815209823535203 6.457080888966627
Mo 6.507021510426265 4.4656191734661705 7.087563943888941
Mo 5.58926670953 7.119419124992973 7.755751634840951
Mo 7.531600982428512 9.285078242382554 7.752684339829748
Mo 8.92153535064475 4.881434595002763 7.361999907817959
Mo 6.234467841459204 2.2153993083993564 8.506001288552824
Mo 5.365900462198962 9.59642047470314 7.968873330540529
Mo 5.941162607679056 5.151129944121993 9.65821462939162
Mo 7.935964785120404 4.3551148101997414 9.545915289072834
Mo 7.594460348026116 6.948314422552039 9.173091392808272
Mo 5.2799077822913585 8.147172148325438 10.360184049057763
Mo 6.888016024250715 9.174044630577702 10.449264697098236
