24
Energy = -215.06612951 eV
Mo 7.263432701298024 3.712289934779455 2.8739864258091843
Mo 4.476027003084595 3.7937462613756527 4.2360399040664305
Mo 3.4738296527549295 5.285719122259084 3.9555041837366827
Mo 6.393973248426981 6.126266579998691 3.9114287254002242
Mo 7.101758693081751 4.2448635416679386 5.525179612958631
Mo 8.73908633962338 4.784931427776823 3.229362672324409
Mo 2.5885315955613906 4.697819798767809 7.047970716061341
Mo 4.953078750416601 5.474690856688502 6.419330273527987
Mo 4.730228746663936 7.602163494463731 4.998922626622254
Mo 6.330695952169765 3.6977177557184917 8.14799238945694
Mo 3.294020945864542 5.093109529889262 8.677945116189248
Mo 8.225865997310743 3.3373430484993483 7.7332812950907925
Mo 8.379923218021796 7.603852022317597 4.1315338429897315
Mo 3.835209711543847 7.7963542536704855 7.723514271463256
Mo 6.990183881842741 7.156134443683066 6.473201361911538
Mo 6.669693420626511 8.936470981625133 4.116519697195616
Mo 8.949843571628314 5.737746178002884 6.029946180851997
Mo 8.303986642017943 5.747424573281147 8.597662577767553
Mo 5.895016834686955 9.672354601325907 6.759792280752066
Mo 5.959793191345944 6.216263958890258 8.835769709388716
Mo 9.233500366972894 7.93202709451669 7.873742602876134
Mo 7.317265523895348 8.470920061926186 8.732478188627406
Mo 7.880444450264148 9.803921180640021 6.311820185080042
Mo 4.480302415924084 8.652239843830642 9.198545756350374
