23
Energy = -205.0443322 eV
Mo 7.944118474277623 7.968577379331024 11.437407951662385
Mo 5.241137214723102 6.819023064935324 11.058254243109456
Mo 7.883187128621141 10.004174991842333 4.179197950327709
Mo 5.803994402716226 10.170119461506948 8.536247864614376
Mo 5.853777497347952 10.29419649275791 5.5639476201748295
Mo 7.857300971158904 9.213504979391375 6.753962768570946
Mo 5.09539458141828 5.819262583597344 8.005626972143807
Mo 7.222504745053294 6.60549780607138 6.3493289467174145
Mo 6.916812269221638 8.20310129497062 4.121299360392972
Mo 6.5687251338523 5.497074357970439 10.75700761087134
Mo 6.88698394633723 7.539171487755046 8.908033290599722
Mo 9.120879494209449 6.774039691750229 10.528318849758842
Mo 6.07520842491502 9.766574315370665 10.31434509500109
Mo 9.495324083156419 7.581535812824605 4.697390128723981
Mo 4.213055527433745 7.5636796993855855 8.719538144861406
Mo 9.501401042117875 5.032858437926507 5.848455088324911
Mo 9.473995632193224 7.273850378716942 7.851781623467801
Mo 5.298561614787077 8.220345843319029 6.446976118249951
Mo 10.047219003156442 4.9019556583255826 8.624510744367349
Mo 10.342519153247451 8.886129468654858 5.988198598327413
Mo 7.937833242290041 4.9601031961842015 8.281353426012176
Mo 8.701976652198512 9.365038131285194 9.070554976433355
Mo 11.19492157843042 5.844148440309147 6.32611077287756
