22
Energy = -196.0263903 eV
Mo 3.3460243679916952 2.659728703467966 4.243888870159177
Mo 3.248270242988833 6.687368899567352 6.11148734267499
Mo 3.3245668545526748 5.405110330411828 3.6468191724147525
Mo 3.1528710117387964 3.9434568028528876 6.745730420973689
Mo 4.672070564202781 7.704731270071531 4.96361495485281
Mo 4.599591156260669 8.341632564053928 7.912573854940749
Mo 4.876579102327202 5.503946172555042 7.89623673740614
Mo 4.975245583671494 6.085123120446579 2.7791616552285374
Mo 5.466714349079433 5.126607869862171 5.301027041141921
Mo 5.067528429570424 3.0822249614534356 3.5958992092905393
Mo 6.635000577787672 9.56560478482394 6.301435123271623
Mo 7.455647673443649 6.93594255321867 4.330584157615244
Mo 6.745326985046625 6.921628426577517 6.884236985746346
Mo 4.853154270761087 2.885749670727665 6.6118029351549925
Mo 7.27659353279797 9.345022751838448 8.106315873458545
Mo 7.454958217032793 4.8963936555263485 3.5104694640564005
Mo 5.634004442009981 7.452430326540112 9.4076302296143
Mo 9.223560068027407 8.287131839808438 6.317350679654234
Mo 7.678935025277043 3.341614825483113 5.524014523285856
Mo 7.308729906132557 4.20742597515618 7.325700692168144
Mo 8.96889669138571 5.692117932054923 5.70745293909902
Mo 9.116536901779984 7.041477968961935 7.901577295197947
