22
Energy = -194.86632632 eV
Mo 9.75137936490455 8.540688685423428 4.988721347863716
Mo 7.087274631008849 9.030588687107715 5.807336279839558
Mo 3.273703046439155 5.677030524127011 8.233159080988274
Mo 9.16378159509394 5.947710034087336 5.572752327499799
Mo 6.985067037539082 6.933962642567581 8.460392848610288
Mo 7.477748540855448 5.343748952372968 10.396362760374341
Mo 8.728994655969878 3.2389930025379594 5.648009140999235
Mo 5.169828920549414 8.046199972724162 4.168487064074255
Mo 5.398488418420667 4.876353751196455 7.023039375746674
Mo 3.8606978364779287 6.360645531188715 5.488850052698368
Mo 4.698490596684078 7.859205324532625 7.107344041775355
Mo 3.2452294661399033 9.01935310637108 4.890321941202761
Mo 5.618041560018064 4.932976108870898 4.090736039255275
Mo 6.020217716238427 4.287500275553936 9.638331154313962
Mo 4.553323479095005 6.469522123517956 9.52647766433556
Mo 8.235916799380036 7.970893431081231 3.770180862492388
Mo 8.887258282514212 7.9106163560638745 7.192076398085107
Mo 6.787360880763654 2.965002813080404 5.806643257087509
Mo 7.947384327267608 4.786454597890862 7.6826804094776735
Mo 6.842361479087272 6.573592017501867 5.840758191956807
Mo 7.581779231875869 4.815998695270729 3.7577716115375406
Mo 4.631067110354959 10.081584354356798 6.084195881488196
