26
Energy = -232.97523087 eV
Mo 4.5730539704763125 8.567124498599776 3.2116534749647676
Mo 6.140643597210044 10.613832871019383 4.20306119886269
Mo 3.3640243605902587 8.83379715455666 5.138134139957195
Mo 7.646285990617776 9.57379097548288 3.644371004852617
Mo 3.6412347684951816 6.639918166921995 5.044818575137566
Mo 5.6157954134054595 6.359691652658391 3.33984289270724
Mo 5.992371985905398 8.234078037139266 5.401182399191286
Mo 5.141131930281666 9.412707807283835 7.571097571400789
Mo 4.752278943670741 3.787964509269006 4.51501715237636
Mo 7.757136882322279 9.996668149151628 6.4778382785106645
Mo 7.88824768488292 6.707065474108466 3.9204014950470913
Mo 4.109509141344597 7.620470381921569 7.66332198137254
Mo 5.996524220957792 5.820938617827826 6.137821335833558
Mo 8.72765420350595 8.35686540327188 6.239696675069787
Mo 7.544380396277879 4.55042055853496 4.465201124135471
Mo 3.683868646963039 4.359488730108552 7.187575922183214
Mo 5.460893044085925 5.580920072331005 8.716851055421708
Mo 6.555477154855755 3.4786751218597205 6.8994567452529365
Mo 5.771548560222905 2.1658935468290124 4.778001173216228
Mo 8.598495324693413 5.573875360870297 6.575297879264992
Mo 4.04488639449063 2.389335335257706 7.056084285402064
Mo 6.902103006089129 7.603925050085504 8.048990879584652
Mo 9.073315620399255 3.3560499487834092 7.093130315464832
Mo 5.596528460215765 3.1434487882241675 9.109116238623628
Mo 8.070871844100655 2.8010663163565446 9.164059966745574
Mo 7.870719686458135 5.016283894258559 9.031518415719763
