21
Energy = -186.25617217 eV
Mo 7.2501433265896855 5.9258829253277705 8.842092655113547
Mo 7.1104081001339345 9.658345445833827 9.727363636782712
Mo 7.520662701979974 4.721074783533821 6.337528965617011
Mo 3.54658969777876 5.00502482805114 7.140091237084423
Mo 6.558637069062069 6.171868619720652 2.9824091754263202
Mo 4.587350246834079 6.829328122297017 9.145085687588308
Mo 5.096267872926572 4.236186626474281 7.924244746670585
Mo 4.209175546668768 9.087945150211693 5.9725451530043205
Mo 7.368225251743793 4.350437010346689 3.600883352702294
Mo 5.73595174713137 6.805694776210053 6.89027951278829
Mo 5.186881900461314 8.951441705813952 8.360970271146028
Mo 5.359027406910378 4.456834614408555 5.037530406609877
Mo 9.588355571282293 6.289526112288721 3.2168517809511323
Mo 7.665452650176991 6.825190353230828 5.215689226287749
Mo 4.5670786025701195 6.589661949299337 4.6805186748745395
Mo 3.046370103047608 7.779975485947882 6.822879106883083
Mo 10.054850822287495 5.142791307948356 4.525575332654087
Mo 6.610303133048923 7.820338752924616 10.526221913460914
Mo 7.895779775221303 8.00890146076175 7.989539706552347
Mo 9.640325223177642 6.015891320516922 7.218349574085447
Mo 9.814650389948328 7.76347308734203 6.197985105837549
