20
Energy = -175.22908434 eV
Mo 6.0577172141203475 6.24207644932539 9.29074066713954
Mo 5.781660013471536 10.148079747096858 5.950273223605472
Mo 6.625327437704199 5.478688375404038 4.6942634404112145
Mo 4.268559786108978 8.304422755117042 9.30251770701685
Mo 5.25125284555812 6.796792945684324 6.967160249937458
Mo 5.366618845115343 8.129991124557769 4.600006215584386
Mo 3.270885368805184 6.807470912147176 8.53673793947979
Mo 9.35044271435396 9.098888017491658 8.68740624720462
Mo 6.68161811446092 8.814649903839006 8.011331338613944
Mo 8.579696818595504 3.9289726837769527 4.388507339975813
Mo 6.863602982128089 4.5748755364929465 7.429327042478248
Mo 8.695967165453096 9.949540814206832 6.405715600428247
Mo 10.192677668118638 8.20387148364449 6.87727078269526
Mo 4.075863812104435 9.047105842009088 6.716651641064781
Mo 5.0396568818760565 4.375877267846594 5.8663974723737145
Mo 8.242002126527055 6.84728052121307 8.472031003710946
Mo 6.924878868315291 2.7029284530702347 5.274928898693508
Mo 7.507080240387699 7.950274498346246 5.826970434766266
Mo 8.732930159351035 3.1672940964832925 6.740218067169894
Mo 8.827982078339573 5.767339713141323 6.297965828545217
