21
Energy = -185.78589663 eV
Mo 2.8617088935586 4.649404063832712 6.132626749064737
Mo 3.1279529207599412 7.0751792885647005 6.9574760771302575
Mo 3.334029673542745 4.456848226752084 8.070613977807925
Mo 4.904197236106942 9.04696112800964 8.082173896585621
Mo 5.131710651303185 6.370797554579825 5.551758751948091
Mo 4.787339190534821 4.133261600861734 3.887142447388919
Mo 4.190238898303446 9.117903187607778 6.011692753833494
Mo 3.8273123590625113 6.911683077331463 9.234785534068417
Mo 5.597127028877748 5.605336675489976 2.9641283402759586
Mo 6.12178854501105 8.388744953053193 4.482234775384632
Mo 6.33473469519374 1.7299016319589775 5.683986448870961
Mo 5.536387287842099 3.9750141446719116 6.634047033908581
Mo 5.617975933397541 6.259660158018662 8.194322804149355
Mo 7.879634254185197 6.6274203933174585 4.3388860655205495
Mo 8.832820266506026 9.196420295818811 4.9971305164002375
Mo 6.841669144699417 8.169025588937568 6.72358918152671
Mo 7.3443219413338765 3.989903163872362 4.42238659259421
Mo 7.642790205209302 5.473599204771289 6.742714601996691
Mo 7.953467950987068 2.46504979691578 6.405839345844226
Mo 9.630594720373784 7.816695960748609 5.973619753854852
Mo 9.349541970049621 4.86473903762326 5.226879879321082
