24
Energy = -213.93349693 eV
Mo 7.092447633964293 8.990126254984194 3.789739001920347
Mo 9.354212165784041 8.771689201933734 4.772178471361874
Mo 7.4023647140999564 4.181205423042052 3.5981933827736676
Mo 8.570728182018605 6.676568058207693 4.25046007365978
Mo 6.015217664509101 6.829936453069429 3.6732208082545843
Mo 6.699526999316775 5.934704308269118 5.907164437691488
Mo 5.527173951123804 8.620534426831505 5.68141576694915
Mo 7.818054704222657 8.636495287325644 6.567222267664638
Mo 10.22496455029172 6.965089804555512 6.507637283513769
Mo 6.240694360511931 2.746703504216826 3.8619598483427953
Mo 9.04974545067642 5.009202446104724 6.244844250420762
Mo 4.615244229103958 4.809732749727199 4.235127878852375
Mo 7.071856816999318 3.1625235615856475 6.369001899370358
Mo 3.2890650117397024 8.222631498352841 7.774842793030136
Mo 8.41829308315966 6.775995100301221 8.157867000464268
Mo 3.9083230185239013 6.527398384221099 6.040995525300544
Mo 5.020578506853124 3.7528690908541833 6.412514292298951
Mo 6.746882972425138 4.641122822983842 8.799012547836332
Mo 5.863282569831776 7.255570073507571 7.938067378543219
Mo 5.875915443301334 9.932698845795318 8.411426020661887
Mo 7.23210166996924 9.14680867618612 9.405908185366673
Mo 4.010635066604615 7.6266628322722365 9.677068854820192
Mo 6.455404165031959 5.840348330597775 10.214738000664479
Mo 4.096191730506713 5.589230680654279 8.334071000109976
