24
Energy = -215.00179137 eV
Mo 6.545717198498521 9.636606862424422 12.083737917173563
Mo 7.94058766966801 10.794301724051389 7.231091094202367
Mo 8.889262797975077 7.532588203592635 7.752811501763453
Mo 8.641492979512794 10.24928448916799 11.588517380944594
Mo 7.5798643722652335 9.451823886201536 9.459719617684511
Mo 7.659120549364231 4.955336450206789 7.792537208851853
Mo 9.662190326923085 8.038548466633001 10.384226433005814
Mo 9.953573421678 10.163645535932986 8.436763329949072
Mo 11.65346393865089 7.960195292533593 8.402522420428205
Mo 6.394863918279187 7.084476241001271 8.976750133698383
Mo 7.453103263912793 7.637114232811428 11.415453861410054
Mo 9.46407075458264 5.053509306376768 6.47616360133101
Mo 10.23144197882597 9.309485938691735 6.303334411786917
Mo 5.0608651669814355 9.109821693280908 9.64598940724186
Mo 8.976815656310226 6.987110607821803 4.981902006822287
Mo 6.914423212778381 6.344161757812275 6.038289854628027
Mo 7.916147630980324 9.001334284339734 5.355872111513559
Mo 8.794793050412341 5.697042279046821 10.086355898302056
Mo 5.532152045957676 10.872045248401031 8.241628433998779
Mo 6.247360546825484 11.805159965339392 10.519301127571094
Mo 7.988184490858311 12.158807054598766 9.5688956709103
Mo 11.50448021983182 7.0480185375544915 6.6248045924054475
Mo 6.143990031257776 8.579068418751476 7.09570789716207
Mo 10.452539040555335 5.528429184595392 8.83348216398268
