24
Energy = -214.15276727 eV
Mo 7.59913892077827 7.987059162558895 4.161082921537369
Mo 5.197632502994759 8.698686901245033 5.624041309221153
Mo 10.07349699648728 8.179242667885665 5.265109927541163
Mo 8.593870087124765 6.02448872083984 4.083501392655158
Mo 4.822655594558089 8.156298522395742 3.150886925555418
Mo 7.7297641970953235 8.775487788412173 6.589568182005903
Mo 5.306070866637902 8.989746811417469 7.94545423845995
Mo 5.930527602188933 5.901822054030065 3.5452169366047634
Mo 10.662063112592174 6.362398791430187 5.732971215174524
Mo 8.979667503952935 7.062982555515944 7.650919569795927
Mo 7.200992763415194 7.942040651727848 9.122087223411501
Mo 3.3911552907896856 7.074300482165848 4.131437661478823
Mo 6.648720076793991 6.332007684269492 6.274366932655714
Mo 4.614497921270472 8.778306606156127 10.478048886571719
Mo 4.075189185519243 6.916897285572177 6.7682825155750965
Mo 8.69782581041239 4.467678512855361 6.357509498846605
Mo 7.175172299560995 3.9190904552182855 4.75194030667638
Mo 3.2434383266381994 7.878479603580412 9.582870694835318
Mo 4.5883568275536 4.920440139119539 5.092402503998151
Mo 7.380454307702302 4.966930656587298 8.426234365321179
Mo 5.335559223027101 6.392164720125623 9.163939533970895
Mo 5.132698332590338 4.431080168344693 7.747918251433377
Mo 7.158704624037997 2.4936531192430973 7.238588251441209
Mo 5.492864602799036 2.4633449496946977 6.125612020265053
