25
Energy = -223.94695676 eV
Mo 3.4907334257680027 3.7633829341346394 6.804743409532141
Mo 2.7831500566715732 4.503198602111843 4.065590217822166
Mo 3.599210103805156 6.190583922861619 6.300670220668376
Mo 4.453239510918805 2.047447953269003 4.693554033475625
Mo 5.504535310171205 2.8970284759100178 7.302430609961886
Mo 4.760860732942678 5.411292219036631 8.6264385249016
Mo 3.702880539948985 5.992800133925533 3.2856396069913796
Mo 5.411485432843897 4.606560445526334 5.093173320044161
Mo 4.862861147746608 8.460953300114788 7.874228285984718
Mo 5.23281517060832 3.6334433796505405 2.9104208547639288
Mo 6.487764639087558 2.0545255732125822 4.717208599404983
Mo 5.491867069310376 10.347132922746503 5.704048961856746
Mo 7.262812572705575 10.835718620602966 6.104467601383082
Mo 6.120995791092182 9.869690635896823 8.439869842942283
Mo 6.522655672149433 6.361700486955347 6.800762689088165
Mo 5.064988879668467 7.620985300046349 5.064716375177189
Mo 7.3734514415736285 8.328883807116082 4.965704577627693
Mo 6.579083980014427 7.1554609551351085 9.236986759708074
Mo 6.9012870459702365 6.2118718624627975 3.1519549146908714
Mo 6.735668694299452 4.391042851734813 8.785896417612989
Mo 7.710468048106435 4.200304047706442 6.380346163294471
Mo 8.058648810774702 8.16989016041127 7.3470594241747325
Mo 7.721195903152984 4.501531758035146 3.500312813850516
Mo 9.237982978644565 6.078448485276106 7.554404218254782
Mo 8.961223495069234 6.3493134038872165 5.341232889198046
