25
Energy = -223.98482849 eV
Mo 5.857815583106788 6.049576802508048 2.243468677855576
Mo 5.707410582320873 3.6087918621371724 2.521745007980065
Mo 3.35874164269566 5.307952003723524 2.914078658938664
Mo 7.8795168679079 5.911620838770441 3.201231174084068
Mo 7.052918991820984 7.596958829403791 4.48051864660444
Mo 2.31608153021804 7.899295139206705 4.238072944905349
Mo 4.4265393375334785 7.663105191354243 4.093556642746628
Mo 5.598620972046496 5.038641220416733 4.743473349545085
Mo 5.8059278354044 2.346035130392604 5.321425844539956
Mo 7.8532388019817745 3.3925954212973277 4.509632129998775
Mo 3.7785721565570145 3.1638801817233015 3.5946870447066903
Mo 9.300344265205897 7.479683766646113 5.673582715906274
Mo 3.0157710623285015 5.66134841737149 5.25166628834715
Mo 3.140843480649033 8.274766034040058 6.640834188032372
Mo 4.922125935040597 9.220258531249913 6.121367958047897
Mo 4.409977573446177 2.6393813432409132 8.007797645188262
Mo 8.419460671229068 2.8153991994513166 6.465897697673631
Mo 8.18246928655714 5.684362913345502 6.106152225129349
Mo 7.4918913881682485 8.236864790854513 7.319947172897267
Mo 5.347934161672796 6.755814476900056 6.7690776606855305
Mo 3.5087690801885425 3.2666866855360563 6.45507552689371
Mo 6.400675176484241 3.963719994657215 7.084199221299653
Mo 3.3181013914016324 5.64382048850874 8.163278958575033
Mo 7.457998552417868 6.506325900050015 8.449574255330477
Mo 4.923154629272033 5.348015792869099 9.104559319742213
