24
Energy = -215.6983188 eV
Mo 6.447063905408987 7.756791068406559 7.857659781621153
Mo 7.553253565641977 5.807793060067885 9.303404836923361
Mo 4.87764823255014 5.489277739326721 8.204600977102716
Mo 6.703998729238388 9.231450348313368 6.057178932877566
Mo 3.5386476455151654 7.780938994002051 7.949179848377451
Mo 8.648512968688951 7.174366532140613 7.014822762763137
Mo 7.154114981950492 3.4730826842567137 8.430472435773293
Mo 4.450306616312041 9.362060885174982 6.205245047709251
Mo 5.124547746340637 6.925755141057727 5.56353557333034
Mo 9.351137853901598 5.289275889957735 8.186130512685283
Mo 3.1799850100941307 5.330811816374316 6.4753410122732005
Mo 5.502914137395458 8.925722985081995 3.511490626606463
Mo 6.993733255189038 5.151320350552294 6.440475265221252
Mo 3.6432704406792795 8.453930116710916 3.780300022232395
Mo 9.091003196558063 5.557338910825148 4.935661049473923
Mo 5.1187260515549164 3.2822290310139217 7.460539036726618
Mo 7.459040987379863 7.15427969704885 4.370549866410565
Mo 8.843203422094652 3.0817574927768514 6.344312704764615
Mo 2.305866113678895 7.467437156335814 6.179588065727628
Mo 5.815471610042521 6.145908909605164 2.879645315466465
Mo 5.211906600115886 4.109542106338599 4.807683634876856
Mo 7.157332115115701 2.354963775035916 5.727207881089661
Mo 3.654302567519369 5.595472126358475 3.859600922270946
Mo 7.363364836712803 4.3672857700724 3.69470554732758
