20
Energy = -176.99633115 eV
Mo 8.263110033733012 4.993415809743645 4.442240916003414
Mo 8.641825767707719 7.412417282065682 9.431225259833658
Mo 7.043482780928348 8.454478403133239 7.704239642634134
Mo 8.598564698508076 10.230181062308635 8.693032119566316
Mo 5.352608755807188 9.890171733762294 9.284941541864006
Mo 4.770940779974086 8.488737372580756 6.572572463617267
Mo 4.748980242904633 6.437125957752752 4.226651093433741
Mo 6.936218168222537 5.969734231712278 9.031341228291042
Mo 3.53616958424809 6.023497890327314 5.575189113421256
Mo 5.001246583508702 4.174751325565571 7.4591789371326405
Mo 5.4687886418678024 3.8160149626456112 5.665196571539637
Mo 7.786040092924223 4.480385468823243 7.13236827232992
Mo 9.40934360262517 9.561277227149853 7.164430247615031
Mo 9.018387792850461 6.571906306784796 7.183575002297008
Mo 7.934342879483786 8.12039943230936 4.836120267962743
Mo 9.672182894698723 7.667839978268697 4.653192096073294
Mo 4.555785878574618 7.164551196113479 8.140968839258019
Mo 5.928484206468789 8.449312334835959 10.28872131107427
Mo 9.947826407053839 4.8416798818330475 5.267701405962761
Mo 6.430252678920326 6.2967046132940325 6.291696141100333
