28
Energy = -252.24249214 eV
Mo 2.7791397750325055 6.533216496654097 7.538519590678269
Mo 6.958164137763895 7.851202534694821 5.201603358908099
Mo 10.97827276017289 7.676789255598005 8.731228469772448
Mo 7.921317396800728 7.803237760433304 12.34283788222525
Mo 3.9555684543679868 8.6431931817965 8.969721386195621
Mo 9.066367674193875 8.393850962059897 6.913139132516406
Mo 8.985928058004376 6.164200079817762 4.996672044762604
Mo 11.502782242413994 8.892070253256533 6.023443619220214
Mo 5.570704444794638 9.040936016022005 11.202811192157878
Mo 5.837884484352564 10.537753366181548 9.78856263516105
Mo 6.743424300305554 6.4217134236329425 11.744931380948833
Mo 8.138199131161711 10.209371812569993 10.977501314909075
Mo 9.469028790062032 11.10077747101276 5.876015552997401
Mo 7.563336337554693 8.095609567006967 9.548994014876891
Mo 9.275801826528824 6.196774315308714 10.513248217807888
Mo 8.339153154219153 10.555830219197663 8.44796383536498
Mo 6.1001798953377495 8.968025057230387 7.586328644954217
Mo 5.041393405918375 6.892052427732803 9.319431035262399
Mo 6.900559404740762 6.596340685587126 7.0433805426400795
Mo 9.386552093533785 5.85515315783669 7.647820806533436
Mo 11.52275541432622 6.751139092466298 6.527022751531817
Mo 7.738433512477999 5.311640044066962 9.377644426423407
Mo 7.554493068028637 10.677928065122744 5.91010707565661
Mo 10.67118073944407 10.146509132466134 8.272622044420583
Mo 10.098197926419145 9.072538746327654 10.533607536207791
Mo 4.087133183422213 7.1396964746587255 6.465634962663152
Mo 10.70975988688452 7.065527650191225 4.028241941354417
Mo 9.295696286178961 8.876383103862567 4.374638421985925
