23
Energy = -202.69987538 eV
Mo 6.9469070839639695 9.959511794412904 6.593988281999388
Mo 6.352242741555114 4.57963898534969 6.484541076567183
Mo 8.971000074699809 8.499189083081143 5.342194977931465
Mo 6.205118255572085 7.212345087452301 5.919407297024232
Mo 5.296832374927767 9.22856631521274 4.893414426227226
Mo 9.833933166319936 6.474622107403744 7.299889491362946
Mo 9.122935473955488 7.416713064833426 3.127289019501502
Mo 7.4438438436642755 9.879579632320189 4.03474851315174
Mo 7.886610341377121 5.959405912035367 10.405979285442159
Mo 3.9855398298911133 3.125663146200739 6.51905846357513
Mo 5.20433676926349 4.3287120603243405 10.360191399114724
Mo 5.877507836831814 6.006932833858936 8.3640718875994
Mo 9.306763789241604 11.086219596450285 6.205569342735221
Mo 4.829160415123153 8.692551197978123 7.9584536636196255
Mo 5.7842817595588985 3.2302836787304745 8.935667018502295
Mo 7.9558352492182935 4.180726960801687 10.847111308785943
Mo 7.820264760919207 7.643326854596027 7.792441398505221
Mo 3.6252004492425787 4.611830361616041 7.469699329994568
Mo 4.332890294329166 10.311104655129386 7.216705852062527
Mo 7.109040440251899 7.492546947568086 3.3327336398505576
Mo 8.435005443808643 5.953685243665584 5.522391030861826
Mo 9.681783986158209 9.839815202488543 7.561291640399342
Mo 8.238919096429258 4.7835929135900725 8.102426173365867
