26
Energy = -232.00505782 eV
Mo 9.48205889578219 8.985335845442883 7.673558308084521
Mo 6.100304609139309 4.126691343319423 4.097174840365583
Mo 4.046483555576623 2.8206466985395937 4.218749483362109
Mo 6.2360788471693365 5.555510801180212 8.498199293558026
Mo 4.701041543879493 4.2801917372217435 1.669971445250905
Mo 4.935407734401145 7.809153174734633 7.73287777351304
Mo 7.082124294489106 7.205618606706101 3.760763598583176
Mo 2.169391214972702 4.52663623794683 5.39076002128682
Mo 4.657701778729151 8.379726654594014 4.699701668313911
Mo 7.796745064884495 2.6117269034483916 5.017538982801192
Mo 5.944447361655858 7.102370671487179 10.387476945231622
Mo 5.374140254955054 1.8500624646082757 5.563041301893157
Mo 7.0193056469587685 8.527508955054753 6.094757555014748
Mo 9.143302413947504 10.201562756268633 6.3371172611962265
Mo 2.1008183877237863 4.173104618953111 7.361509029833039
Mo 5.99092087872505 6.162198552204892 5.882639014395863
Mo 3.7908268498545517 5.858823858266649 8.68965195586127
Mo 8.350422018707421 5.436903865738568 4.80334067152925
Mo 5.955234265827094 5.581844274555764 1.6634376534327988
Mo 9.161954576672864 7.784160692963092 5.0835634193159915
Mo 7.338021476556788 3.6855119936000755 6.810017495140543
Mo 6.9905614417507245 8.215052689663793 9.101895337384894
Mo 3.3240427675824926 6.495177433756779 6.310088969327844
Mo 4.335070158156945 6.483394654340754 3.8362074933798342
Mo 4.624719700814181 4.038686826878515 6.635883065984948
Mo 8.326357078227007 6.442308670084104 7.158022466105992
