27
Energy = -242.64545873 eV
Mo 3.5572616617889454 2.8375204628522694 5.4845004065999206
Mo 2.241660019252533 4.811339363348273 3.6900952246517558
Mo 2.184093849843248 3.984962294835722 6.514062012251351
Mo 4.74136059125506 3.840707260489907 7.499238117431708
Mo 3.2749974463760014 5.685008486641852 8.093130733226605
Mo 3.061069611656144 6.36256752800232 3.0919757408752306
Mo 6.897193476870238 3.358517156007832 5.545571897368579
Mo 4.904429767158093 4.8840424877138355 4.502708166412616
Mo 5.0635908974179245 7.632818677856983 8.489431024089784
Mo 3.0693629985788116 6.535554326175422 5.841952975729335
Mo 6.078493845660228 5.615722428469724 9.5276415058338
Mo 7.294861608725487 4.4015179869299645 7.98920965170724
Mo 5.596824660395467 6.093080268074499 6.651975206438664
Mo 8.824485767999038 3.5088464678211424 5.591551146623325
Mo 7.447396587445065 4.879787026480694 3.2838690345700132
Mo 6.111658993601741 5.86868075254279 2.367069106544716
Mo 5.194470138348174 7.664931720967595 4.434571022482487
Mo 4.3144008171909665 8.670828771047061 6.256490856597154
Mo 7.069876106711289 9.66117914747771 8.646861005477227
Mo 9.824321263619126 5.306277680644101 8.005499789341597
Mo 7.800975619804292 7.0575595590582365 8.522863383526092
Mo 8.24575286077983 6.057294040470866 5.853473208520431
Mo 7.941992178934765 7.7356726838578975 3.7100366371262434
Mo 6.979842532693322 8.484627683694528 6.168918750277168
Mo 8.770894991150563 9.583443490218226 7.869693910076739
Mo 9.246065437052287 8.45575906867446 5.003932833844542
Mo 10.281041219928566 7.028626097320858 7.329377823162388
