28
Energy = -251.6293734 eV
Mo 3.6953872115458886 8.030673070467385 9.504241232938133
Mo 5.381651495610231 5.523871277518098 9.849953908506775
Mo 6.621521285791194 3.289363924906787 9.701138474350035
Mo 5.461175458859667 3.3526614272191853 7.974985021092237
Mo 4.14774980170642 5.765234966391348 7.928411478755374
Mo 2.0039465279929107 7.413510939875513 7.122979979462627
Mo 4.1595138032367815 3.9434631887323945 5.536357228685952
Mo 2.24148075911135 6.225902985351332 5.749373453332409
Mo 3.0873175745630967 4.256869175555178 3.6765273248125503
Mo 3.867232720002537 9.452140199637514 8.25031129213622
Mo 8.328445682814436 3.4130863558710867 7.814815311107116
Mo 5.910601041289534 7.803629166254503 8.034082915582141
Mo 7.16496029703318 5.613422508433709 8.075709061634234
Mo 7.154078868837173 3.6127537589342724 5.835898322052443
Mo 9.877047107244112 3.5858353494888813 5.1835609987086215
Mo 5.870903088146511 9.938550221187347 5.9911252720320265
Mo 4.409245300038012 8.15525485340184 5.815945111198333
Mo 4.452702820190558 6.071424212239949 3.7275852184200073
Mo 5.941064119851453 3.5173079514956522 3.1791628317836116
Mo 5.7404547239357555 5.858856200620782 5.793692938350005
Mo 8.701480809404497 5.795060899301286 6.075962900209188
Mo 7.747499717779174 3.2195370284191975 3.1194517405577686
Mo 7.391538545248196 5.975963396648874 3.706458403309297
Mo 7.378535497465715 7.960849047366786 5.951258602495697
Mo 7.334167383674168 9.922809728178462 3.826005331762974
Mo 10.013824456592694 4.996065696806114 3.9164540846957916
Mo 6.030422027413247 8.394382687636151 3.565457685336615
Mo 8.81683319174002 7.778853001970869 3.906538975706426
