22
Energy = -195.42868174 eV
Mo 8.306131245607764 4.617579629812131 8.351271360493682
Mo 7.353136642177815 2.2199279289625955 5.417332334214155
Mo 9.05186881776348 6.421443660607167 8.014523411676148
Mo 5.5588207832523455 4.686263519544868 9.391935910621042
Mo 5.908213163213928 3.8556131266929126 6.743053358993353
Mo 8.283338082961075 4.704263184163708 5.858327137176225
Mo 6.394872410377683 6.543216140681098 7.630260139076151
Mo 7.329422770677106 9.050933051919479 7.991737947532104
Mo 4.290996370517259 6.161840358166992 9.479840322242675
Mo 6.890303158623136 3.410640190624382 3.8914902037310637
Mo 3.690669337641711 5.081077709564265 7.3358933128036545
Mo 5.942811354262209 6.082851145235336 4.980248224400015
Mo 7.905851329824414 9.675655256064012 4.940350465330707
Mo 8.302154138669216 7.432660844771964 5.626917015766768
Mo 5.475820215467415 8.861521063631697 8.515626825555875
Mo 4.484727819663537 3.845112217453316 4.959249840877392
Mo 8.050223182862151 6.032745719743255 3.7115407672939376
Mo 3.5610867181997916 7.208262086371453 6.596607754108138
Mo 3.234900084424211 6.080316102981106 4.7656586668167815
Mo 5.711006460950858 8.738842920890676 5.799430824653379
Mo 4.587659162985143 8.216966375286768 3.9181788124203707
Mo 6.986991053041974 8.379076202944018 3.335761139226011
