27
Energy = -243.23650561 eV
Mo 9.807906884289414 3.805499543970387 6.8301284426517626
Mo 7.9767417317161105 4.636879748788684 8.58093747011978
Mo 7.768071856269301 7.239585518122249 8.019480097210556
Mo 10.156182689052843 5.716141005029933 7.003049232231528
Mo 9.716850885632192 5.163637463905813 4.353911229919981
Mo 6.371390877019697 6.228759892079854 9.650396622258027
Mo 7.618833840743724 5.445902793148213 5.971831852813906
Mo 6.77598631084436 3.1840415166929033 7.335176516036537
Mo 5.816385300947284 9.017772783206174 9.355944152660664
Mo 4.94942839832937 4.387561904561069 8.508726853297462
Mo 8.737644675656988 7.959409994839825 5.332677941949899
Mo 4.201806207986312 7.479186855016692 9.743475779122262
Mo 7.819469668904588 3.0833640676812366 4.628893770011401
Mo 6.395685835251183 9.027029611456848 6.602557392842143
Mo 3.1039238243564573 4.765055491928256 7.113887793525984
Mo 5.217097428212664 6.7082698908321925 7.204613591037521
Mo 8.343149549761463 3.6820855237477152 2.811409914485103
Mo 4.261396554697996 9.38642916751345 7.670063848003638
Mo 6.110342177368776 4.9659525695394215 3.4853035282393514
Mo 5.213940742054072 4.377730378681008 5.735640845686534
Mo 7.385594177490284 9.23310065135837 4.257682724078782
Mo 2.8532339614031033 7.228468035034642 7.687474788132857
Mo 8.255580660259612 6.5060336870235895 3.3569802181307202
Mo 4.26826078954741 9.263331848984329 4.752489056866931
Mo 5.900240172947895 7.137014442902414 4.583867918342947
Mo 2.493382361976762 8.77042063145757 5.440463329435782
Mo 3.55292322829039 6.525320152539596 5.085210243661452
