28
Energy = -252.01718658 eV
Mo 2.9259396194828162 7.485654459628023 11.675405436664034
Mo 6.214034602089836 7.204727917731092 9.469886268499682
Mo 8.203746129129431 8.35402529602597 11.290146233178803
Mo 7.218168743673648 7.099432677102934 6.876533377261053
Mo 7.814607217243453 8.157643454476784 4.16392457154332
Mo 5.970331409352181 9.564765590077785 9.953749955481335
Mo 9.739469355080962 10.363225183138814 5.15084973616168
Mo 4.739437807751817 6.563829083714914 7.146232707296242
Mo 9.650612164014197 7.9747812725215805 6.599603311108126
Mo 7.461899347738482 9.741440131515983 6.0699765210467165
Mo 8.828007912546909 6.6507560627811015 9.040936111733648
Mo 11.775065719199533 6.907983351645477 8.106365453026983
Mo 8.582923947497525 10.211944748084187 11.043415905262982
Mo 5.912222726353523 7.561916895699507 4.710691223950612
Mo 6.715847527467832 4.441398497970486 6.32091573578058
Mo 8.674079448713679 5.93346037987315 5.035929731825465
Mo 7.915558308111291 9.389700428841984 8.511300346200805
Mo 10.871932707567568 7.653304271197031 4.2278583027070935
Mo 4.072824736692339 6.061933970002213 9.441172073018127
Mo 11.43241426329222 6.168758457415417 5.255905085027012
Mo 9.416463701985606 5.2573506179750575 7.235294661524394
Mo 10.208040839516798 8.725801088354546 9.198143180535801
Mo 4.6947664948298975 7.721491002201404 11.836577699711038
Mo 5.174719794644433 8.986865443950691 7.470823762889333
Mo 6.63609597543031 4.68448044754443 8.206357891189459
Mo 12.20267343111331 8.466110337702935 7.01457907556369
Mo 3.5977637712958677 8.34684450174365 9.071196038580513
Mo 10.076979861616433 10.596062055087527 7.0552494177579
