22
Energy = -194.41535168 eV
Mo 4.528161529214646 4.77526878916429 6.916517743328051
Mo 6.976540636685663 4.60179474519429 8.427173224589037
Mo 6.611890869691879 2.5954420176303463 6.748430817309994
Mo 5.640796634590827 3.906575122373627 5.0747188176013625
Mo 5.873931601581422 8.381606123060624 2.5726635483986713
Mo 6.698858962932397 6.278657598922464 5.799135846955581
Mo 8.175545380227444 4.173056792473429 6.266455450619899
Mo 7.392988775595322 7.586722554554133 3.4307950413862063
Mo 6.313005746706118 10.694116486580812 6.842465395863479
Mo 5.767992372881388 8.986458102173914 5.212828483041972
Mo 4.757280744988793 6.472655509239851 4.198439879004749
Mo 4.050293556207669 7.515229541271949 6.221431942161149
Mo 4.83791997758696 9.709091791427275 7.7423330082770585
Mo 9.769102190912353 4.5020446504087985 8.407910285110782
Mo 8.80728330176854 4.929853858054712 10.10928102252355
Mo 7.185427236720466 7.307067686588022 10.080362563569944
Mo 9.349062721922882 6.944224798797969 5.553929519630264
Mo 8.562439194884533 6.716198976625965 8.012521088348816
Mo 8.323389645069689 8.601543153258204 6.087380152526304
Mo 5.775556890230983 7.074589636007392 8.050219713853505
Mo 7.2418261008649765 9.02568262518444 8.960386155912575
Mo 3.08738613015739 5.091232225362994 5.214715135431424
