27
Energy = -238.64556144 eV
Mo 12.778913477042261 7.541438185781157 10.896561648354279
Mo 11.847346914452977 7.548699796148259 9.308665102236295
Mo 10.468169576965444 9.154459523543112 7.325194355722093
Mo 9.534018299170123 8.875020302793544 10.150970445647506
Mo 10.949995655201233 6.809436964215237 6.243269948028686
Mo 9.46801113985489 6.506111126598621 8.403756635655425
Mo 8.668339270447433 10.471364724511645 8.339773896608643
Mo 8.007864336386545 8.069286864008797 6.375097839904037
Mo 9.288496805063508 6.512515447203443 10.892156971911263
Mo 6.745420770809963 10.134821728752728 10.203732764571052
Mo 7.747864206927599 8.50911604647939 11.692957096569229
Mo 6.99945536476159 7.866138197706892 9.092647837970981
Mo 9.14759370015908 6.436063053449936 4.456363975307858
Mo 6.173988212650534 10.209395878352437 7.428923806936134
Mo 8.619341616514202 5.207222040958356 6.272959877815804
Mo 5.1161240558593315 8.213146173839673 11.168265922325915
Mo 10.205786649746411 9.000640094040234 4.980421787663057
Mo 4.479233626326791 9.052615320000841 8.90529948376326
Mo 6.682342167757212 5.953871046230871 11.065036736278037
Mo 7.564140481363868 5.005970607038836 9.18604746160523
Mo 8.421532128161513 10.499391270610145 5.700983492305118
Mo 5.041026988686639 7.813626145253506 6.7772231975872534
Mo 6.353295162004124 5.608501355219194 7.1623175092359
Mo 4.9509073318874695 6.401919906353608 9.291427081067273
Mo 6.668666044745127 6.748797243670945 4.674857252555929
Mo 5.940553451039577 9.420799090295736 5.032944115163929
Mo 7.8392258974768145 8.77611450866705 3.6452196679054842
