26
Energy = -234.02229546 eV
Mo 8.039216266145756 6.955859315852041 6.107268659275137
Mo 9.62319689182232 4.621655465504472 6.3620009121681385
Mo 8.581090948473511 4.917578138805879 8.004608936896457
Mo 5.197676859457161 7.623791205148049 6.24794481221683
Mo 8.744963299472355 5.929654391439798 4.1624362496031235
Mo 7.357803775541568 8.972966491890862 7.740037916106524
Mo 6.461345382202837 6.558997614075532 3.7405520201560307
Mo 6.9143136825552 8.834351759421024 4.891952776150369
Mo 6.743804999784428 4.550919160781536 5.685504668252839
Mo 6.140475329688908 10.253877603008396 6.98413211093912
Mo 7.935328208117256 2.586784246807504 6.690877759222467
Mo 8.524489598550666 3.075232830560046 4.001130849212354
Mo 4.711016665514546 8.55415013194401 8.927201762273008
Mo 6.996445125997386 1.8569466722942118 4.452108073656727
Mo 4.2385328601367975 9.917848018958987 4.772292322109281
Mo 3.487730737669345 9.28261348699332 7.684175170024193
Mo 5.974430312379628 6.1871283001890305 7.9890620119321945
Mo 6.2586324814046925 4.174084728256931 2.9764359675676735
Mo 4.314684128360924 8.52419116841258 3.6337549936554434
Mo 5.251400825048605 2.320121312544329 6.850927520238287
Mo 2.890492865278081 6.480968373585062 8.157016480380374
Mo 6.1316395455000565 3.384613276627944 8.372923786200657
Mo 4.261633798257073 4.797758725653102 6.841452496833909
Mo 2.5423177329129834 6.973259706409306 6.251256094640236
Mo 4.248323186748166 5.572716310631108 4.4849084419033955
Mo 4.60765079229497 3.2971197572545785 4.186504929811759
