25
Energy = -224.94412364 eV
Mo 8.620493020657676 6.7648312098599614 2.2938756163578176
Mo 9.070598818034155 4.998636984798342 2.561014076031344
Mo 5.785808190972633 7.828484751679537 3.021486628896075
Mo 4.2224865366607185 6.869892141687963 3.6750355647151784
Mo 6.822353356321986 5.777215230778012 4.193039773829979
Mo 9.444498326266357 6.579310535445759 4.893673746294515
Mo 7.808990103960837 8.508055613665253 4.9325118769344645
Mo 4.848538185050682 5.031687616949009 5.689637672908745
Mo 5.443150550473683 7.9330344900651975 5.767202345931508
Mo 8.843885047740697 4.424463209385514 5.304966083551546
Mo 6.605686512557986 3.410700266833807 6.199246299039141
Mo 2.787644458082441 7.970239828996098 6.2732224830218435
Mo 6.386411868476973 9.822395913450935 7.136175893669981
Mo 7.192528266295587 6.151245469607627 6.772953285646631
Mo 5.117058665057456 3.962019170338855 8.514755022378687
Mo 4.422131352554848 6.366423542238638 7.666743850390543
Mo 3.6105877267614774 9.095930358476696 7.530482793870096
Mo 9.89750664825774 5.864195299651927 7.6172748216695405
Mo 6.420469351534331 8.131681956731828 8.433830662065713
Mo 8.704384961114725 8.355116337002558 6.9460145029815035
Mo 7.883190392891541 3.892825177305375 7.927103565451234
Mo 8.859466108594459 6.396425761038773 9.089691581536536
Mo 3.3815567541806786 5.70677410501195 10.25606577142542
Mo 6.1963352841891055 5.317612381593576 9.52052114970613
Mo 4.1184647381106965 7.33502787220628 10.277700156494548
