22
Energy = -194.40108532 eV
Mo 10.114278199302326 7.963539710897525 5.972622678138447
Mo 5.864239958803333 6.6124018235336415 8.438459945035689
Mo 5.292442998229578 5.192734824725586 5.850415579170627
Mo 3.810212620866752 5.629475310571537 6.769573713744025
Mo 5.0052895756030455 4.036549478706268 9.306855595947868
Mo 6.640656335414204 10.80774640706773 6.660743800426465
Mo 5.264722800305772 10.687742649746275 9.390345550918724
Mo 10.787889670920917 10.431168586538508 7.230346931545444
Mo 5.283308602750935 8.191647693924546 5.871732423340891
Mo 6.967283014412195 11.129778759707433 9.677556413193608
Mo 7.769362051642274 3.859701138052678 6.406852374756199
Mo 4.3070106105815285 8.705436041691746 7.347992364696875
Mo 11.310036350940722 8.04633897720643 7.834215278536808
Mo 7.865964593607187 4.487229093693129 8.207476904674277
Mo 10.239957261453835 5.440919382735259 6.641423307848048
Mo 9.208507735524146 9.9164930674957 8.19085367626822
Mo 9.309373673993576 5.549158882202738 4.82439192821863
Mo 9.071397196843902 7.095137081662227 8.422139448101955
Mo 7.8545494359939285 9.768359124762187 5.792825711219216
Mo 5.203470659698748 2.999294409607858 7.873210403118627
Mo 6.808836301703114 8.472066340786874 8.546402639312735
Mo 7.7680810840452414 6.753941163254818 6.449459083423779
