20
Energy = -174.42784747 eV
Mo 3.8279822612539225 9.129871034514556 8.670413423883486
Mo 10.606389925965868 6.698401801238685 5.095399007988861
Mo 8.681321443260433 8.307130637403375 5.863257963140962
Mo 4.417014651524136 10.506063476659786 5.985959314748124
Mo 11.02304349478859 3.9497122502370634 7.810191405543104
Mo 8.354301440395385 4.562984838127452 7.585777965544253
Mo 5.2658075858209035 10.140246861441163 9.516787675906633
Mo 7.634868483844952 7.033413513150773 7.8011733406313475
Mo 3.9975795839235833 8.601539248866024 5.943266999340406
Mo 5.99440470790796 7.7570843669650476 9.814539175838691
Mo 10.362270079333184 6.56704637191758 7.138099454245889
Mo 6.194827194998906 7.05413101176173 5.545610844732407
Mo 4.947965079323163 6.567097852362105 8.076088069871853
Mo 5.630643111022699 4.339227088511328 6.409163064818349
Mo 6.345932037949305 9.115899030390256 7.336545201596537
Mo 8.300841667783173 5.5603503527811595 5.528058048887911
Mo 6.637963632788484 9.431817735124532 4.961466838481366
Mo 4.236229877298489 5.373946725196355 5.614947104143812
Mo 10.844408212634768 4.00993455902203 5.975762752103643
Mo 6.3175929843756045 4.915488700522066 8.948879804745314
