23
Energy = -204.97063484 eV
Mo 9.156875038712583 3.701758360046299 6.751035591539862
Mo 6.052717835754662 6.533135046995393 9.892451109913457
Mo 7.660238723027611 6.3966253177866355 7.673299402942164
Mo 6.709318538514098 4.257527668446649 8.322050125113403
Mo 7.866197587095188 2.346321826859276 6.941413331663537
Mo 9.356367328898477 6.340824208008412 5.7296021660661
Mo 4.702172466064327 6.0918176186050035 7.693576275377723
Mo 5.2060159919569635 3.5066241767738986 6.452156819954255
Mo 9.678895504724114 8.771822030280237 4.708516667024979
Mo 5.0571849850630235 4.82474806241376 10.059056020472516
Mo 7.1191610602746715 4.584424944616855 5.349582824040299
Mo 8.505408298200976 8.888588687344388 6.321201467335384
Mo 7.304634425409936 8.508646752532528 3.8387927725590583
Mo 6.386969274530427 7.081697173540125 5.608233343495906
Mo 5.887023158499149 8.8656649690409 7.7417336814664575
Mo 2.928771548956672 4.340023806007921 7.464796324278026
Mo 8.35408862265989 6.301400237840611 3.7264274302499523
Mo 4.247923125041122 5.279352100678471 5.082048319018379
Mo 2.2289665553540225 5.933868194554899 6.361343276555493
Mo 5.857644678054923 9.791163357381523 5.985496235223967
Mo 4.50528907712709 7.641106670544981 3.6467393906280137
Mo 3.938574059085969 7.932285238040191 6.206119078513509
Mo 5.736492135046199 6.184503370105714 3.02167164396552
