27
Energy = -243.01188067 eV
Mo 2.403589012912052 7.074028389161744 9.002226203558093
Mo 4.594814788496618 7.935829423900126 7.998928806937205
Mo 6.551518531954307 9.387573662048176 6.391002146382226
Mo 8.240345893027841 9.568347420319649 7.195928043887585
Mo 5.146079611360907 6.138429202551382 10.185352609521814
Mo 7.068286158220126 7.449420863996156 8.492743980665523
Mo 6.967150675977194 5.787317052752589 10.517955197487787
Mo 1.9916794535987996 7.392457162858447 7.072548695469912
Mo 8.800867349230685 8.938590608747624 4.1674037569646885
Mo 4.099426573313751 7.989217790429494 5.4637145040518575
Mo 8.333231503026845 7.0480987260097585 6.253023491382551
Mo 3.643671135963558 5.223778051800966 7.869205594414288
Mo 5.8436793437193915 6.191985266695896 6.5167960607571835
Mo 8.62725764321858 5.276801440240584 7.928259214338027
Mo 6.413895599977036 7.468753672010636 4.166855060451831
Mo 6.282118365166215 4.3666589508729485 8.273046082627848
Mo 8.499638574056645 8.186301318860934 2.4812428206189896
Mo 3.36195052415388 5.676283399672144 5.408501719943057
Mo 8.444643895543743 6.060717670361572 3.8511043565555947
Mo 4.298129243979358 6.5764234680867855 3.251982126698005
Mo 4.793163696433349 3.362049874323304 6.329934805467668
Mo 7.793461434819087 4.321770606733333 5.852506784539161
Mo 7.301549276878098 2.373811300708709 7.113706782649246
Mo 5.657743233017298 4.817713009913341 4.199813064058916
Mo 6.917999572611613 5.277060746594323 1.8445580270548674
Mo 6.098126138817803 2.1226903208538594 5.152204035005625
Mo 7.601924948445788 3.7220817466954066 2.7366282320846786
