21
Energy = -186.25414411 eV
Mo 9.707579340641841 6.182452246666495 4.375729947439608
Mo 9.705704319436379 8.677146931032379 7.702552779672499
Mo 10.312561928577221 7.820863956463484 4.907392082895668
Mo 5.6013780424241775 8.180422228483092 4.707091730018192
Mo 9.470943803038912 7.880528239722827 9.533959261214912
Mo 5.158494791024108 9.857496888871445 6.091783827303813
Mo 3.0347186528711476 6.170469386319009 8.070980477134329
Mo 5.703541261176817 3.4467975317594135 7.3551609956670525
Mo 5.363789444959262 4.867670726156818 8.743726964433902
Mo 8.227673921374175 3.986807340402085 8.292502488451714
Mo 7.769441383932383 6.427820286714191 8.463256871132247
Mo 7.147585274000817 9.11105753381606 8.005276353635951
Mo 3.905940693009686 5.739252797530894 4.258500174318463
Mo 7.4381808474757465 9.980601422726686 5.939226283185539
Mo 3.3526834520024624 7.315806327566915 5.487891336842966
Mo 8.182058988671992 4.3935347456192275 6.253915072269999
Mo 5.20901226148327 7.498617240817544 7.451622138410507
Mo 7.76045317239064 7.277377039767907 6.056930980734417
Mo 9.854328035717833 6.160073058926659 7.1428713874708745
Mo 3.1581595103547593 4.676822253767758 6.759979869785275
Mo 5.696448069022189 5.633770793558232 5.957689937104995
