22
Energy = -196.70764521 eV
Mo 7.558316739754315 4.971124435974182 2.542905507608502
Mo 7.974440283329837 6.7810141973675515 3.007767647055587
Mo 9.389731415326116 5.130493348878379 4.833237452147021
Mo 5.212836835875991 6.549684969400695 3.0184828141674624
Mo 8.532539589228074 3.52765360026142 5.280087345055057
Mo 4.8165063560317325 3.852225456092636 3.432690036954303
Mo 5.910856371058762 2.7305857561512314 4.438811564105503
Mo 6.5360698295757995 5.389080010582285 5.040235831848523
Mo 8.14701434723739 7.409311073193915 6.204976968477505
Mo 8.17282797672432 5.5632598699291576 7.294018957057185
Mo 5.891179191026491 8.046482383693036 4.784018054333268
Mo 5.9840205701424205 9.419118064105405 7.46510661002792
Mo 7.491208999933954 7.61097130614181 9.064066698766442
Mo 6.055203666348417 3.868623259266671 7.338985516452429
Mo 5.584157268775038 6.62128981651867 7.120504067720311
Mo 3.6598210427987445 6.375972282965277 4.770780778491245
Mo 4.309187319720519 4.229675106200851 6.3437622686156425
Mo 3.875251094671317 8.371459402791217 6.0359837837580335
Mo 4.783403714746729 8.645386257028685 8.749787870693243
Mo 6.560344025680008 6.059501874634144 9.620576940860065
Mo 3.8506027498658093 5.4091902963932 8.939446357057385
Mo 2.8761054262372343 6.468686378488289 7.7732589597491835
