22
Energy = -194.6318088 eV
Mo 10.377521236046835 9.863880650297729 6.460045637561201
Mo 8.369888971922197 8.071698464959217 6.263382753056893
Mo 7.164070504508734 4.216864554818833 7.087059485516177
Mo 6.024353235537268 8.580130189397394 4.860042934661649
Mo 6.470957534901569 5.387377685509639 9.20039491159804
Mo 8.384520710658155 6.748368761752254 9.965420037734761
Mo 7.261082928322215 8.358827128590098 8.499720594072212
Mo 5.0293261772967774 4.500617731935415 5.923461639252551
Mo 7.3158344311710115 10.424424725863018 6.358803429125202
Mo 5.441011344317938 5.8722256542313005 3.3768326216162117
Mo 8.827740464066832 6.088877007267558 7.795049520559971
Mo 5.056079395503701 3.2582237482588465 8.505095373740948
Mo 4.262222171910206 6.792455913413541 4.870827425766363
Mo 5.92939579837588 6.736146157672898 7.03198461251824
Mo 6.331410667394897 10.66348842910845 8.205117793407952
Mo 4.917779205143763 9.084937693256744 6.7991971710108015
Mo 10.058599149534668 6.201208833594306 5.134494185316854
Mo 4.090736534210101 5.800085978811214 8.428640632248868
Mo 7.185632756858321 5.977612545805104 4.970125537879044
Mo 3.2579573801330373 3.833518111767484 7.534077230504174
Mo 9.48253691579454 4.469461125709723 5.417745005453399
Mo 9.606178887851435 9.886196925370212 8.096491764407046
