29
Energy = -261.71291177 eV
Mo 8.829873484222905 11.882974777287256 9.119132402662236
Mo 8.114303831132105 11.127417852711796 6.784393444642527
Mo 10.229352359741073 10.111973486865205 8.02909687905371
Mo 7.398410451173187 10.766597204651534 10.587722986671867
Mo 9.642676448783693 9.731607995102397 10.331751284811915
Mo 6.433081148181659 10.652224852799113 8.350886880562129
Mo 10.007893313399613 10.08887734187695 5.179313825126937
Mo 5.873586769789577 10.159858909313215 5.543751044496502
Mo 8.032074464217017 8.657571969308146 6.8296820623402335
Mo 9.23818686674155 7.682100144026172 8.92131884606124
Mo 7.120602060030106 8.452013129291416 9.638591960093393
Mo 7.363211938669475 9.57080786712879 4.3174354524025205
Mo 10.77631528249208 7.890334559836515 6.88844033728591
Mo 9.974589439321527 8.102549127218415 4.629882284033528
Mo 5.550165433973474 7.553572953919596 5.254652460405487
Mo 9.264992731439538 5.05417982009791 8.86100412319435
Mo 7.566888746119804 6.774581089629493 4.788256341563545
Mo 9.388629537334815 5.82306183270932 6.6543605163300965
Mo 6.864043166953536 6.053252002599958 7.597205206835112
Mo 4.981711359152795 8.3839819774955 7.752404798280642
Mo 3.8042790281546264 6.732799214192894 7.072581133124299
Mo 7.333664383209165 5.867661979816555 10.348379387834834
Mo 5.299209515585718 4.951422992701266 5.6550440613055954
Mo 8.06696770487146 3.241537549191925 7.525796356254053
Mo 7.576439434258399 4.312725437515505 5.464363324650747
Mo 5.171426669371497 6.588933893847298 9.568122420214827
Mo 6.6210991546083715 3.8454977136508877 9.37804968573339
Mo 4.599129899656317 4.49987069447268 8.237365316933287
Mo 5.703932841275929 2.819105947367351 6.978812040274316
