20
Energy = -177.37948509 eV
Mo 7.381333994766459 6.642667484729369 2.6064461443860942
Mo 4.655057620892865 6.103595447039643 3.6598399064719302
Mo 5.766409830389075 4.523726164492245 3.8663529803796384
Mo 5.933669985712279 8.861052940072023 3.9569354320768033
Mo 6.433142106610761 9.354454041273257 5.6786072106989165
Mo 6.935179105380901 6.716443853012921 5.3226805176602365
Mo 4.043833822471331 7.745308138203904 5.950448863149464
Mo 8.577976903378595 5.563727424802853 3.492968810515071
Mo 5.184124244510685 5.294308479592113 6.254126639206845
Mo 9.453825407638199 6.301030188534242 6.439637589441675
Mo 7.829153944958717 3.911356225274995 5.983209043352914
Mo 7.322384959947467 9.04543289841375 9.701251449146653
Mo 8.620135260047498 7.847367574090099 7.150712194969958
Mo 5.854176371217015 7.613420770255339 7.985406041002964
Mo 7.228084078934249 5.537862236354808 8.009843821413552
Mo 3.4372869496241583 6.927111339979485 7.670982879555986
Mo 4.967367370220419 5.058186069262512 9.16178489502044
Mo 6.388492780655516 3.062019959586626 6.880608676610328
Mo 8.333688315194518 7.508503160158216 9.899419336008163
Mo 5.658766527872034 6.3865151852947815 10.332827149355401
