27
Energy = -242.87702463 eV
Mo 8.310942162453093 8.140970019128574 8.058358871593729
Mo 8.661169324634459 9.97320640387051 6.059517607630731
Mo 6.842256389028303 6.215987363266215 8.963612107124707
Mo 5.580975021689373 7.8978233892100445 8.010988644157502
Mo 10.160630401284768 8.158961787181154 5.677014613561495
Mo 4.348000835052289 6.157496911798087 10.204706381371281
Mo 8.793936665505951 6.2431714564418375 6.946765700352321
Mo 5.2985823008668245 4.0145706863712896 8.561987190141457
Mo 7.9754285923186785 3.8337630590492506 8.039527113669344
Mo 6.878056788928111 7.861458762244204 5.772825633805553
Mo 8.197049671010983 9.129522185920651 4.021447322719905
Mo 5.899293449004809 10.299137469408574 5.50957305450048
Mo 6.182046794943748 5.461459292701097 6.3966134380273445
Mo 3.0677535655149417 4.878491420971101 9.910923889568881
Mo 5.513424280014877 9.383425835409373 3.7487628107036444
Mo 4.2389894650116995 7.874393479963835 5.473228951543631
Mo 3.886151454868215 6.013938009214493 7.363328617376846
Mo 9.019626787885215 6.7691338818281706 4.359364566421083
Mo 8.215221411771068 3.553335832705774 6.03439208289373
Mo 5.7184758429647 2.931033570394361 6.441647984989143
Mo 3.8830335928714557 6.872558772557186 3.3542636126558096
Mo 2.99109322411628 3.467019174293204 7.239095592307235
Mo 6.096029000076913 6.5297940459358745 3.7055777302470565
Mo 3.992304220527588 4.996161892493084 5.069348104006031
Mo 7.831079043648299 4.403442277790524 3.143987015099879
Mo 6.240249028130681 3.7428499827727926 3.7767352911590275
Mo 3.439328618746375 2.551787494546483 5.473099839074557
