22
Energy = -195.58767687 eV
Mo 7.728187979812719 5.693935601614919 3.8320788921904074
Mo 10.117231341025079 10.413957007347197 7.4564090808709995
Mo 5.800375903273336 9.36549714804412 9.491873162038852
Mo 3.7669850106138374 7.407383072400401 9.111373215283752
Mo 6.838971495073894 5.760925491620522 6.409887865459403
Mo 8.802635153529131 9.103938866322395 9.600759792882522
Mo 8.6153779659634 5.161554729379335 7.554667455722696
Mo 5.402688982670538 6.164678925098317 11.106283801937995
Mo 7.345715137534828 6.7997941943489835 9.240634731299028
Mo 6.7347740830497065 7.765172567893852 11.440611916064487
Mo 8.912996038537687 4.612561917880489 4.901588395861026
Mo 8.575688347514733 7.87731371497904 6.999864428577441
Mo 11.006861635618764 9.298818327311405 6.342398260115162
Mo 9.656653074766476 7.3828260964236785 4.683983037669137
Mo 10.597743506944454 6.344749609661188 6.265880520075749
Mo 10.222979798426815 7.964016501626307 9.100522823553781
Mo 5.779864099530623 8.038935285618118 7.520461373285632
Mo 7.252630839229756 10.115749500474486 7.147602925802181
Mo 8.220348540049217 9.914152427966096 5.069877938243251
Mo 6.888895298089635 8.2276476472897 5.005335306289296
Mo 4.070507520153009 8.452125439770462 10.865472677060836
Mo 5.507667874701151 5.4753828528812765 8.728689521398422
