21
Energy = -185.75011543 eV
Mo 9.56616722710904 6.790106720537072 9.85426550822583
Mo 4.239288053154923 6.078156215510164 5.480630012690111
Mo 8.71339309702861 9.423493548348835 9.732485678807175
Mo 8.983294625976635 6.455001963932556 4.347368890869027
Mo 7.352978841700702 8.002746305915169 5.624899454270929
Mo 6.75886688893648 5.719930002004748 9.92465291428307
Mo 5.187068809919284 7.385391227057093 4.146616187903296
Mo 5.139259566664939 7.724265763236465 7.027346140085613
Mo 4.224839043948562 6.069561967098753 8.798132470784136
Mo 6.395342477173399 5.429599538391969 6.980151344629515
Mo 11.00565839888866 6.787642913058358 8.453199770247656
Mo 10.112255086744371 7.959159922138891 6.357654388611847
Mo 6.242001334007739 10.112368897102353 7.775722283047568
Mo 6.8501289942817625 5.565539898153749 4.519443581997175
Mo 6.120503419737171 10.322486955320942 5.907758766453786
Mo 7.753718994015524 7.473304474169398 8.124631000148469
Mo 10.605092117681584 9.31536479346576 9.052587796639317
Mo 8.85768200327096 9.704912422528018 7.091892013753276
Mo 5.488720127431627 4.157077676331182 8.875663912143173
Mo 5.7073008046535305 7.806580274110331 9.612310528701645
Mo 8.984120401251106 5.683359450886957 6.490287687111323
