20
Energy = -176.65138843 eV
Mo 6.570546555252446 7.883955436669475 3.746439510083855
Mo 5.3180536307572845 5.214869737323191 4.555655499996449
Mo 7.403831524975018 5.5701440428176445 3.987391645911859
Mo 8.001591565271829 9.139622282750466 5.006033120784264
Mo 9.269326717712435 7.13539795098943 4.890356453764839
Mo 6.772814904306334 7.020786870349665 6.213722214520128
Mo 8.771658688191549 5.453140022016896 6.695998188999546
Mo 4.3402909144120585 7.328666541577098 5.664690179236201
Mo 5.482101302430481 9.62730581879731 5.892808925086172
Mo 6.4992927222865315 4.34950843177347 6.529882393002166
Mo 3.601037293421968 4.939503924776476 6.9500769493764
Mo 5.18489304682101 8.79380123793293 7.776571331539287
Mo 7.85594020061889 9.29109983709929 7.575976486878457
Mo 10.060791264633863 7.911330816038128 7.240004248917269
Mo 7.3954171107160604 4.476599302174559 9.187603684701607
Mo 2.8130469503764357 6.620711400643147 7.61802928609404
Mo 5.71565248991755 3.609621357392395 8.943024070336655
Mo 7.7234473048172365 7.341740551689146 8.700281643156188
Mo 5.389289522048953 6.157125039474674 8.318131245775149
Mo 9.97839363103245 6.282486737715758 8.654740261840514
