26
Energy = -232.97812951 eV
Mo 8.725478343148342 7.3724185169278575 3.126714351357457
Mo 10.486635419228922 5.575169788625091 7.355384328869997
Mo 9.448648295945574 6.345242167239725 4.4522641723022875
Mo 9.070072006480132 7.618410320555841 7.1470625540788095
Mo 7.7991297967503055 8.87863822447191 5.328682460280327
Mo 6.947169187787278 9.650152677439918 7.070939743446346
Mo 5.731516655164116 7.966240768465155 3.0572175897432943
Mo 9.418658415579646 5.52495848591009 9.106658636388476
Mo 5.168557306092447 8.412341339965554 5.355620457886532
Mo 7.6525013080190565 7.500499941300972 9.116010850236599
Mo 6.689405012786236 6.032710003576618 4.34583683843806
Mo 8.221707221719573 4.8547251753580944 6.650650967683857
Mo 5.158671468630247 8.411931759291296 8.53511659454754
Mo 6.5535469303445515 6.784331288822947 6.839163203931086
Mo 4.348153269076064 6.036476026192794 3.0182996328674223
Mo 7.776162114763095 3.527697158398885 4.4033370725346535
Mo 2.5597568780187885 7.785727983614367 8.94105004961998
Mo 5.444337954852837 6.802373186558443 10.20063351331591
Mo 6.807456268964196 2.5969280537325674 7.084152325267873
Mo 3.1505016562735375 7.4737770474370855 4.18630342857629
Mo 5.848082805943466 3.5063607178991543 4.402446133068947
Mo 4.397411409697461 5.875408083943795 8.080585856302013
Mo 2.6660537671671034 7.880593222495173 7.1125772956863775
Mo 4.24438957966189 5.690369199627761 5.6047525455251614
Mo 6.801458147319256 5.045929603811019 8.862916270707116
Mo 5.1486104675127295 3.4120371145478963 7.242873013154294
