23
Energy = -205.54169789 eV
Mo 7.361627642618177 5.4769518386996925 12.142228895584283
Mo 12.123309451323934 9.409643359989147 9.965317522928448
Mo 5.218073648754993 6.335712799823163 10.145837883044004
Mo 10.926251987655041 8.228910503185647 7.315163897297694
Mo 9.588359041186589 5.820688703754967 7.5908172774547396
Mo 9.254886982813641 6.4385943698633215 5.794968942063087
Mo 7.2696466619227955 8.502006411948567 5.240318351600606
Mo 8.398219617771337 8.536200574541198 7.589491975506114
Mo 9.636187309323663 9.384704962428591 5.316383894265381
Mo 6.377384185799138 10.156345142441635 6.62116923959535
Mo 6.805770504282396 6.494614921024765 7.0328185444928675
Mo 7.64853430529639 6.621428743666941 9.514984025776531
Mo 9.960287354744013 10.343295117801121 8.943170159402165
Mo 8.683668949573077 6.761789655540486 12.10416598081234
Mo 8.02621849909972 9.214094105987218 10.435990196749763
Mo 8.713383550708103 11.065859523074336 6.639564058806449
Mo 7.182520377240326 10.703715605216125 9.105531600915365
Mo 5.798208216937815 8.454515833144798 8.810590992327965
Mo 5.907228788624363 7.696909604738231 11.483921970098988
Mo 5.02038896844851 7.941852475722129 6.650140270812313
Mo 11.21452961718885 10.604729551825704 6.980461567575314
Mo 10.907315953327691 9.27376108499172 11.465288418486368
Mo 10.132153377035186 7.6329018398743145 9.694997839342088
