24
Energy = -214.02264316 eV
Mo 4.942241595006078 8.659676336765513 3.188782755526639
Mo 9.806091558277464 8.809704264401145 5.356754178662833
Mo 10.065443602587166 4.294756860093323 9.153482530562988
Mo 10.575348058501469 10.303274226519669 6.149967356943152
Mo 8.947012682066426 10.303687847805323 8.395750383401046
Mo 7.712535809951806 10.336243893800575 6.189407607858834
Mo 7.430652156856417 9.83408746982322 10.018928595213811
Mo 6.856434666305541 8.205267405389952 5.068641665329975
Mo 7.709805953754549 7.775143359017503 7.738526596578749
Mo 6.110809363989958 7.665811635343074 11.086808012623736
Mo 10.364800504180138 8.32286474293449 8.102065329018767
Mo 4.1560244407958535 7.543642792416917 4.41511993583129
Mo 5.031116133345961 8.154365193056384 7.085957542785708
Mo 9.032085730865523 8.018826507554762 10.151878889439379
Mo 8.465031446976068 6.371618584668756 5.187943170920055
Mo 10.796456476500554 5.8818668907535905 9.702593268360575
Mo 9.953762518112432 6.186750170879938 6.8322171283742605
Mo 4.854917474899559 8.376367119889327 9.923943006468475
Mo 7.928154144260768 5.020693216955959 7.588777099631828
Mo 6.087659487902977 10.219521236999062 7.9793983519580145
Mo 7.858795355395989 5.8870731659833195 9.85216762765378
Mo 5.594007951357401 6.071270227104832 8.71315113424401
Mo 5.99289170182213 5.832454520806528 6.4286583533582915
Mo 5.201147124391617 10.067764149407346 5.578436734671994
