36
Energy = -326.77137294 eV
Mo 5.869316359582364 7.813203065745537 4.876604206105325
Mo 1.7827596237818604 6.473492056374466 3.195365542525928
Mo 9.896349797185621 3.204279684658589 5.411001781171408
Mo 5.534434012816932 5.635701446829639 10.750347188833071
Mo 3.812281491144358 8.00229561211524 10.326284921625417
Mo 2.027526422495721 5.291233960337945 4.554794362579723
Mo 7.566441366277396 5.965648027655387 6.328185852405712
Mo 7.373519601820107 3.350285171303956 5.092060017235932
Mo 8.109274100318007 3.7701603893974593 7.435265646163636
Mo 5.753243133155859 5.241266340499015 8.327862175451388
Mo 3.3401799766991798 5.4094990803929575 7.171260419621552
Mo 7.58525532477479 10.172937938679725 5.514778986995336
Mo 6.099878737861414 9.648384914285597 3.2678665244198033
Mo 10.230845378390356 5.149344480059471 7.162084764034508
Mo 8.401731659971713 8.601927200598663 10.496820114527486
Mo 4.222775885808242 8.29681703658474 2.6894739898396494
Mo 7.020412849724038 5.481551436780677 3.694418821683449
Mo 7.952329358611712 7.054604539973433 11.436746888701459
Mo 9.760134440199911 7.234423354273216 6.154795044347519
Mo 5.407990694960924 3.1157784790791947 6.729850890316258
Mo 5.476161227969131 10.033945953117783 5.935708188594596
Mo 8.651089921559008 6.494648776443007 8.695260379524305
Mo 7.688399321087028 4.269839969065213 10.220299057330735
Mo 8.602440065465357 6.5797389259037935 1.9425223568682364
Mo 6.420407651169102 2.963376064162184 9.369815485858473
Mo 9.526510634276272 5.052164894999275 4.414829503017779
Mo 3.3982315698867738 7.4461418455211135 5.372157481574023
Mo 8.234221732109152 7.914405852005268 4.140032818370785
Mo 9.70510908983769 8.648552860926923 8.111445388521934
Mo 4.508521896407686 7.6050837313840525 7.47542115919986
Mo 3.2141835048243648 6.2045748281849376 9.638406628683478
Mo 6.8438537546691975 7.4881359540789 1.7689285696324708
Mo 7.374488637457349 8.575597050917036 7.318524695836219
Mo 5.024375393604565 5.002773050111609 5.4747153675820375
Mo 6.101634578120237 7.665944030452993 9.515049851469884
Mo 4.517459569372415 6.176010760496027 3.024783692746463
