39
Energy = -357.94027524 eV
Mo 6.559624425734874 2.8727464613839166 0.893055484245166
Mo 3.8282096902689497 3.4001898427486683 9.112523378863061
Mo 4.61469846678852 5.2255640990791274 0.35944480080859903
Mo 1.9999290062453445 4.79102365001404 1.3227810022301147
Mo 4.788884076648585 0.746147362084998 1.9289687155806505
Mo 5.865788238062857 7.85000910823461 2.4957259296423993
Mo 6.504920526644812 5.010710888399946 2.641556919666254
Mo 4.158934502695547 3.284781756691149 2.333810043245801
Mo 1.5128988764426734 2.200531630509192 2.103243311221618
Mo 2.519211988774931 7.402589365991894 1.6239549797439816
Mo 1.2453225973000128 6.643365929444671 3.0807188739403433
Mo 2.114489361270527 4.122914594489141 4.043405292331424
Mo 3.406090595038873 1.5219538402544661 4.336516821343903
Mo 8.243362600098425 3.433106112476029 2.323941268015736
Mo 3.95256904174197 6.0102292603128324 3.030659130260387
Mo 5.859612798558083 9.138233174025244 4.3806253222624525
Mo 0.08960805874166963 3.580198959398652 2.640200968011385
Mo 7.1186535729138996 0.7851824776523086 1.8350225595815464
Mo 6.379242972257716 2.1962299378308368 3.827749737001133
Mo 7.757171284200129 6.932599686841641 3.4029268409977975
Mo 4.694909093045562 4.165874441075878 4.812955101351169
Mo 0.7703254763910616 1.9746232620046194 4.976309699938322
Mo 5.78754676475256 6.67820717409313 5.114548448040557
Mo 5.1510684434485325 9.138233174025242 4.056334182865991
Mo 2.7483036985954605 6.22971861447029 5.702955582480933
Mo 0.26029468920447885 4.590033596323429 6.037099827068567
Mo 7.339015578801355 4.410009704290195 5.152976330749797
Mo 3.5571893284754252 8.453399782163938 4.234078229179917
Mo 7.610669589962811 2.085934612341768 6.023428739888714
Mo 2.767110788613116 3.3566925869761386 6.716404121834078
Mo 5.1652120650313424 2.068455529594099 6.329085955402766
Mo 2.1741150347049185 0.856423056039114 6.319483464323363
Mo 4.004868713392408 8.102248218246935 6.445971267517565
Mo 7.169131789012207 5.895655194991094 7.077688378947351
Mo 4.739577671257739 5.196797142778634 7.224832832259789
Mo 0.31917760884450624 2.92853178108964 7.389003134367914
Mo 1.7664180557124685 5.453719100821442 7.732613247727038
Mo 7.046188078636011 3.5867909378741727 7.895921193727692
Mo 4.623151098716624 3.1139414358035924 8.475076366203355
