30
Energy = -271.095859 eV
Mo 6.607861051843222 7.527429123477082 1.2038208670635426
Mo 4.74150752569039 6.13612735247656 2.5010633380339584
Mo 7.459124398180769 4.523140561104294 2.7632983788493486
Mo 6.753966495793355 9.460154154697783 1.8939441541784774
Mo 4.318329153538894 3.51368698784343 2.928144234578404
Mo 7.156066891502441 7.232078613481154 3.650803812421895
Mo 4.80091268768316 8.665029886350197 3.1413922709509636
Mo 2.894682694308528 4.3796904735062405 3.964586370810614
Mo 5.527014982286661 5.25811720695886 4.591501094124297
Mo 7.291218423831911 3.15072767375642 4.026018804462552
Mo 3.3841257955635515 7.05693135739504 4.6515112109304795
Mo 8.234722524780157 5.4924353159128705 5.377827527727321
Mo 6.548596028905062 9.352996247527766 4.57824368460854
Mo 8.329369792347949 8.318762029569745 6.451619965583994
Mo 4.612641055668155 2.8728213430316223 5.843051660879294
Mo 6.652497366470828 9.01845253690998 7.611236823518537
Mo 8.595377006657808 3.3390448150067775 6.695157702347132
Mo 4.035717517245426 9.433895053325056 5.931998963379886
Mo 5.740119456310901 7.269517800666584 6.1426945481106925
Mo 3.532437783413342 5.454659491008504 6.556425765493519
Mo 6.211177557855799 4.55438317935347 6.899145182987348
Mo 6.920689169867234 1.9289106932238165 6.7267241680761325
Mo 4.211014584126299 1.451980417455428 7.628631290916076
Mo 7.898045891805214 6.40564636656746 7.683155800105743
Mo 3.3893963221162924 8.200723749893216 7.255088703597579
Mo 4.35665404919882 3.7826685241262727 8.576083425223581
Mo 6.908467126565053 3.573120993677461 9.023460645163901
Mo 5.155179766536147 6.407239589146007 8.817518926093824
Mo 3.1742450074742763 6.063502930696862 9.130002945373674
Mo 5.9433936217149475 1.5606772611364383 9.140399463690795
