31
Energy = -279.36741444 eV
Mo 10.640921800019475 6.495248516039632 10.327189408195542
Mo 10.50070723045515 8.427050144481228 10.191488767183621
Mo 8.91165514978643 9.226255048355643 7.7222324452289195
Mo 9.844970422225918 6.859431328530428 7.931148396670758
Mo 10.672834928439368 10.45664127526786 5.943971566145678
Mo 9.97289810131974 3.9477889706964824 8.404313746602888
Mo 9.309033522166395 8.14966458845353 5.705661105284412
Mo 8.443450288194676 5.298148649997951 6.369477692656049
Mo 8.058375539857542 7.77431484843957 10.045262619386449
Mo 8.997936544565944 10.933432296893907 5.343584546295349
Mo 8.416274771320186 3.069382646364272 7.713155836247061
Mo 7.999862309000896 6.312920523616758 4.060605613285906
Mo 8.139010662904248 5.45023536617892 9.368413658878083
Mo 7.0560775999479315 7.39784120600159 7.433457516558047
Mo 6.397362360637873 4.859220631749451 3.1928179938260812
Mo 5.265943771603086 6.7396146105557495 9.430997955975526
Mo 6.968085685812198 3.802573138969371 4.960288976250694
Mo 6.104121001267095 8.89114995538232 9.164910796198527
Mo 6.16907240261822 4.90697874803605 7.927137758974797
Mo 5.756477072331205 6.258045732423021 5.452176400740695
Mo 6.908645662131259 8.930589153240916 5.279555398961992
Mo 4.572458684835328 8.385572770913317 7.017408547023666
Mo 3.8363929025026717 6.169564511930576 7.1825357638872065
Mo 6.178425996127464 8.025318053112567 3.2959163797218998
Mo 5.434590129013599 2.4611892101454225 7.174862581529077
Mo 4.510968676953703 3.5631934815020077 5.942985320157077
Mo 4.189169076042582 8.127046918830297 4.519633948739989
Mo 3.3708084441212263 5.558390561546883 4.267373232070798
Mo 1.880469064561555 8.27012240135157 6.292089770892171
Mo 1.4335234372236993 7.812210860547258 4.577985221652832
Mo 1.93244643955823 5.313833527991451 5.634330712321805
