35
Energy = -321.33300662 eV
Mo 5.98188007792118 3.6052348039223587 1.3752673417077619
Mo 7.956327514784154 5.8082980729648 1.7318158844812443
Mo 8.532314013216872 4.027024245274195 2.900239754376459
Mo 5.150381382868403 5.342837035827871 1.3768014008051361
Mo 8.988597544217573 6.768898623440495 3.5883239089880465
Mo 6.23326674747304 7.354189152277004 3.1580220400654926
Mo 6.607462570399782 1.9115382220673378 3.663179197951706
Mo 4.276083482284431 3.5642096477592595 3.4188858121264567
Mo 6.365103885252063 4.856785719421265 4.010759877388979
Mo 7.633466203851664 2.285386060747556 5.156831463877392
Mo 3.8216046360918647 5.973418769778495 3.732025388288383
Mo 7.039681015129391 6.840462195024555 5.745119549117557
Mo 9.540427273310987 8.096534035349032 5.716354455452285
Mo 7.765350775658974 9.055580382430763 4.602879334119661
Mo 4.974139850024696 3.1229943700154164 5.809148746752954
Mo 9.033696527227105 5.005359972616065 5.282318752594211
Mo 4.773659740514583 8.145273392511836 4.854333490769577
Mo 7.162854814824553 4.369322909538319 6.805812450150685
Mo 6.067526401033317 9.322545989798867 6.667136676782483
Mo 2.3031902239610913 4.078017352154459 5.316272937796346
Mo 8.865236110773216 6.30675285541231 7.84635468442412
Mo 8.177845809902484 8.872264498113378 7.526970067338734
Mo 6.121764599279568 6.893256745837073 8.222400786563236
Mo 2.075294995226503 7.114833249708396 5.493304407660648
Mo 4.505817528832665 5.720726502618551 6.188364074856913
Mo 2.7308235757631287 3.682309085497917 7.149941778948046
Mo 5.212572644969079 4.120788786132042 8.569430038271339
Mo 3.857474319116608 8.211951141162885 7.382935433790119
Mo 7.778735494262551 5.071232434387097 9.293927406081252
Mo 5.613493115385884 9.314664939124244 9.363504568669045
Mo 1.9591980511199354 6.483464416050521 7.322398915615545
Mo 7.93385681817066 7.798097380906694 10.188631428664118
Mo 4.042571470625385 8.148464943705495 9.84302458247591
Mo 3.924744662989663 5.461597028014397 9.191904829140743
Mo 6.470573135253184 6.7174530700561705 10.876137251714734
