34
Energy = -311.1650298 eV
Mo 10.042789869889367 5.661107942086147 5.082714510462301
Mo 8.913656557616912 8.570556565660224 6.085786882531478
Mo 9.306650536748274 5.92502880346972 7.309975333301731
Mo 9.726438755494906 7.61590141423654 3.235013657693065
Mo 8.93810004840149 3.5989776939822287 6.848444005504389
Mo 5.838036947495548 7.267077993036049 9.928368767120563
Mo 7.810341644948615 9.412000255335293 4.540307034382016
Mo 8.247322587374217 4.021395854158089 4.441616903177088
Mo 7.866488919007978 4.901743227020258 9.320228919497703
Mo 8.998593433751076 6.003421091834077 2.438196225501239
Mo 7.6917272209784455 6.588714754774587 4.975465557071049
Mo 6.021243914470975 8.59620333690317 6.152015770443217
Mo 6.665511963410351 4.723617263904689 6.6774798938211966
Mo 6.794108028454375 7.643447555698351 2.8114097389448713
Mo 6.899493990768839 1.9675845929135367 6.116962933272311
Mo 7.116975769392525 7.2500582734528995 7.868074349468714
Mo 7.368943296406684 2.92191029477682 8.819065002885077
Mo 5.000443043256036 2.64120498544991 7.332757925813373
Mo 5.2597323517853125 4.6244723044729685 9.112474540041543
Mo 4.709961936695006 8.628053028849923 3.9267970223022797
Mo 4.5897333937305 6.452909206684319 7.445552031235258
Mo 6.307825982186052 5.2203722575396965 2.642566066651677
Mo 4.995243163157482 6.341314752175695 4.698384949134237
Mo 4.833525709384828 8.718796171418976 8.71407669769627
Mo 3.303717260061133 8.347037294517913 6.052972128460548
Mo 3.8789280576845133 4.076993740431652 5.802132469036607
Mo 3.1481694552999935 6.562619902813553 10.010209578625417
Mo 4.44048588687054 6.3791976793417495 1.8672611463601383
Mo 5.8564910173501135 3.318313097055558 4.460370999059171
Mo 2.9546236893979936 4.6070458251427135 8.043061990798497
Mo 2.4610105885263325 6.9509161883391934 3.5940781536121214
Mo 2.1623322779637895 7.314602182493273 8.592635123437063
Mo 3.355357543685082 4.820125225400091 3.1427634286710235
Mo 2.2714523354701344 6.26316124533007 5.782471811920717
