35
Energy = -318.69107289 eV
Mo 5.699713228526527 3.297366766934705 6.5539415219200805
Mo 4.093318141432041 5.568275273105058 5.360875758915945
Mo 5.418283754489748 6.432150360920389 10.050292477974187
Mo 3.536857585267884 2.907241033728335 6.0365764244905025
Mo 1.9671143774968836 6.30965220541784 4.847880950949807
Mo 2.193565409890971 6.585566508262531 8.783368225390266
Mo 2.0843819257618783 4.757397212913123 6.954914000027963
Mo 6.654664280463096 4.851714238703953 4.44521466912526
Mo 1.5426424790938915 7.577230819241467 7.254807600391245
Mo 3.5454596862952936 7.643053395686282 3.312371008680637
Mo 9.176138302204953 3.615450961888018 8.974145105837078
Mo 4.627226163468962 5.440081704606625 2.614631507671109
Mo 3.487759828384781 8.42475762420719 5.487536784531846
Mo 6.501521470608602 8.568645123692933 8.477091810497425
Mo 5.90559373585017 7.473353575498162 4.302785084731977
Mo 4.438361525592416 7.489807595242812 7.650773324486605
Mo 4.348409154565985 4.8797783201379925 7.910035395864401
Mo 7.876798927280604 11.025291235912233 5.567684835520278
Mo 4.735971390525981 3.467565378472926 3.748161210412529
Mo 8.027463400212909 10.797957111221665 7.441318924070699
Mo 6.048886870558166 9.251538089784157 6.03743815751133
Mo 7.143913667363049 5.885208481977936 2.0451601086991467
Mo 8.106052356281026 8.554128793092788 3.764082956067713
Mo 6.91372511197815 3.832222690467238 1.8704349245813618
Mo 6.7453446039552345 6.338080014920495 6.773147757879693
Mo 7.338048317626583 6.563412204280637 10.196583377651372
Mo 8.465214676916974 8.39948143555579 6.41985960778518
Mo 6.967370204533217 4.57392907673221 8.60739966795046
Mo 8.301865713410331 2.2879950152857234 7.708153876386103
Mo 8.695466710339321 6.616279339349141 4.520404361208399
Mo 9.140325629602648 8.1574111903613 8.817671278819446
Mo 7.908984302078236 2.5323374824260703 4.558767188288792
Mo 8.979272423614955 3.9503961780367653 3.421924180195328
Mo 9.226204054768978 6.253038306074226 7.796178558048703
Mo 8.659381945051011 4.171836088143884 6.252192901043096
