36
Energy = -329.60213857 eV
Mo 3.069298879395399 7.233984348843728 4.82462925148616
Mo 3.373748202378236 4.6580979659126225 5.768006023064155
Mo 2.9449683603871466 9.577807107516595 4.057627914527533
Mo 4.494862151848288 2.7748052114540167 6.65157928049576
Mo 4.609566231707807 8.92693001970865 3.1593209177957404
Mo 4.856834577009849 6.169665100895258 3.668603415978549
Mo 4.60533949953039 3.325515944631239 3.4776840303647143
Mo 3.8738583584969875 6.731454328096762 7.261983062567911
Mo 4.329239481659792 1.6438799208888648 4.102561971321801
Mo 4.524948497532607 4.5481424059119915 8.678979448175326
Mo 3.5641793633202403 9.356301544035524 6.818075358513572
Mo 5.654568013652663 7.82098900174007 5.574885591561055
Mo 5.820957876904988 5.057381963314082 5.923395523735012
Mo 5.500929280735423 5.553957647805616 10.94701974218808
Mo 4.988021977313654 10.432877303816177 5.690136677357153
Mo 6.549362939390112 3.39620272732931 7.803198276972101
Mo 7.238989041553197 7.265447116210241 3.4082308613686294
Mo 4.32313956024501 7.876211476141809 9.632666339316467
Mo 6.289126702183295 6.3215374575078265 8.303846348741121
Mo 7.148533060688058 9.870638405949403 4.127182645498428
Mo 8.265338926207907 6.553156320444377 10.268176685307333
Mo 8.126945073803912 6.649951273699017 5.968769050807287
Mo 6.797793833391422 2.516037042823153 5.1039904413739725
Mo 5.832106216588532 9.09191423522669 7.920212456497116
Mo 8.508794754688038 8.090142916965977 8.39752931968571
Mo 6.8898959438696945 4.267618309343079 10.329154910774532
Mo 7.277449070942319 4.851254816275584 3.8217732832131173
Mo 6.263597878949204 8.208109724530201 10.39274005678305
Mo 9.462517872205668 8.133095513014856 3.9704896122295055
Mo 8.471357900975281 3.711194129618509 5.7823536731312455
Mo 10.562481663662547 7.740792423094249 6.418250641305045
Mo 8.608315376035007 5.218208894850541 8.101156245334291
Mo 9.86741286486667 6.018578663580705 4.085572592216941
Mo 7.866619374835606 9.440021092470861 5.99435066201557
Mo 10.636484875102845 5.491231007033355 6.502122090045643
Mo 10.55702547705842 7.160782684121627 8.71373575141388
