34
Energy = -311.24923502 eV
Mo 4.819380566563988 10.913810902148397 8.912850940546646
Mo 7.188718607665333 9.121488457703343 8.843604720766384
Mo 4.171554307700415 9.40411578520866 6.301036593113491
Mo 10.42294723414786 6.80150842552066 11.938214841871273
Mo 9.676455186237979 8.88569298920921 6.988252774868209
Mo 5.878712650288362 9.591447033308254 3.8987182529216335
Mo 7.028720686639777 4.211463063914694 7.976459488837287
Mo 5.8648214130508345 5.388513704234386 7.0033851005915775
Mo 4.997257839227744 8.702891430216129 10.663536069101934
Mo 10.88377865809386 10.423342987813516 8.464298801105048
Mo 8.62543008496059 11.157894654710429 7.580835871349076
Mo 6.460195890369766 10.052306075076784 11.267706310733272
Mo 4.855847738647924 8.139798691738992 7.881752715522614
Mo 8.539545166523798 5.677771311957139 10.092562686163507
Mo 6.898757584019905 8.289708571583793 6.071625698719602
Mo 9.113637282240687 6.9665640096120605 5.006305434323372
Mo 4.656902104698825 7.0768546695349865 4.9736369250849854
Mo 6.449632210064121 11.929226824407483 9.20053048750024
Mo 10.83576204734694 6.317810313844048 7.439630051154651
Mo 6.3523293085637125 10.702676837453605 6.633085509806621
Mo 9.666712418622646 8.154298487249523 9.609845183312734
Mo 12.34658525733845 8.491696618102702 9.388044035176787
Mo 9.333097679541641 9.3068914151684 12.086699015623946
Mo 9.95658040330165 4.638011811963164 8.055434027406761
Mo 9.056576785332332 10.694356653370923 10.166932536884618
Mo 7.542896240033876 8.817745770845352 3.340963383907616
Mo 8.53308244413455 5.2158977824368655 5.595839837973795
Mo 6.1919203894108 6.291573838939112 4.192605769134178
Mo 6.2641096496956346 6.51821104010029 9.537302003664152
Mo 11.190224101893316 5.944579418931315 10.449447307843274
Mo 8.165679082366472 6.755344410074131 7.769268058321669
Mo 7.63304201097397 7.810435507796516 11.298023169377513
Mo 8.45589294630398 10.338898828108793 5.23966722590833
Mo 11.77216840030859 9.459593788269645 10.942337176732275
