33
Energy = -300.29435235 eV
Mo 6.24455865270349 4.855117379768977 11.781575977290888
Mo 9.936667946715314 9.597616676484785 10.007552180254601
Mo 9.14224255458432 7.479107779945378 5.162709841519566
Mo 7.8803264012626135 8.769157227187506 11.303760186340241
Mo 7.299195615573417 10.15297397969359 9.50110888507475
Mo 5.98122705727068 9.157893311117874 7.293659461851624
Mo 7.939473568440325 5.467682403928515 11.31691645938827
Mo 6.23541497109804 4.846397551082599 9.031213101898969
Mo 6.658825464606761 8.861414390619899 4.962845976652039
Mo 7.52290189094339 11.046090111679884 6.711658789603194
Mo 4.433217201986495 6.037667826910519 10.028427719385697
Mo 11.109980971491836 11.364167319945066 7.9803289963434825
Mo 7.476238856968319 3.92162877707855 6.447111042336648
Mo 5.959118295192096 5.098598648721251 4.358704332801974
Mo 9.37284309483072 11.829653617844318 8.634442557721133
Mo 9.08167543424994 4.776809743389567 5.5286109858753845
Mo 4.881309007118806 4.902924845985955 6.963345798440592
Mo 8.721188064132123 5.169543316137542 8.34622852669031
Mo 10.24557637545821 6.622656526476895 7.2230342654013775
Mo 7.252214017744534 6.61532522744604 6.570122826440757
Mo 9.748343313104378 12.757339112950675 5.917213196350333
Mo 5.022322188995753 8.67593600935248 10.30284447323209
Mo 9.648438705485468 7.22115351040533 9.765601979563096
Mo 11.333850745433987 9.024365745870217 6.3319183651469775
Mo 8.890163716789866 8.986662365934555 7.722512620278923
Mo 5.040977335336764 7.396621821113928 5.249027666964613
Mo 11.760789117328784 8.648788133796216 8.291148364167997
Mo 11.094183908353683 11.710625030927693 5.148927258855331
Mo 8.933269895091588 10.129756586467845 5.170865005253422
Mo 4.676262192523929 7.038980351568722 7.8430959114041015
Mo 7.152531964608708 6.376582673670304 3.6158672994347163
Mo 5.7746446663507145 7.559522975405116 11.867600473858477
Mo 7.148163971430548 7.359613629022745 9.245983806556344
