37
Energy = -338.74851657 eV
Mo 2.162832320208518 7.7462837649335805 8.614171158171175
Mo 1.5105953396756668 5.969315132722248 7.792545132664358
Mo 2.301335728014789 7.85188366723417 5.898307659335396
Mo 4.415598046316912 8.906496295800311 7.450433751892811
Mo 3.97348545931626 9.354660705461697 5.095957518726986
Mo 3.3715684592746364 5.2274359915998625 9.260149746934992
Mo 2.765580509796026 4.574625780575851 5.16178498088783
Mo 4.76258724441415 7.184576194958095 9.50781644552702
Mo 6.528695001473223 10.205454395038 6.4049938745915
Mo 3.916860296083692 6.778401556248154 4.279338732423815
Mo 4.090367098501595 6.375894943583338 6.993353609805286
Mo 6.202915595264266 10.330219748655843 4.356755228690757
Mo 4.168913052047333 3.737421909384095 7.398316795528019
Mo 5.593588838569037 8.088605292123896 2.6817925777319997
Mo 3.9661648633607687 4.199644531174316 3.565609682526875
Mo 6.872682798261241 8.941900653663273 8.840713258625494
Mo 6.066342614539962 7.711443913075328 5.532024675886679
Mo 5.883091039809205 4.479584499708068 10.156632181544035
Mo 6.7779348746784045 6.1766826771679515 7.980833563197268
Mo 8.3331670743323 8.902904507492487 4.397596407972035
Mo 5.356836267275798 6.271685515005853 1.9846178238694452
Mo 5.557115343243739 4.635912163626978 5.585746294625648
Mo 6.633978079276336 3.5448769551010164 7.848054267040313
Mo 7.729352025524147 6.623169890502576 3.280699035291729
Mo 8.49386483282731 8.20258635121571 6.920734387430884
Mo 7.762058924444271 4.641449292103797 10.25555409517669
Mo 8.006643252034664 5.779842974201818 5.6525500542030365
Mo 7.149222649002851 7.550480278761495 10.494842957564913
Mo 6.963600923588206 4.26032039497203 3.242204738031188
Mo 8.936150800103016 6.908271721978737 9.052759758472446
Mo 9.062396322241478 4.385739342322272 7.7646995518699935
Mo 8.028009745196563 3.2533823283348533 5.502250830306898
Mo 9.911839083570422 7.363014585342351 4.597439890087502
Mo 9.21217604683679 4.309808326551552 3.649440904932096
Mo 10.448292183763657 6.087519215210244 6.911983835929054
Mo 10.665660685378885 3.4359610841118258 5.9751059423912
Mo 11.47981207522368 5.06385891352626 4.973504143584595
