30
Energy = -271.99402464 eV
Mo 4.559077704992508 5.380010436285644 2.884115083316925
Mo 6.5723032317233825 7.278246769016672 2.720181963862473
Mo 7.40647689238761 5.132511512262387 3.521343425072956
Mo 4.108862012869179 8.267533294995175 3.6469712784350676
Mo 5.3864885168361845 3.7301576987025866 3.865825263426726
Mo 2.881805401211518 7.003826562419872 4.567512317628135
Mo 8.676672946626715 7.81291099330291 3.6253917691507773
Mo 5.5723650229619155 6.362197711524213 5.147583374890705
Mo 6.978548068368668 8.475943979855929 5.2249771527809425
Mo 3.764587234949213 4.736224442136467 5.711339673308385
Mo 9.147389026662568 10.143115016521422 5.26668352362932
Mo 8.833998826452518 3.822930726039198 5.049788863404435
Mo 6.290162949254845 10.602512715519245 6.371554517169403
Mo 8.763046422634213 6.168235071931515 5.5798330764408135
Mo 4.343017470771984 8.79643030286774 6.114815459800613
Mo 6.646361577371558 4.165492403555149 6.296075862579698
Mo 8.87205948374925 4.375643985086117 7.591483184736271
Mo 9.616818916533528 8.714804422044525 6.367695455026266
Mo 4.341839771234635 2.4623787504295307 6.985763230832658
Mo 3.009432185799172 3.4413446886902643 7.947208889329105
Mo 6.94701411298171 6.644402283031646 7.510607228358533
Mo 9.199523651137492 6.481013970138888 8.432803903201757
Mo 4.066477578974114 6.6349773413847695 7.39790425932344
Mo 5.364045522956664 8.693476636580545 8.337039817736306
Mo 7.243072188108472 3.028410531548068 9.06510564246929
Mo 7.503393571193094 9.688681443703388 7.860015512292542
Mo 5.306172647553884 4.598053552089161 8.44818343957017
Mo 7.600941556019324 4.716119219929761 10.043059791075391
Mo 7.227410087947841 7.740595060305974 10.079212713041741
Mo 5.567872569587453 6.6990556279517 10.137161477959896
