32
Energy = -289.61383996 eV
Mo 9.009031500527982 13.684190017199633 9.491938182454506
Mo 6.070027681808875 4.6189417089453855 3.962973489493359
Mo 7.877896800779632 7.7365501923951285 7.825599891878945
Mo 9.910907900871292 11.38994655618591 10.94676775913761
Mo 7.806116095350334 2.842366645060509 5.664316603821257
Mo 8.50831465105526 10.255517301507677 6.453002192932009
Mo 10.311574139489334 9.03584784182607 7.76991254623259
Mo 6.699045543588129 8.311140434437505 5.4833668856232185
Mo 10.118070944631109 6.6997112686632985 9.321484403868855
Mo 10.202222442070507 11.533374030163943 8.539775615212982
Mo 7.489318205878569 12.214160732556241 8.146342908910013
Mo 7.127816880197279 5.609037444638473 6.456242685280846
Mo 7.643887730960491 6.960910481202505 3.807232547987738
Mo 7.788415404684108 10.418661322864438 11.592569109331299
Mo 9.100282610427232 3.4507262724623877 6.88131828636298
Mo 9.463930806407177 8.081823831344295 5.399783370975811
Mo 8.283368964918068 7.75945496415177 10.651194350852494
Mo 8.519575734651228 5.269787745999896 9.019272481996145
Mo 6.221134966695323 6.2549409214339535 9.481255622920841
Mo 7.657043109981642 13.163528259387133 10.847619382876356
Mo 6.125577377918124 11.266801643620703 9.940968225348369
Mo 5.898524720437223 8.54271213409293 9.93426491755143
Mo 8.86492513421996 5.231827714311157 4.627203801821844
Mo 6.244708563149209 3.8015667883218875 8.048613247868744
Mo 4.953012690134016 6.511251467875225 5.399126406122649
Mo 10.45084314242919 9.190133679943862 10.422627602048717
Mo 8.26597955641634 9.967518122183197 9.173542233802957
Mo 9.896110559318908 6.2529821912504415 6.688956112005925
Mo 4.588823158495491 4.999743247083369 7.673675064999331
Mo 5.106012357996891 3.657877422482752 5.344157743022224
Mo 6.103190440507994 9.959015713083296 7.421390299570903
Mo 5.035267483739811 7.782064514950581 7.67321266451708
