34
Energy = -310.62186376 eV
Mo 2.539614554213331 6.463876841647168 5.656567336116524
Mo 6.7697915233116825 5.0737900156946525 6.135564344882088
Mo 3.440990983633801 8.800495378659338 8.618187838323765
Mo 8.811255344650085 10.665608984288886 8.883664479445656
Mo 9.17556612014557 9.362379755603099 5.437330323391862
Mo 4.800832692692756 5.862918625551386 4.226301932989417
Mo 8.929573088589008 4.046989537698452 9.485386186107386
Mo 9.294570937132344 4.264907251689953 6.602206444382847
Mo 7.749723823191271 8.310843774858366 10.21180030096081
Mo 10.501814674220268 5.591329212398279 7.7225739442197465
Mo 5.594210895410426 7.778795789939196 9.427399000413018
Mo 9.743992745539538 8.274531355833032 8.080934829741198
Mo 4.643519468236331 7.95284166624707 4.268375736496024
Mo 7.272534922378701 8.753379538652073 7.269763502169475
Mo 7.808083563214542 11.335634069501934 7.155623297376676
Mo 3.012981601961 6.799712047429886 8.485573810376225
Mo 7.418609443599049 5.648838504767522 10.542101061697188
Mo 7.17062452774498 3.486579077256343 8.34160669727604
Mo 11.620698217100925 8.185417888572692 6.377727514095577
Mo 6.092906760836725 10.225126675871692 8.84458551117223
Mo 4.47653189063667 4.525881117986453 6.692978100898828
Mo 7.788091012627559 6.227599707666744 8.156839317930308
Mo 5.067260793256325 9.938309983464844 6.372965939431045
Mo 10.7340149867072 10.363389042222831 6.719482136708221
Mo 9.908841511473266 6.58089088870245 10.235750231161433
Mo 9.322384691219856 6.84194639482217 5.709045276575994
Mo 12.308184211629948 7.504150633760193 8.8534860000818
Mo 2.5416724865869402 8.363365439873833 6.073612530759891
Mo 10.186509392812235 8.799142540591182 10.615711201424931
Mo 6.6208147078923005 10.10624926183859 4.903778769294428
Mo 5.3371522670655915 5.196005910792387 8.759398461244059
Mo 12.10766621376498 9.492106100020854 8.934270685470302
Mo 7.0343179047185815 7.4276066434776435 4.9397356900245235
Mo 5.038459075320257 7.142293270828918 6.804202808368886
