32
Energy = -291.85305631 eV
Mo 6.211402277896952 6.60675501719029 1.2494277831981668
Mo 5.1173848552274235 9.03419542671731 2.9345135818510797
Mo 3.466472443265413 6.827752599526171 2.0307204753724983
Mo 7.512024182582903 7.702382747639379 3.6073432389753575
Mo 4.215037024077354 4.662466476676552 2.342870765694571
Mo 7.060784250529554 5.182879084454837 2.137634753586732
Mo 6.260672160695001 8.527751830294722 5.515723002925287
Mo 3.811187476833509 8.946782517456983 4.334098581290534
Mo 5.255966596640952 6.461794173106228 3.906173243097342
Mo 8.905915172765603 3.777564313408056 4.381955568495808
Mo 2.4478917536610325 6.252740733227131 3.964406944046488
Mo 9.078125223729845 7.978417471133969 5.9744358749438975
Mo 7.522758957682143 5.740811060017581 5.2558599899268295
Mo 3.5009565555684588 4.250550371099682 4.814441135912576
Mo 6.11611728931155 3.59246164056204 4.208240441426481
Mo 4.047741093061009 6.744401211069021 6.106696096066459
Mo 4.654939242385502 8.59783374136416 7.861876087488139
Mo 7.989416221671043 9.195202242936494 7.4456222075776735
Mo 4.95745333874069 2.1895667388614393 5.549405060507332
Mo 5.433854439032844 4.59429518517291 6.690660772509127
Mo 2.6762868746620043 4.703327884981635 7.57478398384123
Mo 9.361721524906093 5.58185787569431 7.028488283195255
Mo 7.96535226620482 2.954315180775227 5.943295467701525
Mo 3.1246573332265726 2.8631458537717758 7.363616023774944
Mo 6.744215779839525 6.889172276751572 7.486534729211692
Mo 4.434878387125274 6.669304201356559 8.7799566764212
Mo 9.057407779117556 7.224465320024129 8.63187757848864
Mo 6.5600153159655905 8.238689464468916 9.925053676815681
Mo 5.923623177567456 2.3017032937883823 8.183286503813882
Mo 5.074601361230132 3.799844232536354 9.229312292495385
Mo 7.562767615485844 4.43180816176431 8.241554226388294
Mo 6.846790216340553 6.355233916105235 10.191640132552052
