36
Energy = -330.35819963 eV
Mo 4.184227383293039 6.316519051532287 9.957790085903172
Mo 2.8784563914779513 7.714043597047472 8.423550755932153
Mo 7.345202286922626 6.520733505257052 6.039815469772762
Mo 2.742926214227255 4.112202048718394 5.0698025512024385
Mo 5.571889677813196 9.835409594440138 5.2971123803186435
Mo 6.842067628391934 5.13338710799478 3.716147539639814
Mo 5.655780544679317 5.489119567739899 7.844131896197157
Mo 4.627623205627517 5.769870119765479 2.275786524412188
Mo 3.374432926022406 8.061149114865707 4.124646442585074
Mo 9.031176146964642 2.9083761890849766 6.580381557478828
Mo 9.594036494374647 7.276148121970603 6.137367690161036
Mo 8.984519129386912 6.858135988169742 3.1575793038737006
Mo 8.603424847885819 4.724846795715975 7.718596627223531
Mo 2.2730853504402746 7.215001102230891 5.394946517655703
Mo 9.23233223762156 4.7439760273568705 5.009039829897211
Mo 4.786515230030734 7.741156684769124 6.603299186711117
Mo 9.097945526544438 5.162809015827469 2.294448257506986
Mo 8.4762139274075 8.881906869521847 4.959587355974456
Mo 4.187691022955073 3.262030388239436 6.6823523069185775
Mo 3.016210866011217 9.937331677006075 6.56944478999904
Mo 6.708764520261877 3.72678575719404 5.895374322579679
Mo 6.223542966921609 6.632436245832121 1.5882128030337839
Mo 3.071555527278523 5.516541276404898 7.631935861901088
Mo 6.253216830104524 7.79557902159405 4.049878300218213
Mo 4.922274182119453 3.072838837254653 3.8642906768559544
Mo 5.847813745870166 1.5905313629216367 5.306310120703136
Mo 6.907631112552238 5.562337208946237 10.06787630123449
Mo 6.722873956267323 3.3522238504403132 1.8559051741184271
Mo 7.755314308445887 2.609748302351615 3.4444969675560846
Mo 6.440699874159463 2.959296001422839 8.626792318093988
Mo 7.904789689302574 7.023519509117714 8.876793746433487
Mo 5.590468501218021 7.97089793063636 9.076286128322078
Mo 4.7083026565915755 3.447558757496425 9.361287672045913
Mo 4.370794526983737 10.233849895500963 7.850419578495669
Mo 4.58106278691648 5.6295101220926265 5.068146249090772
Mo 7.134930256670584 9.13225178456644 6.907973495363082
