39
Energy = -357.24606572 eV
Mo 8.045805040002014 11.20898656051545 8.474576168405868
Mo 9.773927165395476 9.64299394924131 7.086233262141373
Mo 6.987799027544424 9.06360623096183 7.288468161901258
Mo 3.8230890787124414 10.329878649689512 9.497391665885006
Mo 6.118442356852503 10.082966888174722 9.575909492034377
Mo 4.804796635555619 9.971152276313864 6.923004130307418
Mo 8.972368218642128 9.431322719617091 9.396292276756338
Mo 8.390021620800146 8.695536473616976 5.023744058247705
Mo 5.817761241479502 8.402151198681603 4.84119005308099
Mo 10.737482964751102 7.229598270900683 10.080262163351565
Mo 2.9689313670142043 8.486255045377376 7.620259330460956
Mo 8.712975846714855 7.100510790447896 8.005400674742047
Mo 4.084377406195158 8.233410411929883 10.05354124379967
Mo 3.4781222485481225 7.952193960633621 5.3027444600021045
Mo 6.616091260365974 7.614973427900219 9.739137089756294
Mo 11.22186356952973 7.782779756434135 7.390966620619576
Mo 9.011130589715524 6.854509667287082 10.959057352364564
Mo 5.527239867968171 8.009122723627485 2.500987450647057
Mo 11.041674157237937 7.940910623945932 5.161751227329743
Mo 5.136393285300069 5.530170597888781 9.70679799506943
Mo 7.5969973974081 8.47975579935969 2.551681878482138
Mo 2.708535546778287 6.012928844717745 8.67272146970508
Mo 5.064675589657992 7.167373912409445 7.548008176457934
Mo 9.911528499271075 4.999432790448694 8.85691265986089
Mo 10.204255070371211 5.657042701024794 6.1463041977312365
Mo 7.513175601970691 6.309229828847073 5.833194417070977
Mo 9.3032144095851 6.596281798939231 3.895549760273297
Mo 4.7276113943963125 5.701548349742736 5.29530703785688
Mo 6.762363775387325 6.007318297735888 3.4134256422416724
Mo 7.704470094328109 5.020804913822768 9.607621466277084
Mo 2.4740784404370686 5.629029508224047 6.76217675833092
Mo 3.748777428926811 3.4498878706814606 8.162334394002249
Mo 8.576347327875526 4.038547522582669 6.995845881341445
Mo 6.095458945844063 4.589869792418281 7.598294636165503
Mo 9.57298445169992 3.724449830108044 4.2205436891063135
Mo 5.284737901732518 4.022684932408058 3.464716164745854
Mo 8.398724458431216 3.885546704115009 2.810810901240118
Mo 4.109260519635273 3.27120547464219 6.263213570270427
Mo 6.767574459144725 3.6690951657933275 5.068686683143562
