33
Energy = -299.40883585 eV
Mo 13.076622674962325 11.020142947731767 4.658761006936188
Mo 6.338684307687383 4.809946573781334 10.377588045955523
Mo 5.671011132295051 11.85374019560059 7.953802775002456
Mo 10.578702840440858 8.339903002354703 5.270911217790301
Mo 7.807754276180134 11.543660966956736 10.087057725822492
Mo 9.1266956440321 4.9064644978797824 10.072471175952364
Mo 10.750649119942308 10.348692787808009 4.160976468919401
Mo 9.345282440231403 7.470643803872567 10.267982934332423
Mo 7.2987912609491685 5.08407562293031 6.1067171791801345
Mo 12.450374670893 7.810360825065472 7.648231958982453
Mo 4.624067023129999 9.073495040325744 7.766144386502023
Mo 5.035696764303012 5.353666715627367 7.882673723225659
Mo 5.28510768467406 10.204610291925642 10.253361566251966
Mo 11.030564654547018 6.181583460131669 9.112425766052395
Mo 11.908084892957438 8.934654132970735 9.339959797817674
Mo 9.900085703079569 11.064986580725906 8.28980101220741
Mo 9.489915921184128 4.3206415366128725 7.874813327852027
Mo 5.515077794561062 7.093574327561675 6.498615727533934
Mo 6.946054568699647 3.783100920150516 7.775408259339009
Mo 7.6575160885387445 6.505998876362209 8.414275392393424
Mo 7.430553302043196 12.229599679654447 7.36105098802232
Mo 9.131980819168987 10.404195474221856 6.10031213406738
Mo 13.195421896283593 9.04057767964946 4.798201809667433
Mo 9.806876524795591 6.2105369807051 6.5494116069984445
Mo 11.86513930692732 10.11136016899922 6.794706603227144
Mo 7.810472369376349 7.997430046539088 5.97375557617284
Mo 9.734874213077022 8.420667529559184 7.97994713542098
Mo 6.640715237304865 9.119456416290546 11.202287603305775
Mo 9.224391054087453 10.170545293666219 10.584354188211144
Mo 6.979908115044926 6.295429101891444 11.368172221905528
Mo 6.3556919446476146 9.871365112872267 6.128196074491179
Mo 7.294778608122159 9.488567387444276 8.463653173132396
Mo 5.4941605325118905 7.4851507952995435 9.366803782597833
