31
Energy = -280.5479934 eV
Mo 10.129366472627993 3.2601676982465575 8.299919463551772
Mo 7.392425615577388 3.8067145555562116 8.154002780950783
Mo 9.700925526206731 4.448478110459848 9.64006541612018
Mo 4.929636739809782 4.799678660507729 7.9669110957564335
Mo 8.028922306633394 3.6842314076808877 5.959666799050068
Mo 7.246458122935022 6.220928086118502 9.211228651507803
Mo 4.332210623956032 7.1696004659041295 9.04985342788305
Mo 2.699932939399748 6.121192677672023 9.03041729950778
Mo 5.453654080492408 3.7067662335019143 5.896298667113893
Mo 10.703639713419658 4.42320941080748 5.561045321041655
Mo 9.268457015843186 5.81110793933385 7.301569375747031
Mo 10.889348530816834 6.3173780833339706 5.0458686769080225
Mo 2.705869481353489 4.565657798564544 6.5109688945767035
Mo 9.362029547628955 7.778471428690878 9.000108578565778
Mo 6.824665838243627 6.222956586565014 6.633945891761207
Mo 3.3038843453238487 3.7029488667578008 4.7046020309704835
Mo 8.839169033967801 7.960039014043726 6.203916726807236
Mo 2.4720856049802906 7.426787566599368 6.926484725875924
Mo 6.718429965483608 8.342616606271859 8.2519813913358
Mo 4.438031542941445 6.201726993059431 5.305708345033071
Mo 8.510608751694654 5.767920024005843 4.452476432474258
Mo 2.114666921777491 6.461262168010025 4.359547361214351
Mo 8.876071508916842 9.598401601892647 7.98592566525835
Mo 6.177196503975711 5.1586370886479 3.640663815751185
Mo 4.774871914256724 8.362292712701027 6.533260715356615
Mo 6.656214702837091 7.59598568159837 4.315809381834418
Mo 3.989777352685196 5.422534671846674 2.5557488568711673
Mo 2.7456728427027546 8.524151006663951 4.709559152961784
Mo 6.85942328388294 10.069587311205334 5.69271669382844
Mo 4.391703669129813 7.4513652360941265 2.840053103140368
Mo 5.44075701392825 9.999357853682913 4.473193638962101
