31
Energy = -279.20794587 eV
Mo 6.4939247952872305 13.55919172844121 7.0002112963385486
Mo 5.71022819504413 10.695213117169807 7.140669210858527
Mo 7.255773461701087 5.293878654777037 11.490545660009186
Mo 9.067816537416444 5.992286220160116 10.003124540957398
Mo 6.3333799469158585 13.724876821493533 8.823179712361718
Mo 10.735648773469336 7.538671297154595 8.529465707632685
Mo 5.360532295604342 4.828401824831212 9.656989778470754
Mo 9.399050922415823 9.949017563985342 7.837275725175058
Mo 9.412979633504655 5.2793309532468875 7.254440796099601
Mo 9.591419250582588 11.164877783121936 10.427751147042773
Mo 8.879377531363573 8.716416861163362 10.275607585193903
Mo 9.169337042139466 12.821537961242797 7.845606712704627
Mo 8.656597404711658 7.236157321998764 12.31304626272156
Mo 6.490677058023061 5.322035352341414 7.080414393370266
Mo 11.161578425727535 7.379928719044631 11.513230230735676
Mo 9.895165825717642 7.490402823734813 6.300871028907821
Mo 5.618310088113567 7.9901070581057505 6.163838090764738
Mo 10.598180466477574 9.166949798440704 12.324822591568477
Mo 7.830191821089474 7.029523683468061 7.9884851222007205
Mo 10.895672946764542 11.694152876293066 5.935470312574901
Mo 6.52062485998024 7.258462615359839 10.693804591207165
Mo 7.715372188385428 4.234186564318488 8.70759577537359
Mo 10.436978927057295 9.952350068629288 5.203854272449303
Mo 7.47531246960235 8.807108910720524 5.941498982443451
Mo 8.184036404879036 11.450666839361752 6.151983084125918
Mo 11.753338516085243 9.563119939939709 10.00332424687008
Mo 7.548627445790689 11.38422431744766 8.910699592632932
Mo 11.876196442113923 9.383741250035497 7.492736584785703
Mo 6.321772229069956 9.163120138821728 8.547812571124116
Mo 5.010235868265001 6.721884289801264 8.728028801955032
Mo 11.283009167310563 11.62963848966331 8.847678325567491
