33
Energy = -300.08496974 eV
Mo 9.563906637557647 5.670252198089059 7.4568475983587925
Mo 9.359376934364445 3.584421034186109 5.67511721803123
Mo 8.530616790636726 7.287748210116868 5.87327327257964
Mo 8.762073252796586 3.389555813628817 8.770246287297729
Mo 10.508593888782718 5.087799865334074 4.997053344850269
Mo 9.35913687802438 6.903256494962979 3.606975047987468
Mo 8.625084685878438 9.724995387158316 4.413602618468937
Mo 7.577469626167899 6.2232959633851515 9.202139157599696
Mo 8.737817215079506 7.857947795817697 8.705347142742266
Mo 7.725746288807875 2.238996995803847 7.485288946211668
Mo 7.256117774538699 4.812039880066456 6.7903191358209565
Mo 6.7720129287524715 2.5749141987117734 4.49372273181145
Mo 6.9120108046706825 10.53062658350922 4.254140531611762
Mo 7.062000729505892 7.829783504928473 3.458976926264563
Mo 7.385511834074362 9.430261984653216 6.9466030660389
Mo 7.7615048942764435 5.157150452724452 4.190421383035696
Mo 6.194427133872034 3.9191133688157347 9.167027755978989
Mo 5.907242867774085 7.336986190500829 5.830517123077607
Mo 4.922744671299496 5.802843009354062 7.869278729705092
Mo 5.950172606305315 8.19956169664722 8.496188940379959
Mo 6.104621680172743 3.476168363942843 2.9432060080163187
Mo 5.066109568210043 2.961902267478091 7.302638478879282
Mo 3.6442350511519104 8.400503386821702 7.477645635528541
Mo 4.576256603618565 8.722329681572578 3.9492077002002186
Mo 5.1416056185463646 9.868820299183872 6.187445418235287
Mo 2.0974774377554177 6.267447663068621 8.071016033055534
Mo 4.9982822738063515 4.533903557303954 5.187703245817968
Mo 5.138361576093501 6.158296255679509 3.3396486985990843
Mo 3.3222062218253905 3.6245791844145794 8.605122509224964
Mo 3.4099888860056455 6.63124210509836 5.423029540066764
Mo 2.7233788181688285 9.066450865488827 5.2592291226516386
Mo 2.6650820624247635 4.280295822597519 6.6097329045130095
Mo 1.130342083697692 7.109960035582036 6.540938411495499
