39
Energy = -356.35082177 eV
Mo 6.22057647521488 3.568080809647878 9.69039480782511
Mo 4.011122298439942 3.9187714765737125 7.767103755793313
Mo 2.4211763758961746 4.176181819515679 5.719301480518925
Mo 5.633391922293085 5.135339065940047 11.838596511828133
Mo 4.4314569632354965 5.440115463111539 10.202507001151963
Mo 6.501807856686791 2.6343341789588557 7.514615176711067
Mo 2.993293260481808 5.999031498504182 7.971041640241028
Mo 5.508274454012821 3.623464570922086 5.526316851910904
Mo 8.459918233634593 4.260778726690715 8.540390515233664
Mo 7.8591774816410975 2.951167362633687 4.908668332021314
Mo 8.988798606154978 2.5642263458802805 6.965359647270689
Mo 1.7930955006628013 5.072216827235302 3.499208332857033
Mo 7.235125472803761 6.253647970043656 10.075814490672185
Mo 6.096299332994018 5.485654744620659 7.729548590443814
Mo 4.386446819536579 6.166221101685626 5.730082294491922
Mo 4.040514515066473 4.5884033265623545 3.4734026093441313
Mo 1.6396211472710782 6.2998862124251715 5.8954486010154845
Mo 5.9745484675922835 7.728946916328866 11.03393326853249
Mo 5.101601114428583 7.690243205611404 8.692965306613326
Mo 6.60880886506062 4.050270999106507 2.6693825022456306
Mo 5.748684733715817 5.25308283819372 1.0912070938474698
Mo 7.131395375471144 5.632661207306278 4.824684785664084
Mo 9.669983241582656 4.766065185674224 5.895968869363448
Mo 8.446842268148503 4.841633386736051 0.9691250743828776
Mo 3.4974455936462925 8.544063248068028 6.408713792529824
Mo 3.0421173115250193 7.167890187940762 3.702978288695328
Mo 8.55629301022183 6.435352844864843 7.281149400132382
Mo 5.509264292305158 6.7185923665442235 3.1044038316543174
Mo 7.585717083062475 8.54633117108406 8.624848682962629
Mo 6.49444428247541 7.912470800957862 6.145064473397301
Mo 8.122894344459594 6.500949628671439 2.1517182352625768
Mo 9.32382179851575 4.60481926331366 3.517602495610662
Mo 5.474668297055911 9.918255002989891 7.467340343153883
Mo 4.651801145777681 9.037728013476992 4.6364085706412475
Mo 9.158987014823005 7.268513220315377 4.752344960902798
Mo 7.504558967874491 8.562961097922486 3.7793545076169544
Mo 8.88531029584676 9.371262155262801 6.281894949909779
Mo 7.768540798041607 10.734819752380314 7.975598227242966
Mo 7.118122507736322 10.470780513109135 5.3556520908016
