31
Energy = -280.53844536 eV
Mo 4.1149337531313614 12.014827937974276 8.003934696239444
Mo 7.291792547323215 6.638967658143345 5.30863354836006
Mo 7.866071561555936 7.759780835292275 11.86953012675935
Mo 10.394897803518191 5.883701480558601 6.1444820633944195
Mo 6.770164420169619 12.55008551673389 7.137156059423762
Mo 5.367910708684466 9.391583869007002 5.389199486001067
Mo 6.7422623363264425 4.376308600397129 6.937720637311845
Mo 8.431014449571526 4.496593271668721 5.3038602564218325
Mo 10.327922826802993 10.044621181782883 11.242935968503026
Mo 10.871624694644368 9.919172491326437 8.745752533055045
Mo 9.747696419543924 8.256812169159371 6.503956631646505
Mo 10.944040919478761 4.937407768883201 8.499270274253076
Mo 11.095928017669845 7.6161479890616945 8.40551567248396
Mo 6.890045241809754 11.815854200829207 5.359867011489662
Mo 5.612763917438058 6.499719842897588 6.91535653773606
Mo 8.457367485714638 11.495075804018114 9.49753898897223
Mo 6.467922440320635 10.602707911363913 9.140383374562578
Mo 8.708640749090911 8.719451669817657 9.371278024551577
Mo 4.113798688173846 12.00980043177533 6.159381072876827
Mo 9.447669448715137 6.083169025136636 10.101250503436543
Mo 7.456376709665313 9.560745394495358 11.657682100626436
Mo 7.937325437331359 9.32989510116332 5.090624747364366
Mo 5.586891870825128 7.976640768116997 9.825156583371777
Mo 4.599367671240999 9.413618388853871 7.304245162909816
Mo 8.30191974672696 3.8893838178905 9.251753846249235
Mo 10.886577910939417 8.189972865676749 11.128717383087716
Mo 7.023176293591025 8.580759549010187 7.378833636599619
Mo 6.548241075800041 6.393320930443115 9.613718511269594
Mo 8.496530132304548 6.1102967621191056 7.682061273295538
Mo 8.646820620018904 10.64933600001655 7.210970411212615
Mo 9.434793253736474 3.361189634300921 7.546329387965457
