38
Energy = -347.82984753 eV
Mo 6.442159702601555 11.655251670210541 5.8075965576478366
Mo 4.983388708263513 10.198297423471177 6.99515328730839
Mo 3.7397342747971742 8.178336495394817 8.23101201634564
Mo 6.408063914253218 8.541386041802753 8.08991630215331
Mo 2.7435798045819606 6.146230377960506 9.00228751181074
Mo 7.763005587836569 10.174082669942676 6.57162468167962
Mo 5.83271902823888 5.962953881055872 9.492848752884049
Mo 2.0751424883565717 6.298102281180547 6.818069121325217
Mo 8.098147384576352 7.121469494739352 9.509628314122924
Mo 3.3265832543871827 8.244744188013632 5.836536477594471
Mo 4.794896733436195 10.179581774766554 4.18081481450834
Mo 9.329463764816715 8.28749008561273 7.666488887137523
Mo 7.1757782570176 9.702498986863434 4.005056516484238
Mo 6.062857813040917 8.07258000749459 5.588408620666732
Mo 4.825856155647962 6.116281095287265 7.115653962174678
Mo 2.0941224682558013 3.82109399880999 8.12880994231016
Mo 9.60455448520625 5.610028810647622 10.77057678861131
Mo 7.781246549658137 4.659900925878811 10.982560287832774
Mo 4.359330002808571 3.7913822347884696 8.57260704087238
Mo 4.032316914004767 5.931967972028959 4.603881748254247
Mo 4.814082655415381 8.247331950368158 3.2137760813252796
Mo 3.060771554764456 3.838789050818668 6.096325015482171
Mo 7.630760699837477 6.046646821510273 7.215982456585174
Mo 6.898710075704499 3.8269972142350266 8.733512823795158
Mo 8.764309150408927 7.592941472203662 5.392447961556403
Mo 9.229455260090848 4.495491661408245 8.572740459400254
Mo 6.5875589538243196 5.545227611891168 4.659802901041272
Mo 5.610664568579544 3.727501263167337 6.326925368597944
Mo 11.096290109747885 6.660347014522541 8.453443356380404
Mo 7.3247991499296035 7.268989714900328 3.0766291499813527
Mo 4.571013372410167 3.5153887590743746 3.8314248705438723
Mo 5.230147285804091 5.734272256130544 2.2542590369325977
Mo 10.589379872050191 5.92152946608683 6.71320816545951
Mo 8.38732931102751 3.6513001501048694 6.0674327751154555
Mo 9.178971368250899 5.102495241514567 4.4546600026302094
Mo 7.231885958430435 3.036391686297673 3.936522524437161
Mo 7.866107422215866 4.602240955030455 2.351509236517535
Mo 5.557748727445456 3.561797268946639 1.7643063885597265
