38
Energy = -349.34636387 eV
Mo 4.534620744304652 6.137090614267001 1.923989617822158
Mo 4.406855526737306 4.2833820842279415 2.3795360058981303
Mo 7.170995213696396 5.107530778693738 2.798786226574242
Mo 5.189579151838181 9.302955719954474 2.077197598370919
Mo 6.5878383685933946 7.5535762394100265 3.0720816383249177
Mo 6.603932228715955 10.185883532237856 3.513985776929047
Mo 6.5868545768042805 3.097972243663998 3.930613666388876
Mo 8.681836391701154 8.459368557975408 4.630313884423822
Mo 2.953536588139533 5.586458824241439 4.330160153771724
Mo 3.9218044364832214 7.942960162870046 3.972617716046822
Mo 5.338743786663213 5.523582091075838 4.786896092471045
Mo 7.853546203477042 6.17205170067776 5.06564700413668
Mo 8.798835591368968 3.6590982602495727 4.957499462939585
Mo 3.975410946808035 3.2050078500570276 5.1148233612356995
Mo 4.351603668616271 10.471377211057687 4.5028605663968
Mo 6.002074732654074 8.342778530342624 5.592257650245665
Mo 7.83579187884452 10.24082487607883 5.958786974127228
Mo 3.62753288455928 6.886810071394971 6.460597771584172
Mo 5.9268191487468815 1.3593047957529452 5.5054720774612536
Mo 6.577839186109947 3.7351432888120635 6.609478726190383
Mo 8.194449627510288 1.552522313729205 5.87401084066376
Mo 5.287807485680843 10.730691508189874 6.6837915812128905
Mo 2.968549042487241 9.248994625152514 6.0624349075556365
Mo 9.094436174042757 2.8739982191589166 7.834569709054034
Mo 4.73007063940732 1.8387379829763628 7.804219813071418
Mo 8.957493417634947 7.784290137800733 7.1231679242865455
Mo 9.179790549782307 5.06139086760178 7.07809369044251
Mo 3.670773740292662 4.292624613008004 6.925874350330364
Mo 6.352857251560635 6.347067854320396 7.702931388377342
Mo 6.618290304748725 1.6388272314828303 8.437591469208169
Mo 4.689163167241606 8.885916041185498 7.970062848476357
Mo 5.2444119625507275 4.103552102160302 9.02626172485105
Mo 7.63861837927635 4.209093133863361 9.18807700796975
Mo 7.29385883722001 9.155470108007442 8.044383429739673
Mo 8.528578202582882 6.775596961539692 9.117410918476244
Mo 4.21857582579387 6.475519760433672 8.952930932172379
Mo 6.308359717049389 6.037757972847648 10.809722788104706
Mo 6.227896111411214 7.864822824635724 10.31089439580198
