36
Energy = -330.12094062 eV
Mo 2.5118284325165434 5.5614938380992935 7.754208802287821
Mo 1.872221216237566 4.107640856929476 5.24221220383419
Mo 4.258254593953292 3.3340901119236075 8.689936855654205
Mo 2.306587761898819 2.926859705127356 6.6368781643778325
Mo 2.95458968984013 7.693424695306835 7.873093754416813
Mo 5.03134093320632 6.130723061355491 8.578556726814513
Mo 2.78909806259066 6.705652322985689 5.342124541553817
Mo 5.66046705108224 8.855236450003451 8.804494057543769
Mo 4.554264195239248 4.889320784427746 6.199800054582316
Mo 5.097361836147776 2.262916619678319 7.410504496146117
Mo 6.797544978187088 4.446403860534628 7.923466427612328
Mo 4.290766598086871 2.753480633750907 4.636967162070383
Mo 4.968431200476193 7.701866719552996 6.208729075336275
Mo 4.155370029630057 8.012380996540161 3.4062962076712457
Mo 9.083647030556207 2.993078260674772 6.713447941824103
Mo 6.92574635244286 3.2294665305974415 5.477776505110194
Mo 4.038112030020426 5.190941564754494 3.58562327911074
Mo 2.8316080787683475 9.54840269239852 5.458890280264837
Mo 8.771376652007335 5.485291252098602 6.024180632347312
Mo 8.854756752683599 5.15524153712486 8.910988584131728
Mo 5.9356331090263055 3.5750915811201884 3.2841658946390226
Mo 4.462374976692671 10.351077861656524 4.98742828990584
Mo 7.475606276468395 6.468921867512122 9.788126612641108
Mo 4.577967775835287 10.041212082174809 7.838144807525435
Mo 8.977047804907107 3.73279218377858 3.9840324232497877
Mo 5.571889015613383 6.719295825903361 2.380349990087245
Mo 10.698570733808582 3.5516764480873695 5.267693788943986
Mo 6.539940840564526 5.88086225302 4.749095847760793
Mo 7.326389210179453 7.121998147653328 7.394605717982481
Mo 8.687703407402106 6.4895408905645535 3.360111137102938
Mo 6.600042698992256 8.51779524432086 4.098086270359691
Mo 10.1370128646166 7.632438529004376 7.566096669718347
Mo 10.493340519303912 6.312062998347236 4.473987561476515
Mo 6.994387040346516 9.517914578074523 6.236072858178966
Mo 8.962440367685156 8.292098081900694 5.423803358335638
Mo 8.996573981034928 9.023419493058292 8.228610993303057
