37
Energy = -338.6051402 eV
Mo 4.344469505156585 6.485241420206468 1.0389260696363527
Mo 4.377015650271025 2.4186039415142826 0.6256009465802628
Mo 5.819534472063769 1.3880201800578589 0.3354102896606037
Mo 2.4853736501060846 4.546873792268782 1.8583144911333085
Mo 2.0115310771448973 6.710727856045266 1.3243707642414606
Mo 7.4311270047004125 3.8696679647986993 2.070147453766938
Mo 4.305653794704848 9.642325156624631 2.344409559747123
Mo 6.619612427137725 6.762779158452379 2.7947023663824826
Mo 1.2722953428421595 6.163391911006365 3.77759154554634
Mo 5.009878956324987 4.656221809219251 2.522641717976733
Mo 3.2891546932803233 2.104723329744192 3.4048973678873082
Mo 5.966056546767786 2.0936631662282297 2.999445951536865
Mo 3.1301261626207646 9.454005777417285 4.940411082196303
Mo 5.6172665830508635 8.52226399331418 2.1903786202689552
Mo 8.630384531696576 1.7072372389417343 3.7847669831510156
Mo 3.7816897107067398 7.197010561938536 3.458063917802061
Mo 6.215844009872338 9.454005777417283 2.7364793725326955
Mo 2.9262145369755346 4.551891783133832 4.396241617249557
Mo 5.183575504497255 5.842288353126432 5.095489668948885
Mo 0.6261330992215023 3.4985589364741077 4.550804419909703
Mo 7.388705442635519 4.2352535633162995 4.284426953514886
Mo 7.515803977249934 1.4462219837180355 5.216421708594494
Mo 2.596166340734583 2.161533031137946 6.08803471481423
Mo 3.629959001373499 9.309993977349038 6.724495102978431
Mo 7.376495169778888 7.011266909484967 5.470229564960089
Mo 5.124163544788918 3.1802532030489568 5.328130855130152
Mo 5.924744845316136 8.43452361135104 5.050783440985433
Mo 2.6183585015174824 6.9652840594299095 5.894467784367085
Mo 3.603625335465198 4.66565846751372 7.080599791072862
Mo 4.476703158505024 0.7730680566599587 4.934038177599665
Mo 6.385763763821346 4.581533300486466 7.5320171919623675
Mo 5.150631681598971 7.035102196848776 7.460842974374333
Mo 0.9543585161455531 4.367376686413456 6.328697349059663
Mo 5.3125327759552095 4.69468198278039 9.155444603173635
Mo 3.021747448702119 2.9155736946360196 8.809715570128793
Mo 4.539487623172517 2.03750281001219 7.78369758165016
Mo 3.1754028231758955 6.6409460888035525 8.446449638556404
