33
Energy = -299.01150754 eV
Mo 11.575879335475351 6.9978256157328955 11.587816907324655
Mo 9.436094807848722 10.692262777271152 11.747426192238468
Mo 9.803123878676937 11.60344759680397 9.535058483249925
Mo 5.507300586943636 9.441347495806378 9.36362331432133
Mo 12.464847701044398 8.177638156928401 9.824941070764595
Mo 9.895792229990334 8.731332785179465 10.102366575604092
Mo 4.1405403298171 7.566467659701903 7.665551119445078
Mo 7.406080020586067 8.892450748571717 11.27353560852564
Mo 6.511084141606089 6.5867659988446565 6.805260642920373
Mo 5.922805846889059 9.642844809207434 7.236821729326524
Mo 8.640339553835434 10.66126101424864 6.912149331064172
Mo 7.925110470763632 4.509383523946004 5.893458723891489
Mo 10.697932167771418 5.938446327553782 9.878764676956662
Mo 8.892706913859893 7.8533720678668475 12.39726227608277
Mo 8.847730127129102 5.6011319200949 7.99511886000482
Mo 10.566804549000892 9.359938011365557 5.663884388037711
Mo 12.035954197047026 10.626132047038544 10.423027145630844
Mo 10.852996733531137 7.490930830201807 7.746647683368218
Mo 4.092098534719518 5.5121685853714135 7.887773328961109
Mo 7.056137933340737 6.530337796397649 4.1875697366217075
Mo 9.266238596632506 7.119134356818974 5.751032221048629
Mo 4.84116649190835 8.102992292240312 4.998485057316239
Mo 4.391398538729771 6.149682545506963 5.097442599158099
Mo 5.790119746335436 3.9309472285899902 6.624234098807407
Mo 6.75874510945246 4.57125528216503 8.683301360638053
Mo 7.7242538518792205 8.8798693945809 5.560214561157809
Mo 7.76165559240388 10.758807854773613 9.273740541410712
Mo 6.247595667801055 4.590472350508193 3.985650523484298
Mo 8.269601895627055 6.358301339558576 10.421985279605689
Mo 8.08147653009312 8.198730023915923 8.248715987921015
Mo 11.505681542404869 9.581916947380988 12.253210252289055
Mo 11.083806084734624 9.891325110071524 7.708583609961899
Mo 5.958391932558044 6.989031936370957 9.459815565958214
