32
Energy = -290.51109582 eV
Mo 3.3456321365242117 4.316408544007615 8.574711701278837
Mo 5.5751543025800006 2.9027922234673276 7.369001247772244
Mo 3.193871494240013 6.9423105152113465 9.22950234224235
Mo 3.2260234574189695 6.234969241344455 6.345723304458056
Mo 4.946050046768783 6.509643158368988 10.174340075021734
Mo 3.3812730446421675 3.6918101756932145 6.441175982923644
Mo 2.4984540714292924 8.781962507520207 6.918799316171231
Mo 5.696285914706455 3.787727624608587 9.659601034725027
Mo 5.4563113065386695 5.689297177538039 7.751752062704276
Mo 2.949238629102275 7.863501824707873 4.329371718197804
Mo 5.787888624574888 4.625843092314836 5.397051204589099
Mo 3.7946893811613407 5.090930590283045 3.6924469939875104
Mo 4.676600424822699 8.290976499283737 7.778056943225308
Mo 3.9066027767826195 9.658935457798897 5.417074618260381
Mo 7.517741262654307 5.221279925963711 9.715520225110552
Mo 5.168947727648396 7.3403474324580635 5.0518248436066795
Mo 7.788013541393934 4.111432011004294 7.621648379531541
Mo 7.214311773455056 7.554206380422962 8.487501400188293
Mo 7.776994232669378 2.673568259911738 5.210782205920175
Mo 5.373522383272256 5.738251680895402 2.8228379740231806
Mo 6.9863984364230705 8.999618117264239 6.353691079946833
Mo 6.694406686717385 3.0674211844236257 3.582843101878344
Mo 7.679566365805685 6.496596664472076 6.07617400507365
Mo 6.835833664391655 9.942058565423013 4.093105804119478
Mo 7.453201829449247 7.568992221725614 3.727087316681799
Mo 9.500589612908586 6.215023962091077 8.047687717074169
Mo 8.224098361741946 5.055013023980443 3.719128172342624
Mo 9.576944280260369 4.8036190783374915 5.705118665113852
Mo 9.4175134317117 8.555333844702444 6.685235269297344
Mo 8.89579784010013 9.875159112773199 4.417148421129177
Mo 9.855614668578342 7.314005301956099 4.623166757033819
Mo 11.211091918375852 6.680222955447377 6.597837554479532
