37
Energy = -339.30033124 eV
Mo 4.534356996329107 1.3246920597787033 0.832936525782754
Mo 6.128538664641461 5.672209534423588 0.2083402215575425
Mo 4.426840351389579 4.204138377372992 0.7509627528534694
Mo 6.146346193813143 2.4509306920047105 0.4818931495884836
Mo 4.556965041438249 6.78275297796227 1.7635567832416597
Mo 2.6604296061144903 2.4508673558677114 2.4096729382781814
Mo 7.39656399929525 6.7901111129376615 2.2727619985687215
Mo 7.013296599453567 0.689785458333789 4.336718403990085
Mo 2.276555746960822 5.612442722961994 1.931573402399112
Mo 3.9631439979391136 4.695246010484873 3.394720672593907
Mo 3.1924077388217804 0.7157720810629097 3.708731115786676
Mo 9.173752949634567 5.325056042430032 2.851042298662772
Mo 4.31496517280942 8.80115613523634 3.5899418842759405
Mo 6.530893289256777 4.436159594686561 2.5370612559777888
Mo 5.433471824376101 2.077830773444623 3.180109159979434
Mo 0.06218493888382406 6.566211131500896 4.220760405698937
Mo 5.788192079061677 6.673571887656462 4.212534632037647
Mo 8.116070711321923 2.9291877789952654 3.9590420914001307
Mo 2.636990520118481 7.119899914606827 3.9125684526484203
Mo 5.837081308205275 4.028357214617306 5.235350388534498
Mo 1.4245974897867006 4.274183070775585 4.379192728475306
Mo 8.115490185572083 5.511317344949312 4.760021756123796
Mo 3.4352112731909807 2.7717695368604462 5.184243407131525
Mo 0.9114024022332952 1.8407479967099667 4.476744862879662
Mo 5.566782100314733 1.2458082209863692 5.945108332420988
Mo 6.996810677952703 7.733483128325724 6.2179651981698045
Mo 3.564491930305239 5.73532143486523 5.968232156600839
Mo 7.402888652444703 2.7892743348740257 6.3549600693546
Mo 2.2486917197110654 1.4853758733289233 7.047153543957361
Mo 9.173752949634565 3.9511233613893086 6.018229664968089
Mo 4.558140474705347 3.447845297540173 7.730803933405529
Mo 4.478742299100923 8.115850738826076 5.825666506340633
Mo 6.084165084840374 5.930083553863798 7.023157961936986
Mo 0.8328917422421719 6.4284351771285815 6.059718799617942
Mo 1.8387614707071782 3.8355756802301286 7.210777464243672
Mo 0.07554291743123454 1.606449745309707 6.729261498352437
Mo 3.818828057209675 5.181258068366231 8.5087650028587
