37
Energy = -338.61630137 eV
Mo 2.878744549422236 6.783902554127554 8.384580335281813
Mo 6.647587594365495 3.5665377430013643 9.430201926688412
Mo 5.795217657861228 4.865086793710545 4.811583382905907
Mo 4.1392279281825575 6.19497306110979 3.4242282326168962
Mo 9.826659621852043 4.452830534330968 3.7138962021957145
Mo 4.208419350488668 4.629140193740422 9.856333049085677
Mo 7.716680982353632 9.709885445775322 3.6668576703497338
Mo 5.970116055894452 7.831173493778779 4.647531170927638
Mo 2.2207987823396085 8.658153979723004 7.224773235289275
Mo 5.5933595675066865 4.541666969354177 7.493968327896599
Mo 6.579920142229931 6.950737905443445 7.203092974365468
Mo 3.963772326954148 9.21234940345309 5.624193706048625
Mo 4.440966296545086 2.459956110109819 5.755689233263759
Mo 10.83843772625363 4.524255454405098 6.4329558009598005
Mo 7.997273309152652 5.4995863625128365 8.810055628583342
Mo 6.760056683785068 9.752850631548785 6.486315547862773
Mo 2.7582274648761707 4.598548063559063 4.946366845498999
Mo 5.871482585913153 8.11204313643378 2.015600973058208
Mo 6.910577233948487 2.5699619124062436 6.77270709807722
Mo 6.028082151004185 10.53470857643285 3.8314260202856643
Mo 4.373832303526972 2.0772323734037665 7.8052848289853465
Mo 8.175899520514909 4.967693230856483 5.982682855586854
Mo 7.2573755099706965 5.974111518535101 3.4314199907623033
Mo 9.064824651602185 2.257639924537231 5.416752349607912
Mo 4.943101986678641 8.674950471458319 7.868694372912929
Mo 10.217217064719222 6.229135796530293 7.239376505912925
Mo 3.9749433283147604 6.687347678315568 6.159556558886498
Mo 7.599249501182538 2.9026973363768693 4.14368057446584
Mo 8.460866079804054 7.836999267943506 5.606258643784858
Mo 8.117443359961717 8.563512715725306 8.015892692999058
Mo 2.013690553594226 7.484321607879997 4.5335395400992375
Mo 1.2431394725466764 6.251323954046764 6.029537955389202
Mo 9.959967182992523 6.321783559590391 4.1176197540286275
Mo 5.330165290339666 6.256937736315553 9.766193909884551
Mo 4.074836328535587 8.653842155848931 2.7015393869253925
Mo 3.030467347149809 4.239345913870653 7.315122272613887
Mo 9.037087718110604 3.5447734296711264 7.985753296769652
