30
Energy = -273.32787898 eV
Mo 9.203407357791388 5.515118844960717 7.6492501904412045
Mo 9.727469951651544 4.222400243815447 4.956783199284383
Mo 8.59455490950272 7.914096801495713 7.512871417357444
Mo 8.726263033151973 6.804510716906095 5.242914376321128
Mo 8.163788906962411 9.62678663220494 5.245542833738271
Mo 8.89104153330105 2.789220959839731 7.3758415728586835
Mo 7.059270596979553 6.184955056403739 8.538383206963907
Mo 6.846985315765335 10.27497153800443 7.795367649523199
Mo 7.648357331716619 3.374124253984412 8.691469928553438
Mo 8.451134683576313 2.9285578961131136 4.480891372004385
Mo 7.6088327477932225 5.401545247576274 3.3753906411940258
Mo 7.002344427848061 7.873774202004963 3.631555791793578
Mo 7.134598193289421 4.847910809730367 6.151732239968227
Mo 6.15165255192293 8.971842083805308 8.871619989470881
Mo 6.37634811249421 7.49563700824532 6.317182835418473
Mo 4.349062755116723 9.08670681678352 6.444832069358424
Mo 6.318663824027012 10.224598532690592 5.023280496981971
Mo 5.675147978213329 3.6951621278694695 4.181000662341102
Mo 5.265523490887749 5.751766079929884 2.943445197951216
Mo 5.188584121630531 4.2753498990871215 7.906755893003718
Mo 6.165737120945991 2.358448669425019 6.405248267087126
Mo 4.6317198875942545 7.894219515436628 4.2681128542149835
Mo 4.349176133835009 6.954141987453613 7.986214279890274
Mo 4.487125521008173 5.5550622206359135 5.680439289078645
Mo 2.953118119839355 4.246099400379034 3.6560737761886624
Mo 4.00338511305164 2.929235167826196 6.169343044120383
Mo 2.5287638502196743 4.907321273604887 7.8072420002189915
Mo 2.5458848071700637 6.104985150771344 3.6466210332637212
Mo 2.6274295003399 7.35496952094322 6.319065231517966
Mo 1.6559450338609818 4.805594995473977 6.1093051721434675
