30
Energy = -270.86144308 eV
Mo 2.9259048602731315 5.0427819253944355 2.895598577133864
Mo 5.060411184630717 6.987684543506021 3.418766059219865
Mo 7.469467188146509 7.791084421344843 3.2004003521268705
Mo 7.697719308033161 5.669919310431543 3.3973956343591576
Mo 2.1120199707109917 6.525008424224517 3.4981538587945686
Mo 5.476864102216595 4.7588265107546714 4.416511904531509
Mo 9.347877267275592 6.826657713788674 5.165315585095249
Mo 10.528019832990921 5.103866506725203 4.9059622144395405
Mo 5.649080292898143 9.576338040042511 4.87402421638998
Mo 6.332937415847644 6.9620953318433125 5.630001390923187
Mo 3.7872505504290164 8.053728247351332 5.352687030657703
Mo 3.717142244005864 5.577121324724086 5.685215589939119
Mo 8.003989686788666 9.392608017503806 5.333802816890479
Mo 7.948842437473571 4.743498398607535 5.99308102790704
Mo 5.457576006572454 4.284590161795304 7.3485986457079795
Mo 7.730908549364963 2.3839838204233637 6.685965113685234
Mo 10.196556345334972 3.6166849232980116 6.981649083199494
Mo 3.678232316859686 10.644092223000701 6.654799922531566
Mo 5.9922696568699845 9.00865437664596 7.291237515139327
Mo 2.828572073199083 9.25740560219968 7.544920548587099
Mo 8.423284174462086 8.419099324808181 7.301344234608795
Mo 9.947457816078925 5.6603857893082 7.613224935378623
Mo 4.546793740433754 6.967675567846971 7.824104431519794
Mo 7.30855960541924 6.168506844832444 8.076627813399071
Mo 5.408784860053597 5.070328914325381 9.370909511742825
Mo 7.742120169981925 3.434108525836482 8.47007444250882
Mo 4.741897955980987 9.256636547954741 9.791283822796942
Mo 6.020067784886213 7.9486980557070215 9.921510227353638
Mo 8.796958268165437 5.517963876289471 10.34410272648637
Mo 10.107944723035754 4.335477117904859 9.998241155365728
