30
Energy = -271.50466255 eV
Mo 6.520033171759531 6.888912448636584 0.5303187243688557
Mo 6.163955123735109 8.166343893247173 2.711986510744057
Mo 4.565294540000205 6.585350302439316 1.689095150156829
Mo 6.7571543240228 4.785787334339639 1.6467396823405311
Mo 4.263143091269127 4.0392512872253254 2.43908831548254
Mo 8.207672173112913 6.418432006201772 2.4532181063547847
Mo 3.8547540539455145 1.90885660287049 3.062018389028762
Mo 3.0836950099101843 8.467538624598424 3.3012620323447397
Mo 6.222699809032719 3.0665083430975035 3.909888757865185
Mo 3.3300610295212185 5.7343149755728025 4.132835579598501
Mo 5.961863632358802 5.869321996020523 3.9913985297502688
Mo 8.246824349719272 4.8190211663911136 4.297405000098855
Mo 5.2775693271163995 8.366669561397947 4.949765539267695
Mo 2.6098642350225987 3.3382021514585425 4.70383013209954
Mo 4.660387555525407 1.7311110375214407 5.24972774383394
Mo 8.0386151762664 7.818838814570031 4.991210605282701
Mo 4.77500784431431 4.253303802809741 5.946685814995482
Mo 2.4910601461717934 8.083121360071843 5.058415018705861
Mo 7.2669759801566975 3.193152855257857 6.181323815698341
Mo 7.1502223011475605 5.774097566710559 6.555815798752313
Mo 2.569465305476678 3.3443546105481285 7.267453834710597
Mo 7.274224101780286 8.543825630411021 6.623745835115799
Mo 5.5633294260921184 2.552410482378468 7.793494994617221
Mo 4.603931788667777 6.805757630128386 6.607154401937739
Mo 2.235528008332287 5.307686755902682 6.799234477514273
Mo 7.038502888865276 4.187103493898945 8.65634139669763
Mo 6.023364661621466 6.739909649666499 8.675747624897117
Mo 4.362412715733958 4.970286103021031 8.58784215237882
Mo 4.999771274935003 3.389508171832129 10.463350439519576
Mo 6.02728704646889 4.99569143385601 10.86827568792382
