39
Energy = -357.9816882 eV
Mo 7.885207698728578 3.4139373447293213 9.942478974476987
Mo 9.93684988600444 5.006040304705721 8.808518714474467
Mo 11.026943368067116 6.412352623195558 7.9436283348218675
Mo 8.65250717730831 7.296373492294484 8.442557226975895
Mo 7.1832360873010845 5.610862993834759 10.172616814604462
Mo 7.548322419219242 9.67802564001195 8.212936148869426
Mo 5.826311375431861 7.503756004796331 8.521026750507144
Mo 9.26844924178475 5.146563777219062 6.177944869106998
Mo 8.44585555391993 3.026462610276706 7.496953043519682
Mo 5.673904236578895 3.285855711573955 8.95021565558779
Mo 10.010309325602718 7.7076092102202605 5.664847374844716
Mo 9.424346822325035 5.229426976186496 3.5532933759010636
Mo 7.148806375120018 5.091536871089669 7.76580484100002
Mo 5.058851742722983 9.302493286891234 6.9279870539779
Mo 4.558225546964715 5.32514789165188 9.222926026093369
Mo 9.127045062914156 9.423826854019024 5.7977850718175095
Mo 6.774633868249946 10.802163628602466 6.559387910656809
Mo 8.208690459911656 2.764571591750951 4.581867758018607
Mo 7.270040125172868 7.505295103066999 6.307300878367107
Mo 4.337449545049706 10.336599547650108 4.500093859264029
Mo 4.789939894926156 7.309554664278315 5.0884501515825376
Mo 6.183840646352163 2.8409721932480476 6.347227701540107
Mo 2.505701606053712 8.523938844352395 5.529138425722772
Mo 1.8481130274734436 5.50980078734945 7.629880385452709
Mo 6.538873135143666 9.18112999402281 4.333368212879818
Mo 3.465607007622513 2.910543558910894 7.126043811397975
Mo 6.835297814889599 5.178620977900985 4.846690317779516
Mo 3.2929057314228816 7.450158810236762 7.522477191027879
Mo 8.236439606559388 7.308271474875198 3.8031399939410595
Mo 4.63487361332519 5.19133397014304 6.7111375738316426
Mo 7.614681612230867 4.956944572417343 2.3224074967316604
Mo 3.984954205974531 8.961205777225574 3.066631838826004
Mo 6.512603425228067 2.6936873612640664 3.6004623599373264
Mo 5.947405881886748 6.849926662303046 2.7616456931272966
Mo 3.9092593159973843 2.6775082580521707 5.12975126255539
Mo 0.9144198913644385 6.773347370529371 6.211284297278973
Mo 4.651665369716831 4.856194410736338 3.5610984387868347
Mo 2.717107078440439 6.4998784054188325 3.695011269970703
Mo 2.397864064008785 4.818857270043472 5.129999960838957
