39
Energy = -358.36159833 eV
Mo 2.3176960038732086 3.164384578085935 4.650362076622182
Mo 2.3591166561321524 5.026346590554492 6.743776251237498
Mo 2.2956974920978928 5.0177434044289 3.9035212149759984
Mo 4.752153374645852 3.6288969457493985 4.167432463767324
Mo 3.782364756276004 8.123500289910998 10.108661237061298
Mo 3.9300410363241203 3.162327075632315 6.779422615748521
Mo 2.564951986809943 7.675403751509827 7.6176478977724145
Mo 3.698403687546256 5.621779034371661 8.616922809303894
Mo 3.337097371483299 7.23933224664877 5.430207579894894
Mo 5.016764613403621 5.411115764057585 6.222859178322974
Mo 4.840921458994222 8.686218945835444 3.588316167339247
Mo 4.676305662379147 6.0646156852567366 3.550000780398949
Mo 5.170009138950806 7.708003325788842 7.653123431362839
Mo 7.266414203692275 2.8023505356354637 3.2192524722345914
Mo 3.7361822503697515 9.726885847017234 8.947194318396368
Mo 6.619890374285126 3.134304675951625 6.038092612339762
Mo 6.103412604964728 6.300936639694293 9.799384183314448
Mo 5.6149635028164475 3.9661714389633707 8.578494981111879
Mo 4.483752141423274 9.574789872446534 5.804281539791717
Mo 7.327466850106839 5.702935442420559 7.46958640000336
Mo 6.360541005571193 8.580905773252612 9.962193367059735
Mo 8.088299410824703 4.277269554730574 9.957601757651686
Mo 6.530711778567463 7.624223251340727 5.221096445224403
Mo 8.71117425254967 2.1094171058668807 5.177252651126406
Mo 9.20924222295388 4.213126152008963 6.1144457605490325
Mo 6.268429068413403 10.359662790116651 7.956124357712158
Mo 6.720359950502226 10.478038764932556 5.893165969937362
Mo 8.193442573299745 3.082766850717761 8.454354472449781
Mo 7.087032869914874 9.63826389033694 3.276563963986606
Mo 7.355970738147777 7.372406356406158 2.646612001711793
Mo 7.037741743856779 5.0579226928908705 4.219671591818453
Mo 8.62439758407919 7.027836875088083 9.364922957550963
Mo 10.145770769071593 5.3820024685938375 8.316906666668404
Mo 7.950821832611553 8.435012859696624 7.525771263968289
Mo 9.301198898451268 3.7891959413607075 3.2673776229916327
Mo 9.942952055753025 6.9182864667597705 6.849862560143255
Mo 8.778833192449273 8.73561624416372 4.853385118189148
Mo 9.552556483963428 8.051144156559547 2.7218419935262927
Mo 9.236921495655803 6.031179534856781 4.29407220165746
