35
Energy = -317.97011296 eV
Mo 10.40571359522616 1.6800452082800612 10.33876326360666
Mo 7.710735870991489 10.042667379560742 3.9566612471306706
Mo 9.666954545422254 11.45062758080684 7.604495115739151
Mo 7.351022669827682 9.867805658536732 6.777985466152771
Mo 8.051885071799743 5.189137117795177 5.82970390488408
Mo 5.10904543345495 10.775684202933116 5.4537073615838105
Mo 11.927968603175733 2.403617335405578 9.673512130637645
Mo 9.369658771235828 10.375146454716475 4.978848451025226
Mo 8.585522987278901 7.478369940219576 5.11628339763557
Mo 10.207573928542386 4.488645070714953 9.874979078932881
Mo 10.031787888635193 7.0914487262593395 11.449345699966534
Mo 7.330549150497655 12.046577460164581 5.8226817685419645
Mo 9.727072861500567 5.869321754016298 7.375700892440409
Mo 9.857291023036765 8.56252085919137 7.129406637312935
Mo 6.1391991924491105 9.400789141060637 9.206714417839088
Mo 7.823430279076336 3.172547833930654 10.168475501134544
Mo 11.08296136013409 7.403141131468865 9.568996466935397
Mo 8.845388557904423 9.373582444063306 9.328211008889895
Mo 4.896295016766374 6.3461657065341415 7.17689175780716
Mo 11.569683761802324 10.05436232399832 8.501482139537323
Mo 7.14292152725905 4.883712799412767 8.14652847331757
Mo 4.631781825833833 8.538314861021064 7.307511849801501
Mo 9.672082405427476 3.4666441008528506 8.038626468333074
Mo 11.169910795224324 9.697523594688876 10.657919199841638
Mo 7.454390095547621 11.130679897186743 10.732800893862763
Mo 9.729733349512033 11.757194063340236 9.959124544616188
Mo 5.633970578037102 6.821870760891978 9.364896750427055
Mo 7.290337986955173 4.754577360116702 11.012104106903527
Mo 7.35047672197414 8.202395401072739 11.408310284867895
Mo 8.488599206972138 6.659406406179351 9.5783414078907
Mo 7.3148650097417125 7.394107706987199 7.356034609099923
Mo 8.79020738819456 9.473831968638141 12.19131142043019
Mo 4.993116490019049 11.346619994531482 7.396533239967859
Mo 6.234576973796115 8.061568511287277 5.130137959227175
Mo 7.361466118673274 11.954883231728443 8.442910871182569
