35
Energy = -318.78579065 eV
Mo 7.132008172689167 7.683950021044728 11.080488405607031
Mo 8.636339840449715 6.34502066646405 9.213790433771221
Mo 6.4679939918337 4.821125045287783 9.878012449958417
Mo 8.120258274071697 8.995840636026717 10.215897822627388
Mo 4.600386253459728 6.605104222464559 10.056365928564277
Mo 10.146134566704369 4.603859992868147 8.076875166024081
Mo 7.953138905320222 3.754508709732317 8.058048368052859
Mo 3.806865839764881 5.206579586307131 8.825253629681194
Mo 5.387272135166042 3.3911991493221834 7.698953994802472
Mo 5.980004514291942 8.722143792301306 8.557315084084863
Mo 8.456943706929547 7.945110949586446 7.511652803909932
Mo 6.304600686196491 6.132277029581185 7.900347341343868
Mo 7.6157842152346005 10.520081644044808 7.415728771837627
Mo 8.897216886833299 3.2178168471059343 5.848725031158542
Mo 6.832123782261242 1.96694474789819 6.184388252886156
Mo 3.6228961102568125 7.714589878856294 7.616562030818276
Mo 8.967073709737958 5.769640619506892 6.36422694909415
Mo 6.632831680210183 11.610131315323144 5.951271404338411
Mo 8.023455604953822 9.219806285281644 5.0406229048748035
Mo 7.988643130792942 6.803715804690345 4.208398935862859
Mo 6.0662495930171945 7.781580261730593 5.929755917100933
Mo 4.850770302514628 10.139800002570585 6.799532095655354
Mo 6.546422834252493 4.657805645839263 5.502575528035114
Mo 6.879426414676396 2.3694710581160643 3.8022924950893437
Mo 2.986298155073861 3.1714415479092577 6.811379372187612
Mo 3.2834872825767527 8.076957896106547 5.628335194166063
Mo 4.1213403974250316 5.53706268856367 6.007176391231259
Mo 4.122132752779494 2.7707967111306293 5.301855873981116
Mo 7.0359661455694225 10.670516155839056 3.5071304706880295
Mo 8.151467692811858 4.273794119958243 3.5640939191790877
Mo 5.28865231300444 9.519658351124397 4.321376989253748
Mo 6.83660422010522 7.893450184266057 2.3947121347245637
Mo 5.0927536333215135 6.622010241056211 3.8219746690240157
Mo 5.355982463963318 4.313202062215073 3.3026107247756116
Mo 6.9081826146083065 5.8769116934224686 1.7581901912563087
