33
Energy = -300.70930409 eV
Mo 7.558558373925827 6.93128156328067 9.958741001725619
Mo 5.066466418881255 6.407398721227331 10.308613747283594
Mo 6.7113335840816335 4.481040366808797 9.632113074859806
Mo 3.968728738536234 8.62427797512473 9.434761059426265
Mo 5.390409110413551 8.97290620613533 10.886163271906216
Mo 9.075520384882955 7.632191429764429 7.744656760873236
Mo 10.254763196082617 9.20573661523823 5.785098091468984
Mo 4.801537208504526 5.473699055673058 8.132792614482922
Mo 9.625751086656086 6.635391885252769 5.284721901610444
Mo 4.48356761683705 7.260181916422654 6.144739079562263
Mo 7.614337434000307 9.69207853313709 6.6375223566302
Mo 5.7337668726191735 2.8695546900172584 7.646463064784694
Mo 7.0511703095023766 7.202640157795138 5.618180384027256
Mo 9.455339118539872 3.886750798139344 6.212316189950465
Mo 9.357921643563554 5.067184492978911 9.718147693307346
Mo 8.531305890071796 2.627431616007384 8.56684042855519
Mo 10.449211802830558 5.729141387554863 7.655343788910552
Mo 6.870975053497536 2.7524650601449623 6.077619235795352
Mo 6.0645469670198695 7.821801807473624 8.102633031326125
Mo 5.524853101069213 5.0117693430264705 5.773576180731906
Mo 8.644431386125412 8.821881415544528 4.233639681554839
Mo 7.292379459558967 11.109517273011273 4.206124810833758
Mo 6.1688557384607785 11.840259818016909 6.035736296294319
Mo 7.590520461976472 5.317935695167967 7.484373032392727
Mo 6.044752050466899 10.57953068482561 8.871139526004347
Mo 9.938572413220303 10.464427351592953 8.142988592415822
Mo 10.410794802408466 3.0458240054908683 8.597529034857514
Mo 9.228366430744964 11.465794739004597 5.54562516203035
Mo 8.360865442625869 11.858212518166399 7.982960439561642
Mo 4.75508958329431 9.956352602939983 6.771667080870653
Mo 5.578685731363455 9.19829051804676 4.795855684270202
Mo 8.09156823436 4.941048227411803 4.6501355745884965
Mo 7.919518239020687 9.475140511658871 9.505799297721499
