38
Energy = -347.17622141 eV
Mo 4.740397119229334 6.208596470495626 9.394532961771981
Mo 4.333191940217165 4.38158313322675 0.09471241963864929
Mo 4.118247780165042 7.122446592892758 0.13791258763145822
Mo 6.7440065034426455 6.2028088482949135 0.17561792637992849
Mo 2.3664735625687228 2.5887320205547724 1.106594093722309
Mo 4.068748557165968 1.5481105437057496 0.7138977217273171
Mo 2.72154477575562 5.472158272612101 1.9774307289596924
Mo 6.632840972320532 3.9299493961553815 1.092315845975592
Mo 5.462828718624392 5.9583380055335695 2.2811732927365576
Mo 7.4085832155915305 7.663218982983546 2.253303975790727
Mo 4.716595773427265 3.209230813439547 2.5331992433085047
Mo 3.4596224807645846 7.511398821120051 3.1217787686015694
Mo 2.9922757092129655 1.0775427340628514 3.4189987382087623
Mo 0.5998088383545839 1.5591656941847702 4.842188896574635
Mo 8.223050265838486 5.866897659884627 2.730991759534222
Mo 0.3964681866758616 5.187065071402625 3.0453900371092026
Mo 5.37924967326836 1.0948992682355456 3.486769264203345
Mo 2.265440140520465 3.4503206068353744 3.7820664459630504
Mo 6.725102869732812 3.9090527691081607 4.149411791185603
Mo 4.261994023293356 5.213420344526862 4.391974696599145
Mo 6.516031657719444 6.700920846375815 4.89129446465201
Mo 1.8026346522323273 6.420334821832289 4.510546545707831
Mo 4.519995782306762 2.4445583362794903 5.2971913540692555
Mo 8.01520230218149 5.1406242910071125 5.6104585383214225
Mo 6.954506159879268 2.3524700448817875 6.617987732376174
Mo 0.41757259532332147 4.057081751879306 5.250686962940383
Mo 3.8341293184163963 7.187908084592974 6.15704498275335
Mo 5.488442606284881 0.9088173837824628 6.988367767365087
Mo 5.589396530796466 4.741420037014985 6.630956356661096
Mo 2.12982538784108 1.8377927945753785 6.271006053812026
Mo 2.6957675444202143 4.507195564667956 6.431023732943164
Mo 5.829551209282447 6.996035881221061 7.675316385719988
Mo 2.0455448398449576 6.616876879656007 7.523022581161097
Mo 4.243551977775309 3.006130329064978 8.220283630151796
Mo 6.790048640637019 3.9953008522895077 9.083688702093346
Mo 4.116912708843799 5.837875528505112 8.620530441117557
Mo 2.2172558083450697 3.5297758356152356 8.67501919209638
Mo 6.823339799179988 2.210125314983861 9.394532961771981
