32
Energy = -289.83939904 eV
Mo 9.361348252962312 7.68716483968817 10.358776494507222
Mo 8.055815069037735 2.9527644914662536 9.082802472138024
Mo 9.447354515854009 5.4049962900608115 8.747938453862174
Mo 7.259337116706229 5.581886839707 9.797661915331402
Mo 7.6150952798201414 8.118949023183767 10.8153240596651
Mo 10.009917195316323 7.250718189345976 7.307511929890459
Mo 7.200260398752361 3.471791088124902 6.455179577955665
Mo 8.713837015520523 3.843224873918499 4.181658947563164
Mo 9.44602347176325 4.923199542109645 5.926288186797459
Mo 8.24080239134568 8.662767828313608 8.006238639209682
Mo 8.860943974672331 6.138963498949849 3.1731551857690037
Mo 9.522646258424414 2.9387544931363148 7.795199205698903
Mo 5.783648166920141 4.174014888281847 8.27584377179992
Mo 5.797718280155792 7.859455909691837 8.813197838325975
Mo 8.74988765805644 10.035413572079467 6.151528194266058
Mo 7.379803206934399 6.153145919542366 7.238253149328545
Mo 4.765266387056931 9.759986991244142 2.61443282802745
Mo 4.672954514384618 5.973075244102143 9.921588945781014
Mo 8.455642907241366 7.722718507795071 5.1351584641892165
Mo 5.9974188374573485 10.025242068764037 7.115330007953054
Mo 4.533169755484426 4.103636118864338 5.448057244596447
Mo 6.764182946324239 6.021428629935675 2.1329340933468997
Mo 6.739215726733137 10.104547014326643 4.901115882305648
Mo 4.333271418127231 6.0606105623557855 7.268577768845047
Mo 2.503775033051261 6.7994500189353255 8.855138423317893
Mo 4.315313009910436 5.794745317668815 4.39550879665042
Mo 3.4388524126580267 8.471331650604109 9.767869320187668
Mo 6.5682595671467645 7.87005666897372 3.2515273548042316
Mo 6.766499059364595 5.378663272054265 4.687263347953047
Mo 5.796706353662126 7.734147658963775 5.855266489378936
Mo 3.8323137342665126 8.740525992430872 7.334669740857913
Mo 4.165913422139142 9.335816332630435 4.282196606947196
