33
Energy = -301.45997862 eV
Mo 6.591852510143102 11.399779936504238 4.374590151030013
Mo 10.267480607790818 10.595130002240676 5.733578388593673
Mo 5.400153528844651 9.114392279551899 5.79448692166352
Mo 8.089552265945624 12.331034294915433 5.671282941878449
Mo 6.790385871169123 7.472797221797356 7.698127636350105
Mo 8.257520717096153 7.526904015107832 5.450845576610564
Mo 11.275995954228394 7.09913016182445 9.459093302170201
Mo 5.675370433839448 10.088523014442615 8.51988917160541
Mo 8.456535257385477 9.879090714949502 4.262409905446874
Mo 10.082483513622881 6.653594146316699 11.626649775748556
Mo 8.504762202311385 7.069709584116122 9.775103714548282
Mo 9.694689013451246 8.589519863922783 7.659670505403763
Mo 5.95193396578878 6.1545560929905045 10.006430239970658
Mo 7.696263734076729 10.016731592535782 6.703254478534797
Mo 10.596158575811756 8.337589862932024 5.182058816713419
Mo 12.13025898804125 7.269777894234522 6.957746465647748
Mo 10.58513833481149 9.146933223920868 10.135918956229723
Mo 10.006299252186874 4.615081016681912 9.60646957520946
Mo 9.52061779244788 11.497367260997917 8.329841496220295
Mo 7.346663994521823 6.83203723230749 12.395327639549508
Mo 4.336828031387842 8.115280250321424 7.737985814385408
Mo 5.246870250074777 6.409472922048926 5.591168165476693
Mo 8.226539458729878 8.551041841856385 12.070780702174483
Mo 7.518147144862741 4.936764701776239 6.305324547013411
Mo 4.9041757491791795 5.507043276367381 7.28195983007852
Mo 7.637272544887486 12.254014093204692 8.405064340852757
Mo 9.610853301304182 6.169904063904186 7.210724625494661
Mo 8.057469656151486 9.77480018437427 9.554634908284823
Mo 8.631201363838429 4.634777983252692 11.064690319059682
Mo 5.895290063161966 8.23948072095755 10.326801997133021
Mo 7.514783129191464 4.657007119228908 8.31844151910878
Mo 5.376735145854208 11.413875197638633 6.627517486770266
Mo 12.125634848628048 9.268405446293702 7.625186598954422
