37
Energy = -339.41226297 eV
Mo 2.4542377235462185 5.09505638276275 5.013147768325631
Mo 2.724158644927282 4.706227664753503 7.118678209100575
Mo 3.4254332070253937 3.1764884849462818 2.7228920518750175
Mo 4.29345115670777 3.3080847082729754 5.327499292703219
Mo 2.2968797742696223 6.630523540968287 9.362431521366682
Mo 3.262379931329525 5.757705787188548 1.5825968065769933
Mo 4.180455716294936 4.268434280628996 9.96103808169372
Mo 2.8790841627728723 7.449051278179891 7.056189294701878
Mo 3.369508392043543 7.524060960071181 4.02933040216779
Mo 6.515788075713506 1.851162391378539 5.459113749338328
Mo 5.315878847658191 2.6432826018855313 2.8768766674273323
Mo 5.356649325461427 3.630490053509035 7.667385383698963
Mo 4.805285019522737 6.1774502962049995 6.088980170014836
Mo 5.262007929619185 6.683317289588822 11.31639991366007
Mo 4.945667841638 5.2301069925842905 3.6702866947639525
Mo 4.961390618426924 5.123097846621704 0.9108924011165698
Mo 4.876191329956937 6.1622902457943125 8.669348197027555
Mo 3.6142622678563696 8.209990311635543 9.745084656253223
Mo 7.032073897734766 7.4539391318204204 7.0352789456339755
Mo 6.387997539853615 4.221914130678172 10.125392447251357
Mo 5.445520795361322 7.391337082223776 2.4706143735809767
Mo 4.943424451287511 8.734078453255943 4.968594487797915
Mo 4.886557082173576 8.745640255799238 7.547012944741413
Mo 7.5673462986532245 2.707808995899633 7.634360964718177
Mo 7.092620486739134 6.996205341409027 4.423056822986629
Mo 6.949199063697002 4.611416928160121 5.659186042370508
Mo 6.703932279458837 7.314927372422584 10.241105276658427
Mo 7.270051001502243 4.728737186053394 2.732036168136672
Mo 8.13041929669524 2.660093299761078 4.447696433363314
Mo 7.571450839010761 5.360263700486271 8.261459479162003
Mo 7.033465548986447 9.581396285459757 3.3371465821563797
Mo 7.770991711525499 9.475630045585254 5.142127694702538
Mo 8.164727990313828 7.108723326490577 1.8808657900920873
Mo 9.375404583168374 4.303430078571419 6.700857589302186
Mo 9.192334473092709 5.406001495446197 4.015047958483419
Mo 9.307805535439673 6.493413697341831 6.242933269484885
Mo 9.404043866814142 7.844980050808064 3.3712433480414252
