33
Energy = -300.01727392 eV
Mo 12.216962213300032 7.388962562805962 7.5352148863652175
Mo 11.140002667916177 5.539291818412377 9.920002262710176
Mo 11.321073936988904 7.6875214783637515 5.656437094701392
Mo 10.414760801515715 5.549249473703835 7.481601026348144
Mo 10.938316322960473 9.505775549773515 7.851495430566786
Mo 11.506321757516139 8.624094418163223 10.34746190764484
Mo 9.32170352940475 9.211541264666245 6.151441360472266
Mo 9.361087153435088 7.00357831150626 11.034985548674529
Mo 8.692837044329414 6.649128211607909 5.820394128481879
Mo 7.421790227685334 8.542318699342001 4.741648107593704
Mo 9.527898874232704 7.553042203874851 8.585027859198016
Mo 9.461959094268773 4.334201261247423 9.981161801479377
Mo 7.176572563780725 5.911744720371558 3.581700015393912
Mo 9.963890529082493 9.774198632649034 10.5598748320793
Mo 8.026380545658691 5.110293945639938 7.768312978462413
Mo 8.207308236502536 10.269655281154382 8.316152145402839
Mo 6.9352004552065285 7.963418296072505 7.610245136227356
Mo 7.45538442148272 6.1105161721277526 10.02694165745671
Mo 5.893358701354393 6.078658241068837 5.877913811085756
Mo 7.272987152598754 8.716815460975766 10.345100416653938
Mo 7.133271158400775 11.078103946746703 10.351743503339861
Mo 5.764715608649658 7.283625450063698 3.1518433475971332
Mo 4.455427676165492 4.780048355218504 3.895884489096601
Mo 5.578500774647335 5.541356454432903 8.493738800940294
Mo 3.7484376910966146 4.783427595567114 6.793075577864816
Mo 6.622108573999135 10.33826817429684 6.4225096799665415
Mo 5.676814944391492 11.572829892855433 8.34872297589134
Mo 5.015177386315177 7.74814231065905 9.490195422299355
Mo 4.808189499141431 10.179791622042751 10.029553007707916
Mo 4.889584803866206 8.24635303368105 5.523506541117862
Mo 3.3689184647282926 6.706741158169159 7.263538752512058
Mo 3.2970740352504384 6.173363862814135 4.350388981649282
Mo 4.437553619788983 9.359434334596552 7.656247356108577
