36
Energy = -330.12755887 eV
Mo 6.003984431509751 6.760097148214557 1.3801326829748253
Mo 8.04208022574425 6.844099707237616 2.715439476274014
Mo 7.114999443055991 4.6866182151979165 1.3513363358507566
Mo 4.758051100823573 4.822139578467442 2.633987835010217
Mo 2.8747983376142545 3.1266631195464862 3.178143169693117
Mo 3.861842942969937 7.550601534524816 3.075186315169336
Mo 5.696859274426482 8.902366035050381 2.692438383471355
Mo 5.755009318391944 2.420034975185152 2.7299603735829545
Mo 8.815846626477889 6.361305853679346 5.06959562490378
Mo 5.956446728919376 6.424320102351606 4.342561612614038
Mo 3.0351874526413476 5.428338507386125 4.579196915395318
Mo 7.85522462391508 8.733387406001913 4.362401584872323
Mo 3.6062733828086815 7.582945953050747 5.599245066657483
Mo 4.298186118526215 1.2169328132943038 3.7377001674254466
Mo 7.477724454695762 4.341060638126887 3.6157458414314627
Mo 5.572686886343865 9.152067136602986 5.037941106580897
Mo 5.0421231081540165 3.6943264427843805 5.1161173003248
Mo 2.7396508494621545 2.7760633348145007 5.509414595714589
Mo 6.964736048999753 7.279951891443864 6.67360268284412
Mo 6.8448302928507445 1.7779210948084245 5.317809870304247
Mo 5.171354735498753 1.1650080555479052 6.302099223422352
Mo 9.47973954704086 8.952150674521512 6.501634265614577
Mo 7.494452870302896 4.472392563639841 6.205564433408165
Mo 3.648595091057968 3.3512882645819873 7.845225780357475
Mo 4.820521503212853 5.694314356496155 6.9575623887627644
Mo 2.104737452107307 5.130666801266548 6.8196845732224824
Mo 9.376183280731 6.302190741409741 7.726679660382952
Mo 6.147982722425386 3.1396287669405227 7.769793357765545
Mo 4.938841362988329 8.776949303792422 7.762009345680673
Mo 7.832760517546569 9.81597747773629 6.965305090910464
Mo 8.402053835006553 7.531006181296197 8.899527321403477
Mo 7.004944532001178 5.175292035333301 8.700058314178309
Mo 2.1025575781137817 5.042363040688756 9.374540886116858
Mo 4.577219721641146 4.946540271332112 9.510841828564134
Mo 5.509857229040599 7.523082929856186 9.174965494887319
Mo 2.841106651068296 6.869357325904456 8.536001372341095
