37
Energy = -338.38698374 eV
Mo 1.9780772824826505 7.574240605245176 6.225330980403789
Mo 3.29642246087806 10.1912270746797 5.501920907748485
Mo 3.8486334655449994 7.6362010093991675 4.549132476091138
Mo 3.022075144191771 8.80015858477215 8.16996560131479
Mo 3.653251050235042 10.216368762290573 3.6594566227507452
Mo 2.7596881135076288 5.475735092585413 6.247032011384165
Mo 5.755150542147176 9.35072788086795 5.339451920490968
Mo 2.9904505358356466 6.282910696870093 8.612984385446762
Mo 5.603746692445103 9.489429388553141 7.762801800301942
Mo 4.86821367487836 7.138430057240134 6.941468436718336
Mo 6.001357222085016 8.808711274711095 2.8360527045996817
Mo 4.346541975285898 4.981591550785642 3.936737504854582
Mo 6.5329015490350875 6.74570745073781 4.342390657261041
Mo 4.622465146518922 7.265546264538781 2.1734995799416645
Mo 4.798229332401021 3.7755605441248306 6.305731448171798
Mo 4.74656867057436 8.355746587130128 9.663320189323409
Mo 3.4583633682055677 3.852132829116196 8.479070080119127
Mo 8.832838863799882 7.714005481726015 4.3810108024217005
Mo 6.404878092291643 5.0240461949234305 2.0075774288211714
Mo 7.359059911946653 6.77170764801123 1.6105333424291783
Mo 7.361771024222412 7.562449814809069 9.120322131198407
Mo 7.661849297056567 8.074812258277793 6.497820296024633
Mo 4.83928170481259 2.994423568474423 3.6632357573027594
Mo 6.876214121363116 5.47057487041064 7.277746771206656
Mo 5.213494929609007 5.848104813058941 9.487837873772225
Mo 5.717644474671627 3.4903113278988442 8.884207817506647
Mo 8.696337097728009 5.141462060956848 3.318234812914046
Mo 6.929005510523871 4.196965448554353 4.841324477805443
Mo 8.047024579301171 2.5313422482872023 3.1476088569172056
Mo 9.160772871299127 7.032397499500792 8.350793540586428
Mo 5.652719291854471 1.4102219774163367 7.263688611455521
Mo 7.975070991410635 4.707614274927097 9.576996237279452
Mo 9.151721832922114 5.806860416127637 5.687412692702962
Mo 6.392401629376121 1.5196386569478622 5.458674632750808
Mo 9.541127608150866 4.360815483009801 8.130592564393865
Mo 7.952699315968094 3.0034007372872953 7.131702963862993
Mo 9.241994069156544 2.688463009462336 4.706374525441537
