31
Energy = -282.33958136 eV
Mo 7.678553025277315 6.597804756983325 10.27226509883439
Mo 4.945922164556778 7.272463584935804 10.612852835873793
Mo 5.005575427282958 4.198251908061055 9.879290107896635
Mo 7.23891912547591 4.405561315781738 8.743773845365576
Mo 7.4291846642968755 8.293770721330137 9.179586114950267
Mo 8.543111009666804 6.48769712251687 7.625487791121263
Mo 3.4912789375269018 5.845964280765342 8.561688943686232
Mo 5.856327957833336 6.3408196663721315 8.157604093907066
Mo 4.422334293298791 8.53605539946535 9.312664766625236
Mo 6.544043952004575 4.112161245404024 6.316365179293867
Mo 4.639107780227974 3.2210461821966527 8.114824577909745
Mo 8.573243166167543 8.66858087370546 6.3453942470422335
Mo 8.969218343216701 4.814503869157703 5.946149116566821
Mo 6.696867987321128 6.670914351226047 5.616405083775999
Mo 9.350553908143068 7.265340420514699 4.988837561441681
Mo 8.011768783913562 5.009745014172072 3.803365113272493
Mo 5.874579017813638 8.924651207540133 6.9086553184367485
Mo 6.896928901332626 2.7106474503573783 3.76382203366904
Mo 4.354115412275514 2.606489190941543 5.227958859430183
Mo 3.9681216216239044 5.056301300341589 6.312438080611025
Mo 7.151289862689347 8.975376727505404 4.036290582886429
Mo 3.9712808817353125 7.760260470111957 6.495952521136417
Mo 7.200547484108606 7.404765281106382 2.8828318593836904
Mo 5.245866226907355 4.999444850577672 3.8849901698801412
Mo 4.678386525051336 7.827779599012842 4.264867042701501
Mo 5.361114417973213 2.6910947373532133 2.423998280232436
Mo 6.507033384940047 4.803980923115091 1.7420363870324513
Mo 3.0332312304858884 3.433047278114366 4.0509315992884325
Mo 2.9583045484914217 6.214288772312965 4.112620548044234
Mo 4.463878242935743 6.703561749886734 1.7161061312503023
Mo 3.7044725979253275 4.963519018309777 1.5261200134908481
