39
Energy = -358.38272347 eV
Mo 2.2981638527887567 7.8010950562620875 3.1794015991955393
Mo 2.2732410408822883 5.242959321820519 4.668372237223532
Mo 3.4303733592845127 5.341850144889364 2.3628489775465567
Mo 4.805911070927599 8.010784178149073 1.6641317319063305
Mo 2.0451832159477803 7.546409773027249 5.439235475965592
Mo 1.6298759057040881 5.156236231538901 7.378680630299479
Mo 3.813148447645886 9.341604843756802 3.9451571932329315
Mo 4.652693363545093 6.949416967469489 4.292445799949331
Mo 3.039929355482799 3.7464325546858244 6.585058756535874
Mo 5.959711422608017 6.337766192901904 1.9033118106957327
Mo 4.650090661637747 4.359807759734009 3.887179940731421
Mo 2.6065459325043427 7.422273894328588 8.005271977654331
Mo 4.256913956947128 6.076509574340077 6.725705381655478
Mo 6.5427069093442976 8.831170090976608 3.425283454987326
Mo 4.171057573483355 8.811041098998407 6.4153091864579945
Mo 4.0582292510811575 4.756376550068182 8.92707044286452
Mo 7.591060407594939 2.787275851741241 4.485742358941265
Mo 7.0682510033745976 5.390197980914031 3.9742801970983224
Mo 5.799316908588321 3.837883731114766 6.540455399978394
Mo 8.389282625482616 7.531187672377905 3.4743609417992274
Mo 9.856779267495353 5.215995633148879 3.99848514376888
Mo 7.91103834181041 2.3994505229000826 7.424238693526782
Mo 8.216942891649545 4.883866394226151 6.254355957365936
Mo 9.339535804343646 2.4745008632803756 5.29610894154946
Mo 5.954238112710638 3.285948742284962 8.91447931848164
Mo 6.6104107690101115 5.862365285550585 8.152079151927875
Mo 6.510228896538949 10.218088561216497 5.614118569393228
Mo 6.831069637177839 7.370760881460248 5.809427856146633
Mo 4.624259554161763 7.220121243478171 9.416018627141575
Mo 9.473973424475773 7.278109755933806 5.839011516961781
Mo 9.758469439676025 3.5010825908203236 8.168468524057067
Mo 8.345876825552415 9.751024140392108 5.428124220786656
Mo 6.112786622897844 5.528984975373658 10.920450109259388
Mo 10.821014386024109 4.920680268326887 5.7109301172306735
Mo 8.232134789755396 4.204274681875389 9.733315490720308
Mo 9.456109972088672 6.096857735037825 8.291681157809451
Mo 6.067984372105495 8.602971535393788 8.078146795173492
Mo 7.372923494279879 6.926241543534429 10.552581212037806
Mo 8.447618292247622 8.074033829454379 8.140700320655831
