33
Energy = -301.87569706 eV
Mo 8.595116173589174 7.372808321216369 4.5647441460294536
Mo 7.091306660245254 5.951842832194361 3.0420502399869647
Mo 6.199737676545125 8.374624061201745 4.081675719328278
Mo 9.395821274702262 4.494398976404192 3.826115982259863
Mo 4.466567266148359 7.333655857519812 2.1741075954647644
Mo 5.70589528491629 10.18851941583296 5.905853100795455
Mo 10.263059921731887 5.51451129855712 6.27538175111642
Mo 7.64788072279958 10.09641557765034 5.426926359264301
Mo 5.156386575007795 4.667399355588187 2.326877088306852
Mo 7.7844377100740765 3.4762717611672698 3.601569654746071
Mo 9.27007637738458 8.201165332595222 6.6023660059090234
Mo 3.4122932735269487 8.036040471243231 3.6136207636588753
Mo 6.751968222291541 7.670139513821474 6.7536535098725325
Mo 5.144203571503891 6.109359109034306 4.714788621258269
Mo 7.65348868323956 10.091001957713852 8.212064975375188
Mo 9.539157141576874 3.6401411896798708 6.673845285403813
Mo 8.183631128918728 8.543916141998094 9.231627612865653
Mo 5.387339468921206 8.819151643291166 8.6366013213829
Mo 4.068218057478943 7.893764596232809 6.423187216578298
Mo 7.508259148823141 5.192592992381717 5.7806137883781465
Mo 8.594982423562547 6.071020873800766 8.045230384434143
Mo 3.2597450421493925 5.06260541531519 3.6915225110846044
Mo 5.044053447169648 3.4830290942126814 4.861932417613094
Mo 5.080489602838315 5.262690789061635 7.2003924444407215
Mo 6.166490297586955 6.601579190165666 9.248023470605926
Mo 2.640008412153422 6.111371280866991 6.0842210477299
Mo 6.845691570892056 2.823481470703047 6.503959941318262
Mo 3.736053162338867 6.897993172232562 8.811396352890425
Mo 7.274378505585573 4.057535375334163 8.478779574479931
Mo 3.079692442457037 3.5320307248693816 6.20303417103233
Mo 4.611773367685385 4.2551330974066754 9.698830000218308
Mo 2.808813165448784 4.608224293460194 8.74280148044296
Mo 4.681458474830817 2.6009433617448185 7.624118283846689
