36
Energy = -327.93906113 eV
Mo 9.921148315291306 8.190769908618547 6.382922795676101
Mo 6.871900233698751 6.467090683756666 8.9911132945176
Mo 6.919279036095392 4.995578083937379 11.113798044341797
Mo 4.502358658931208 8.691246442680448 3.7029177660456822
Mo 9.07442495531986 5.841894055380766 7.367168689110977
Mo 8.653689219587374 8.502717725400123 8.610002460335473
Mo 3.171058102676941 6.713663037246946 5.642720751393158
Mo 7.079696438489568 7.611117951413945 6.644469525044613
Mo 4.412222187110995 4.1237959686720815 5.736144325628605
Mo 6.956302784564214 4.496481979021043 3.813113595663242
Mo 1.741822258159039 8.284129807814463 3.9204693585383974
Mo 4.961631235763179 9.057676544585176 6.247440381900004
Mo 7.721224590890983 3.903822184444127 9.730769677581652
Mo 9.176564855686667 6.161445138114115 9.892612750758326
Mo 11.426917251588247 6.924981420385864 8.499141592946069
Mo 7.803792776353978 9.874855619700186 6.063242420170957
Mo 7.5381831371430295 11.137573968850806 8.512861372269084
Mo 9.513928901850118 8.80952138848203 4.147288643713362
Mo 5.8663727467216855 10.52205729258903 4.383465727471734
Mo 5.440310249535376 6.507374009240828 4.8626508575544465
Mo 7.248234292482943 8.525173118337188 3.8653005567074117
Mo 11.659789526575345 6.262031561744407 6.714009767612829
Mo 4.97819493906571 4.68708023278878 8.556203270509693
Mo 5.843533471165767 9.121429939593936 8.753897200594878
Mo 7.0142748522762215 8.337205919125065 10.948128848415143
Mo 2.8859083789160382 4.53279303368955 7.048678538710223
Mo 10.48354046608665 3.96867002354773 8.339517750374167
Mo 6.721242707224864 4.649000252680956 6.734737050611726
Mo 2.4252910622634802 9.437609482024694 5.227089256331808
Mo 8.98897931314248 2.9300827614721796 7.493479342148058
Mo 7.345765147319091 2.806928120350876 5.036120229050527
Mo 6.0071029512786405 11.476273814707916 7.401083250667345
Mo 5.208541255958098 7.476771485729446 10.710689188646434
Mo 8.48642531158795 6.367641199438843 4.665256485348935
Mo 4.591676146543866 6.889803076236992 7.670003538871299
Mo 9.356819465131446 4.1623259487986495 5.349098598603846
