34
Energy = -309.42706408 eV
Mo 12.65643316842147 10.395882043269168 8.39622273499003
Mo 8.44998259357313 7.149768051129067 3.729842667940177
Mo 9.775105436113167 9.251723177680486 8.04133121507626
Mo 5.36111521202798 10.302212840212825 10.375870141539766
Mo 8.658899141431576 4.5154848027456085 7.096360084800186
Mo 8.044664598575352 6.483105735296372 11.330163238581209
Mo 9.150501791323602 11.964159683521192 9.16519399813708
Mo 5.479958220590392 7.502554159628482 7.276628386920485
Mo 8.38322040765864 7.103590995277605 6.731569747834423
Mo 4.7416587362847675 7.562222008938619 9.987156799956624
Mo 10.96941392806434 10.56102971625888 9.976371268409586
Mo 11.039526892715909 5.959956867869266 7.3721429011486475
Mo 7.258366161703779 8.405157412491358 9.29765188568004
Mo 8.708386048548935 9.31138499010361 4.714380674992486
Mo 5.43986096359751 5.947860135143913 11.285592967995772
Mo 10.41468053228139 7.758637800873226 5.576953721084637
Mo 9.928495253527746 4.9344347073730965 5.431780370841719
Mo 9.485504273456698 8.629201963786286 11.006636060010473
Mo 4.526175770415718 5.499651062730055 8.367743084066765
Mo 4.775291687936504 9.848340265030087 8.475577356811186
Mo 7.022605534795752 9.384100095188174 6.695204902018581
Mo 7.0859529928796485 11.215312693241428 8.572804477010346
Mo 9.464098983648627 6.466743303186027 9.113515318285101
Mo 8.09170155476009 10.312544561198964 10.99782186066258
Mo 12.370754928590156 8.103960974904597 7.3868107450559535
Mo 6.716028098707007 5.784099357104163 8.913262617725863
Mo 11.598660902908792 7.792735741252883 9.47769072541362
Mo 6.564260000113122 7.405153177968602 4.684671187308048
Mo 11.40806621772609 12.136352135517997 7.539270209269506
Mo 8.942005608926763 11.205003062136013 6.588432687718134
Mo 6.178338219105185 5.056618241236851 6.1166218516051805
Mo 6.656388117064116 8.08925425371176 11.902317848987321
Mo 7.346267240857966 4.690389304226642 4.546397290295446
Mo 11.160804229387246 10.48952339005983 6.023150536905726
