32
Energy = -289.11285339 eV
Mo 8.408085169173013 4.304706782759229 12.3492913005796
Mo 10.830375768405164 7.793828391592025 5.042593306313368
Mo 8.546912110215501 6.357129257887521 5.161918814408064
Mo 5.791513198299196 11.26509007897796 8.173653795932376
Mo 5.701036944054529 6.287070162804109 10.823267238875111
Mo 5.724800300829042 7.003906185536303 4.565039143715673
Mo 9.832936162412896 5.0163342572754965 9.896270721054432
Mo 9.26960434414795 9.112025260231517 4.527655347089104
Mo 9.929366141918885 6.757354156671191 7.431058396494794
Mo 8.812116694489873 4.716358434780815 7.34259159128202
Mo 9.90414828564178 9.22958287575571 7.111407015161392
Mo 6.7666654214412025 3.7911981923041496 11.721747855571222
Mo 7.424464647491347 8.077652671589808 6.618345876580828
Mo 6.355174432609137 6.512695923878337 12.64695802562033
Mo 5.551205035091788 8.707864725403882 8.803865096976377
Mo 7.55227107037512 8.21406651284406 2.510419038577913
Mo 8.666834604398739 7.108369632239528 11.488461197147927
Mo 5.38558811277411 6.395190499223632 7.690784645222915
Mo 6.595592280155045 9.604339233020594 4.834595032813915
Mo 6.924341792040923 8.77167532608377 11.156814402875705
Mo 9.123667615974416 7.124810282299445 2.6062379869764136
Mo 6.71285333466117 5.698853666701202 3.3866469453134997
Mo 5.485644374253365 11.566546908941612 6.266765259268282
Mo 4.780835708564471 9.00961314074815 6.704267454110707
Mo 6.383831842396788 5.131975295130229 6.162928795751924
Mo 6.851683103512824 4.593431561917738 8.871256377569036
Mo 8.956023119777363 3.2762047240430174 9.738648287949383
Mo 7.8363375103408766 6.890624021568453 9.08000847007804
Mo 9.01739324026873 9.772776829084105 11.227305769553036
Mo 7.975989176320261 9.779577735347027 8.836727997616903
Mo 8.026007311760551 10.826916269120842 6.423531889448402
Mo 10.014466249669047 8.319467150747538 9.691369969736462
