30
Energy = -272.22206957 eV
Mo 7.063241477184776 5.420822824303866 1.7416938235238204
Mo 5.668224879591826 9.162005794614792 2.9900355373757033
Mo 7.797786370975839 7.404866597401647 3.530460829895681
Mo 5.554428197160576 4.224985459459477 3.8383611457004165
Mo 7.031314933061805 10.160439969008708 3.870375394789989
Mo 8.492365909728964 4.941965823452194 2.950629665149613
Mo 5.2203388134624245 6.358189903913524 3.366285775323624
Mo 9.525952084535815 6.781734365750351 5.19943502809041
Mo 3.573938331659209 8.645873247279692 5.024263867080997
Mo 4.6070871014591805 10.24896675129016 5.468395646755674
Mo 7.15583523915349 5.466654305563586 5.368071127688071
Mo 6.242549653786288 8.063252494078188 5.595080044907192
Mo 4.245705084980312 6.09962519477427 5.631946182512948
Mo 8.937315880427636 8.980425659831278 5.556284693753796
Mo 9.003243991082932 3.995372023726594 5.682580265229183
Mo 4.918595386803249 4.03555268490765 6.384088815441004
Mo 3.127429841777633 5.875080383783677 8.120115113149703
Mo 4.405616263764633 8.322150311701375 7.554407627524524
Mo 6.426379820998049 9.788031915009343 7.669365528970801
Mo 7.193765899893255 3.4744570459324007 7.589672503029935
Mo 8.182000993990535 7.932037991953966 7.448829310146326
Mo 6.158357441778236 6.129024697666707 7.927597191049901
Mo 8.867072573936952 5.317851094455124 7.579594702894532
Mo 5.070730688772561 4.188773627151411 8.986883390592233
Mo 6.265800146456438 8.28012896071953 9.424462963520101
Mo 3.86549039632801 6.683012562740731 9.711444170247068
Mo 8.232280114676454 6.5807456280427274 9.96970599580568
Mo 8.657369010678314 3.858264654419632 9.920054372760877
Mo 7.008947722195939 2.8968826258559153 10.24017497657332
Mo 6.495526486315987 5.677516137829441 10.654395047134368
