36
Energy = -328.52679925 eV
Mo 5.519532661491579 4.111361115623319 3.40344689625315
Mo 5.139167684479878 4.204337331034058 9.235493562783617
Mo 10.436671089498548 7.8035560360349505 5.380657511375269
Mo 11.0071275741178 8.10649680753317 7.876158019081997
Mo 2.5877959996792597 7.552226917950695 8.178355962448675
Mo 5.9182364227991915 6.105565577806801 3.170537048598096
Mo 6.215504840499694 10.291202417475557 6.162917947882648
Mo 3.4726089040748334 3.3761387766354356 7.062718558409616
Mo 5.624134500690947 6.769299453874255 10.197901912886605
Mo 7.094295339830356 4.745468407479532 5.394585768055557
Mo 9.760491024981642 6.073311316943633 9.076766228790756
Mo 9.335870255389276 6.11667042340245 6.621861272669547
Mo 2.938589053004057 3.385478879075196 4.236700015353932
Mo 3.2860835416709273 6.565837032963789 3.249965616720606
Mo 2.839182352006751 8.72328997301132 3.8311028338990827
Mo 9.32590357173744 8.873560502576968 8.99233659418789
Mo 7.501330271221838 4.4344499231114884 7.994337461927668
Mo 4.119619484205215 8.552149220542148 6.173410161547822
Mo 8.697864633256039 4.690778446330556 3.3177624009728355
Mo 4.227659271391142 5.615750505583076 5.486413582464128
Mo 7.040860808121378 4.916011852365206 10.398653651027246
Mo 7.4998429399966 7.040047395952411 8.636735304026901
Mo 6.583641098688335 7.242359768620984 5.932051789034828
Mo 9.869170679871244 3.8432388651309815 8.184111864005983
Mo 7.670034526535628 9.451116141985402 4.281416084953758
Mo 5.247019816481266 3.100714080253135 6.447219084571936
Mo 5.4208169334325 8.520795576169022 3.983330364702209
Mo 2.09547393952037 7.091782943948903 5.468226411566696
Mo 1.6226752304794294 4.4331690016236225 4.94798135605158
Mo 9.357396195867677 3.731446551401668 5.879163023718974
Mo 4.890938788164216 6.295489680943486 7.966500209552312
Mo 2.1383083567338352 5.699778194569993 7.82485601444052
Mo 5.940701159906619 9.224227298103301 7.913893367908103
Mo 8.601263486007015 8.902675955516427 6.678706854237721
Mo 8.363225223176642 7.08609615897789 4.062542096231493
Mo 10.563382264605995 5.251718772123856 4.164864334086736
