37
Energy = -338.09601531 eV
Mo 5.983486896929529 4.117477850442112 1.4259507244579626
Mo 3.400160325320467 2.704053527441354 0.5624253897751997
Mo 4.0112203198025735 6.066012459138333 0.4023481525747414
Mo 1.543350663086344 2.130655149572914 0.4634440317369134
Mo 6.664609168764284 1.6326145435561252 1.2562789108361305
Mo 3.8562267411502513 8.412247612374918 1.5543286392369446
Mo 5.890361944300698 6.693877623849576 0.26292852862881544
Mo 7.467451569919158 5.703122660773732 2.485847791444366
Mo 2.602576207945358 7.248155581998497 2.7798736188355018
Mo 3.671255663088621 4.51053286529309 2.5732176259428017
Mo 2.547815433111871 0.03449866115476383 2.0754008999098525
Mo 1.3206500837802655 4.692037296952631 1.9370793978594418
Mo 7.396438389971364 2.1310120383105686 3.058759077490523
Mo 5.406457617747417 6.666366292476282 2.9106952705953515
Mo 1.0849566255946408 9.010706673245782 3.6185719422903677
Mo 8.711933635252322 3.0533532126826746 4.369953609814324
Mo 1.8874819037425752 2.303026542772868 3.0805881444807914
Mo 4.691388741306841 1.7672483473820673 2.8698985653483917
Mo 4.634886698997515 8.440900009588422 3.662027477696057
Mo 1.3638263043713574 4.9893110655756745 4.2212402258876125
Mo 6.0861611323050875 4.156511250856577 4.138909455419693
Mo 3.787489861906581 8.440900009588422 4.623406502784988
Mo 3.887581361703425 5.802057526205476 4.940700812272267
Mo 3.2936455262469386 0.4078715676180942 4.97561366436849
Mo 3.554793585749948 3.1970566366520408 5.022071206282502
Mo 2.0790786064450453 7.615191871297194 5.770408153436399
Mo 0.947372644861081 2.3909446662186165 5.70192450333968
Mo 6.4089859681452435 6.784352911868865 5.571444243226705
Mo 5.729090513006171 1.6002926458636593 5.344919526771978
Mo 7.411630590658481 3.6794658756635528 6.112159558751141
Mo 5.143404286726194 4.578194016365268 6.974686951976316
Mo 2.221937892466976 4.814275193518678 6.987997209440933
Mo 3.747923211412003 6.919237236443472 7.234434621598582
Mo 3.7655488367126377 2.322961696115033 7.238279597198795
Mo 7.047640072859726 6.276720080572217 7.290497968643374
Mo 6.2674406243064125 2.2459398439109504 7.6005091825176585
Mo 3.391662245008885 4.403933672999528 8.773905890198122
