38
Energy = -347.80951766 eV
Mo 0.41567094199781845 4.106890252509194 6.928879922913663
Mo 6.126596098538782 7.500226861129542 1.107185600086453
Mo 4.8364624396597655 0.4393965667660454 3.8907824347277224
Mo 0.38153805462613677 6.180203531814255 3.9625594769255765
Mo 4.250372644345925 1.7986882882177855 7.825950251387536
Mo 6.026212043329366 4.043112359820119 0.5558656397589347
Mo 7.1589442011373015 3.2080221745292974 6.852060471495793
Mo 3.39246590915482 0.41891131049250224 6.358342346043076
Mo 3.421388734045445 3.768575053117997 1.8274545325643468
Mo 4.734974112193275 8.179030666996283 2.3247038247884437
Mo 1.2326604012636226 4.001036421529207 3.82889749384986
Mo 3.8113259436408664 6.859186101657372 7.437201828951039
Mo 4.701826848782657 1.973704060730916 0.2930053103714316
Mo 6.541170480334162 4.794253973288704 5.1356850789141335
Mo 2.177274571119441 0.021245846119906504 8.780320996926173
Mo 5.444052268299334 5.591303301080824 2.7810586599835854
Mo 7.806146195865048 2.744911527136691 1.7154377551995499
Mo 2.715412864636365 6.21896654083471 2.626388139801563
Mo 6.577710610275863 7.171259972778992 6.324071477913308
Mo 3.8610941477337413 4.3277968026743885 4.456303574761089
Mo 3.473331379638985 3.2747147938295664 8.780320996926173
Mo 7.007108876210119 7.3546978697397725 4.428298563312348
Mo 4.270818860272769 5.8995290321409595 0.48271234171076355
Mo 1.9034315762304619 4.460673673372909 8.20346658943306
Mo 7.941671860403732 4.906669556265782 2.4818460813867826
Mo 3.1398272791062762 1.663139623116375 3.65096104613982
Mo 4.273126872228805 7.002236472233273 4.9343565710522554
Mo 4.551436150510337 4.796281474547461 6.955952307576612
Mo 5.3770180440930595 2.2503197998807134 5.7077107771554045
Mo 2.5269282546527996 2.8398552245232525 6.098333490720973
Mo 1.2249314864002834 1.4084097150419976 8.123435192285976
Mo 9.006112090078837 4.709572151112276 4.769472590460592
Mo 0.8331121100398272 4.58910924246049 1.3622126103884202
Mo 2.042574769913666 7.930901280994799 4.323774243699516
Mo 2.0664994581900546 5.869682110926417 5.862611161117917
Mo 5.761928726683906 2.844685741039926 3.054026674082789
Mo 8.209389313221664 2.724036843721696 4.469842349186409
Mo 1.2691933941752318 2.620503794859774 1.2269818655902822
