32
Energy = -290.77725655 eV
Mo 10.58991908877147 10.317886685620033 5.357777439243802
Mo 7.864966737624538 10.8492086116491 5.749307680224854
Mo 6.656377396623345 9.855385720239509 10.586033049572093
Mo 6.296694383440397 7.210565897756954 7.002757298737345
Mo 8.818723639737897 10.922348176382199 3.385946881334587
Mo 7.483024364363791 7.34335300064549 12.148079428704605
Mo 7.528482048290889 9.23847612751823 3.4602331654429843
Mo 6.866677352538859 6.5172016921470926 4.370912300297319
Mo 8.627217796855234 6.53273087819219 3.383090083147205
Mo 4.582506859393158 9.098998496443954 8.472479170007347
Mo 6.097418391620006 4.653636647506032 6.8421331005540615
Mo 5.994271953461492 9.446182070257539 5.6990302530087105
Mo 7.186553524647825 9.71761849140391 8.078675902516029
Mo 4.741475143689617 5.529061041228404 8.741639624282111
Mo 8.49987007074955 5.589886973411047 6.044934809272921
Mo 8.800638535635843 7.479530879238155 8.164426340181198
Mo 11.37561337963977 7.317615851225184 8.975569742327592
Mo 11.24617970148669 8.166795522114986 6.523447814522064
Mo 8.630934308764202 8.33534308104776 5.633909767762543
Mo 4.9821259110029 6.097777859832496 11.646425937069026
Mo 9.354762718529608 6.264866928184866 10.412827161841102
Mo 10.709348066548726 5.691523800013444 7.8418813381717785
Mo 9.550237195306552 9.837653590817627 8.041931593472539
Mo 4.867102523647091 8.1221312917686 11.918920007930488
Mo 7.5879507050023856 5.09278482133139 8.571804940459225
Mo 10.450901073002877 8.906018015554144 3.783113797532885
Mo 6.4868726676307755 7.367907343257385 9.757651050553768
Mo 8.689173716038292 8.958706403045968 10.534279880691283
Mo 10.647526336495645 6.456596874881854 5.0994634757719846
Mo 3.6098770621879117 7.60483143683766 9.754807167344826
Mo 7.552937731668672 5.208422095153646 11.341676888269882
Mo 3.974698096320816 7.130344597111055 7.096878950691078
