34
Energy = -309.05144465 eV
Mo 9.899629252388939 6.6514880652522015 5.93903982428216
Mo 8.338603351175509 5.93923409344966 8.148718499052281
Mo 8.845835225340116 9.426441825028224 5.826313611593038
Mo 8.301701043801158 7.806318714827837 4.159421088842901
Mo 8.012133686334284 10.38396992931401 3.6121544175679468
Mo 9.74742246929482 5.406731757244847 4.416373275783371
Mo 7.011779353419277 8.159229391195963 6.698964366480884
Mo 7.3435985628295315 5.600636629284841 5.584514055659485
Mo 6.736967160613886 7.483861193517084 9.242325970950716
Mo 8.636979786720014 3.6185135634666663 2.3513132502406715
Mo 7.152980105195353 5.886780273888965 2.8262820642559565
Mo 5.548712572737656 9.777014204210893 8.069281526120058
Mo 6.0501010347828705 8.047011538667249 2.544254331544013
Mo 6.375922285508494 9.94068386785819 4.651075744335279
Mo 7.607854302100062 5.267610403933399 10.754691805018307
Mo 8.785603178093488 3.8984021447037587 6.709280275435395
Mo 7.8139659195516895 3.1131384511839846 3.8981706403371206
Mo 4.307273213416731 9.220081193060361 6.389443067413643
Mo 5.726602372675829 4.226706564904723 1.9112744674065025
Mo 5.28868956882423 7.224395382084448 4.783357915159013
Mo 7.099844078894946 3.7235242374301913 8.73714486773382
Mo 4.445223963424023 6.13202584517579 2.167880367454983
Mo 4.345511116942037 7.8632036378073 8.91056202923267
Mo 5.655772517624438 5.376365308316998 10.446349942008034
Mo 6.333481066916759 3.238463148533323 6.499800868754921
Mo 5.630636851812373 5.6821582437454365 7.584168253168703
Mo 5.249155076868399 4.425315903625119 4.3484663492094455
Mo 3.4417995520050253 6.843670792840206 6.752357314416664
Mo 3.226053499902442 5.687752578364007 4.4240135000926495
Mo 4.381438613446623 3.449374701323266 8.749189207221285
Mo 3.2153329392018213 5.456463800950284 9.095314511068267
Mo 3.5995019518207694 4.137294910519597 6.570334230130755
Mo 1.1590352939658677 5.01477687473368 7.15797505386218
Mo 1.4053901411028573 3.6557397302486687 8.404264918104493
