31
Energy = -281.40534436 eV
Mo 8.66028690239547 4.102867333059184 3.447704596231479
Mo 8.358719558966166 11.092008654467955 10.1473105357142
Mo 12.129908917405132 10.084959047617643 7.1348422359505825
Mo 8.289141756217516 5.810146837978546 3.099486311426525
Mo 8.236478791565714 5.735511694072554 10.656359915230528
Mo 7.633131479201072 8.26666235308457 9.900195951975455
Mo 5.213554391464798 9.191427991304773 11.007375771612134
Mo 7.376646975855402 9.724118039233627 12.004653205495115
Mo 8.574263872134974 10.312586554708187 5.5278924245566134
Mo 9.635749871062556 9.601533394802674 8.077415236828015
Mo 7.804999382363599 7.86168745671789 5.0962802530239
Mo 9.305233886279165 5.076541272902069 8.47526186750687
Mo 5.478231342847106 6.4230155557732225 11.003811067019273
Mo 10.191316283465174 8.518393430899984 5.551744580671834
Mo 7.02888586230149 9.492064540793942 7.249226894633049
Mo 12.244612160952421 9.481519937606592 8.98773483222797
Mo 11.189632349951442 7.362573887640299 7.339383853962097
Mo 8.062734118827407 11.92090307572593 7.860493435705056
Mo 10.277662646210116 7.094999677467444 9.49879589244111
Mo 10.08938879070672 12.018377023895981 6.824305407433819
Mo 6.685286755608369 6.998616481722196 12.372442438515305
Mo 9.668812019050085 5.579862919082268 5.707242523040904
Mo 5.547201632815082 7.203816706094349 6.649610568152278
Mo 7.64186460955942 5.205295735410555 5.895034658098066
Mo 9.360207093436093 7.99513892478937 12.135560538625981
Mo 8.402281571429869 7.299311609760668 7.486254947424287
Mo 10.668400660139074 11.72326406216462 9.054496202630542
Mo 10.174629811605005 9.440434062064568 11.014386772411896
Mo 5.946054827490113 10.539297344957923 9.563054092279074
Mo 6.851291934740249 5.665580878367531 8.71629507547739
Mo 5.090045388644171 7.86446886293446 8.356886544243814
