39
Energy = -359.34318663 eV
Mo 9.944406200132194 5.152309043160491 6.6989142771419905
Mo 9.661532455682844 7.700249364955198 4.83331634157283
Mo 9.429103155434255 3.420189004709337 7.706858736596227
Mo 8.617262589899642 7.198739886511428 7.534952947759175
Mo 8.536084768368353 5.2196064715067765 4.279762306473684
Mo 8.510554944724879 3.0228543682344755 5.336981818699776
Mo 8.061242931995388 5.636355621612175 9.093288339916345
Mo 8.641370120861803 7.905844202189966 3.1839713778503675
Mo 7.865771993487844 9.795415869046005 6.714894106494264
Mo 7.7040359890247965 10.062954038974299 4.876056373376202
Mo 7.031610734854695 7.3044842615988275 5.280054737800546
Mo 6.384488479084515 2.08228693835057 6.4534776628735395
Mo 7.225412724029589 4.810560623360149 6.79755423256374
Mo 6.759108588508995 2.8591716604295274 8.546927976055636
Mo 7.299303065302248 3.3888956702697226 2.584664189682225
Mo 5.902222979709699 7.106923802800737 7.642775341960334
Mo 6.472291921904667 6.074038229413218 2.854648834220093
Mo 5.592343213205172 8.823395377492032 3.244677082203402
Mo 6.818138109156872 1.824401928797177 3.725742187542446
Mo 7.11443049892363 8.65306726457361 9.451171790078702
Mo 4.241059045761669 5.1695879945279275 6.85241642109522
Mo 5.23208558227505 9.260394389485096 5.946726925567611
Mo 5.738063080583223 4.2075425377818 4.700476531608373
Mo 4.4473760069385255 7.143525806319813 1.932492931122136
Mo 4.336252504581456 4.455702699073171 2.2925846861227313
Mo 5.6157116916011365 5.009950577114552 9.137746977502806
Mo 3.9196642923304856 2.4810008366934078 6.0032057688419105
Mo 4.499912534463478 6.6911540154562275 4.669872241776732
Mo 4.271632353484156 2.6088775712268046 3.0698668753269716
Mo 4.100588912908842 2.7759370539179953 8.073968207711703
Mo 5.655190774206354 9.619754994078914 8.75850355824227
Mo 4.067498868269084 7.291442910254291 9.81333110891453
Mo 3.502608150870113 7.9871319413464335 7.321221670536947
Mo 2.768808646903766 4.389386032019099 4.451909481371566
Mo 3.5543747473468272 9.080907267052051 4.271374583171407
Mo 2.8816170602709295 5.940033534047384 9.081666064153412
Mo 2.4612194394158142 6.567858413355535 3.380625418195239
Mo 1.8677957060400001 4.374880064767329 6.841240262478341
Mo 1.9408739158910597 6.540554806727728 6.069716047766239
