33
Energy = -300.56487434 eV
Mo 10.923972083854132 6.997207430880929 6.686633730856585
Mo 10.173437806841978 6.585223307630987 8.899275011996659
Mo 9.812996549640403 9.311269448047057 6.782742062232508
Mo 9.574780328857074 5.679917063392619 5.168826451939772
Mo 8.464121944477274 8.920344671970115 9.059872237242534
Mo 9.540076430491872 4.80311467838784 7.780913800215378
Mo 8.446425279531045 3.1583346029569803 5.691775500398096
Mo 9.264774173072688 8.28866594524541 4.800620521016719
Mo 7.988026586104453 4.442480277651075 3.01338889173225
Mo 8.16839880489554 7.115304753294758 7.002018774089532
Mo 7.694967993431901 6.221756258971089 9.42853530786772
Mo 7.360687784046118 9.638862180029305 6.437230314355555
Mo 6.8883300055302366 5.549535726707174 5.071606170650028
Mo 6.3867288524594175 8.555885198906692 8.65823686248501
Mo 6.5826856635804765 2.8702398840049272 5.453843521015541
Mo 8.446491814624226 6.389560396079988 2.8026691146088134
Mo 5.19715457454888 6.09354396655696 9.624565592049727
Mo 6.847718600956312 4.505165419805046 7.718414785075685
Mo 4.392898329438836 2.989215936468383 7.708861090642683
Mo 5.553680596324334 6.118257116149842 2.7400096490739143
Mo 5.526811818596615 3.7237313526578153 9.605889434714685
Mo 6.819084475485428 8.10128644072606 4.568836761280025
Mo 5.1490479498165795 4.245977251389761 3.1691179600125117
Mo 4.857625214798083 9.466314246687665 6.376032148843246
Mo 5.3188855198811344 6.722118389608047 7.0760520425480875
Mo 4.4405595883072095 4.626041558229053 5.831990584296154
Mo 3.321352990329441 8.092130410312631 8.377138066286744
Mo 3.3612924729865323 5.045414476687701 8.399006906432732
Mo 4.329812086321008 7.589830581692852 4.920210074820412
Mo 2.608868295070219 5.749928873477993 3.6325383570660197
Mo 2.4779098494006275 8.91133647403193 6.634610260736017
Mo 2.559608077912441 6.34445701812189 6.46640141777555
Mo 1.658492413599929 7.24586844531427 4.085160997465232
