31
Energy = -277.37911297 eV
Mo 3.4981659944411967 6.967647801247059 7.128278422100652
Mo 8.026222358466411 6.454124835452782 10.476274182606726
Mo 4.635636824561547 11.609076359574937 6.317923094925683
Mo 7.730844766725571 9.33671183246602 5.653278805578264
Mo 4.012947060985529 9.637253451644314 8.488928813354148
Mo 10.082014608361053 4.704868550306124 7.747031536628651
Mo 9.455889140269472 8.79038557830379 10.465082130363374
Mo 6.574254467871835 5.940689233972235 8.574160409354754
Mo 12.37995754316014 8.097635739851638 8.004534006997893
Mo 3.8036518683419853 6.822029219487583 5.021930234025034
Mo 3.906236536807181 9.511872988449273 5.6363048317343685
Mo 13.296268634597011 8.272072340488979 10.592556844546797
Mo 5.818084923425473 11.186477491955982 4.438182628330897
Mo 6.40402931250062 10.506172544709488 8.008748372127924
Mo 9.444955089691948 9.66592193036421 7.4291571719864455
Mo 10.130572687184713 7.122530857484462 8.652777428684429
Mo 5.048041959750708 8.322924888360175 9.439285939800117
Mo 8.504877231374373 6.866201383627642 6.61420772599834
Mo 7.756177643606089 3.91611705062056 9.023186411231483
Mo 10.98499742829979 6.671690410082483 11.194303178640245
Mo 12.366421908056838 6.089957377227825 9.44032117453179
Mo 9.675131961825347 4.764093284625876 10.195561749452592
Mo 7.6842296621287005 8.545536721456003 8.667711662496068
Mo 5.769168317760851 8.022962372714709 6.798596506277716
Mo 5.334808582267887 5.281751081244955 6.346410596921268
Mo 6.816491385620619 6.369578509319489 4.918591554890485
Mo 7.558628592260639 11.578926418210086 6.106216430733217
Mo 5.700238680234685 8.68972270170376 4.19726957390901
Mo 7.999010400905783 4.447422107434777 6.693656400100731
Mo 11.88881552442505 9.068333407998592 11.709356753543164
Mo 11.316705413931563 9.739629713830114 9.117796783560385
