34
Energy = -309.86000404 eV
Mo 6.965312683901656 4.4905463212508865 7.192476918953137
Mo 10.601377682012371 10.58169007020145 8.912767894652026
Mo 11.147959303047763 6.345851520478046 7.613841372280886
Mo 9.799660449672787 10.202596475109125 4.947576627146747
Mo 6.208420755440384 11.364180569790888 8.124926359418287
Mo 4.682083068259373 6.78041955521573 9.215920445621492
Mo 5.422146811406033 9.224259374611275 4.85388671435553
Mo 9.534418296491053 10.119519723200082 11.81880133468414
Mo 8.590739810422459 8.25738198081246 11.951139357290293
Mo 6.743079593769604 5.272906934361498 9.4200133680617
Mo 11.219871948890951 7.699894029705394 11.74922409259721
Mo 11.616993045978518 6.063131349622198 9.806869304437404
Mo 7.869891489897253 10.20960218142655 9.982917188946839
Mo 9.370580834739776 4.585195246499517 8.51567491673314
Mo 9.956397441594866 8.234814522807845 9.602726795895475
Mo 6.344290420960795 6.317592500756366 5.673640096119099
Mo 4.2313628354335036 7.173419578465303 6.4545005703801595
Mo 6.86511917381318 10.622215966924255 5.42418711988691
Mo 12.061252658478114 9.741170931425305 10.89617653495059
Mo 10.063044427448087 11.514421995099143 6.268951368441502
Mo 8.400514032523812 9.73009288726058 7.545832370276105
Mo 4.541618348931424 10.761380006032274 6.933450632910155
Mo 7.134615774389465 7.8490885339688035 9.679948681120171
Mo 4.57001261743395 5.1036508076037865 7.606314091296156
Mo 4.9287352559574815 9.704832539658131 9.661208093565149
Mo 6.020015289269353 8.635050056723543 7.482832630408621
Mo 7.9135462487326595 8.202934756289183 5.289448342578972
Mo 9.059188308175843 5.690858316447601 10.397948061384225
Mo 9.109331504711422 5.491824798166013 5.468404052319956
Mo 10.982702191836367 8.979678983746004 7.160712776718576
Mo 12.615010365144295 8.331189692200962 9.249820842264931
Mo 10.241860725394544 7.1397049085720985 5.185773860504374
Mo 3.395183847401344 8.864623100005572 8.369601478883785
Mo 8.494346576586738 6.808555963595782 7.669735149927378
