38
Energy = -349.72416584 eV
Mo 5.466867024887545 2.6929836107280596 3.281205363101544
Mo 7.120571976357212 3.8226403742995387 3.0872980150428493
Mo 4.926645258726445 5.4580166900289635 2.1190114477832838
Mo 6.914644186060232 6.69991580302543 3.436016279610872
Mo 9.340130514492838 5.850228991042954 3.5494493761216908
Mo 3.3945972954133716 4.4544598673112175 3.4527600035109685
Mo 6.379100651791501 2.6037456083715917 5.65660638740476
Mo 3.9987017894902914 7.294434348031596 3.478707677984862
Mo 10.808276339509272 7.972733486793624 3.9490297622952335
Mo 8.95031564996859 8.690515114398512 3.853903503846542
Mo 8.217034201517631 4.1750688794194195 5.693636221736076
Mo 5.360355031163181 4.972147828812501 4.885723298532703
Mo 2.7278936555893614 6.106000901215981 5.168763815387902
Mo 6.280316320940776 9.024163776617334 4.318073965783213
Mo 3.8170369397882262 9.855674467515529 4.617136492445822
Mo 10.035363545783232 8.205052978713356 6.384050337779797
Mo 10.130162930164488 5.733055168855564 5.71571568702376
Mo 4.090037771079113 3.229042315261802 6.334783445955168
Mo 5.9783054383628755 2.1311471266839157 8.355946129622561
Mo 5.073160443118954 7.50485214995424 5.875797283455181
Mo 8.743055318548844 3.4219357758492106 7.880473751841487
Mo 7.7267431051050695 6.843119299613432 5.731733055333675
Mo 4.892153163515939 9.628963858292973 7.186496260045147
Mo 3.776187336693207 5.288738008702902 7.38667954531259
Mo 7.714907834647987 9.355839907479929 6.40982749988984
Mo 6.3198519177281085 4.869094928871617 7.469450302040595
Mo 2.5708916295872895 8.699156057736012 5.687815016709708
Mo 8.809392055705072 5.95367801345877 8.178540442834871
Mo 3.54033169026272 7.877842456207891 8.239238743251091
Mo 4.631195858273657 3.2182204164358392 9.163139567432898
Mo 8.966133097470076 8.54761757984068 8.586295274103277
Mo 6.521936725190136 7.599597892235998 8.209881207426797
Mo 7.241275022881368 4.1937318412808615 9.739185661608238
Mo 5.1713812326250626 6.005403379426115 9.762085654519375
Mo 7.63237574584729 6.478313139230133 10.379489486282433
Mo 6.851439416350266 10.395710455162133 8.801000190565365
Mo 4.850409495108338 8.457342475944946 9.95846516259259
Mo 7.451974165183447 9.203986315999135 10.394104730453728
