35
Energy = -320.96630315 eV
Mo 9.11052120464141 8.857369590882355 6.574650368414422
Mo 8.807437718786137 5.876965252946564 8.264284422844577
Mo 9.837435410042671 6.529517376597749 6.048083749107752
Mo 6.9264913681760785 8.289006427260194 8.170875274146557
Mo 8.629416406772153 8.699051776398777 4.544417219069997
Mo 6.285510679032444 9.216792347768985 6.0877930377375264
Mo 6.242768287746511 6.116831877544324 9.764681606048521
Mo 8.783057209372329 4.234490901916073 6.854087859640509
Mo 4.480326502658898 8.287596778027282 10.08788349974381
Mo 7.319077495289852 6.72909059931129 6.095471957159228
Mo 6.3318052563466924 4.727923107272189 7.535991339617061
Mo 8.908879947848899 6.1918694229568665 3.734611459519388
Mo 9.736280605030883 3.9847463300466592 4.170854227595044
Mo 4.074490144166629 9.657942123162108 7.637778467282116
Mo 6.199860980611907 7.231745792081221 3.7718665220751975
Mo 4.777994041471378 7.1404722291412766 7.547614613652368
Mo 2.7851222081960483 7.726850211278152 9.441422416647464
Mo 8.127076959129313 1.7643079543952311 4.733059342120081
Mo 4.391919147857787 5.26315678066911 9.543330137841624
Mo 6.998828344097902 4.345625843131587 4.671595217854417
Mo 8.396563514391175 3.683870783075042 2.4679143858955843
Mo 6.269187535876341 2.3733490341659107 6.3064250964370245
Mo 4.240605158600009 8.272741659913496 5.044078121112956
Mo 7.129861369984622 5.80225574097044 1.9590301951440714
Mo 2.478032060445871 8.616288566761366 6.746178112991967
Mo 4.51206600549627 5.531965040989086 5.370635158149678
Mo 4.10284871232189 3.6546579999102144 7.291620408898794
Mo 2.530883033620714 5.709540591257701 7.270674647924157
Mo 6.574913745484121 1.7904883597421806 3.4939798295215088
Mo 4.1016528379170145 6.473726983208662 2.652961802794917
Mo 5.362516000678546 4.418646049874324 2.680624180731791
Mo 2.186278683905908 6.575759961137975 4.851844937456797
Mo 4.468132812041158 2.966364029988262 4.849635568910345
Mo 1.9377210948598869 3.9870139288727997 5.78645310379762
Mo 2.5553893118630575 4.737303451723888 3.5281396535485197
