32
Energy = -290.59463267 eV
Mo 10.360679817558692 5.498565572128195 7.48230553768579
Mo 9.429348783969486 7.222434269390425 5.603767498879347
Mo 10.755728155201217 7.843701778578404 8.065208572208235
Mo 5.63020630016589 4.304590012816054 6.895108728611164
Mo 5.465900906670793 9.319346331563862 3.925437830452415
Mo 10.660409506965571 9.973402588776015 6.125214941365211
Mo 6.191504429403371 11.39841313731113 5.835390581251512
Mo 8.696357598614254 9.529912316223745 9.922367029936888
Mo 6.596524645406245 8.352170509747586 9.606990815320572
Mo 4.690439401585593 6.733628595069491 5.640459906707442
Mo 4.021049427042604 10.037331825257347 4.909553833290821
Mo 10.696726322238199 10.562883046361456 7.9598567762511765
Mo 6.722490504072266 5.968491460461301 10.162424133922727
Mo 7.411733545330024 7.429821478550453 4.824618286268066
Mo 7.976670492761383 4.4390642962763875 8.66569614717536
Mo 4.138601724179293 9.523227270370672 8.929942864236653
Mo 5.008060979710186 6.395403796655592 8.301213543649835
Mo 5.870800638097572 8.994979603996205 6.747975088457034
Mo 10.30024858891559 3.6292347613228335 9.29160502084708
Mo 8.404875389261043 4.679133702569636 6.112372054442645
Mo 9.101136848126094 6.971986290148749 9.489933734396324
Mo 3.4226539080677614 7.94840298582747 6.609867366596003
Mo 7.987573866696605 9.883347338642148 5.058907449285768
Mo 10.187478618248772 2.9410023821504816 7.325177167669053
Mo 6.708860574955473 10.724516168942655 8.585709253056683
Mo 8.320046707996893 11.57495732800563 6.993057391770743
Mo 4.039025031703264 10.978980870204316 7.723196408656495
Mo 8.469459742736397 8.955116733336443 7.5065773928372534
Mo 5.497567150377622 3.5303994258988656 8.758214519398495
Mo 7.376760574706187 2.098090722708985 7.139837589687658
Mo 8.123960347430259 1.7553733683443165 8.841661619927889
Mo 7.303795358315755 6.63753480242939 7.420959328895079
