32
Energy = -291.06835379 eV
Mo 5.227390340573295 11.084866257144068 12.151990153549876
Mo 8.571966251587517 10.616704631647035 7.22308351704818
Mo 10.324008534457786 8.884187021872103 6.104645438583232
Mo 6.96320224864274 11.632033765521085 8.768805821488026
Mo 11.436295120273986 9.224122536393203 8.281678456022671
Mo 10.288615713422246 4.724834794082109 7.947033755580789
Mo 7.51879307535221 10.85765218751803 11.023308770958018
Mo 9.172157678147041 7.388525381658386 8.487925339711374
Mo 6.883868539305923 8.987913088308037 9.021162498011554
Mo 6.2912071064195505 10.808036222026562 6.263835720596143
Mo 10.129007085323387 6.644663245441007 5.823565666351703
Mo 5.183613258021013 8.30731169819268 6.724759617916877
Mo 7.229979668105517 6.462694759470538 10.409457103860923
Mo 8.910926613297669 8.249837728094462 11.173060377426859
Mo 7.717629010277916 8.249266154212735 6.408890613019278
Mo 8.109639315976958 7.1256615256784315 4.04456339490754
Mo 8.049925436752105 9.925668733366765 4.321143614279756
Mo 11.23019560834601 5.212742552522126 10.507547711255526
Mo 4.682319618749383 7.2538364508420505 9.224849099036161
Mo 9.631760014425414 5.623419601519922 11.570461911185177
Mo 4.776326490813699 10.366166354050375 8.136273071353617
Mo 11.69720982857562 7.0215785089622536 7.940044771955593
Mo 11.089909054801273 7.710869186477974 10.455870386805474
Mo 6.4236327657971355 6.317138363203143 7.930398471231988
Mo 6.315383870509706 6.428036158464132 4.807085647766618
Mo 8.594500755968303 4.696505141457228 9.0096692831931
Mo 4.284974238959855 9.246898342598248 10.297018631241212
Mo 4.896377609214094 11.986506423953399 10.477716152018317
Mo 8.05610190835368 5.401994567401934 6.342799700990414
Mo 9.398838061481088 10.067491463773823 9.591697837694998
Mo 6.154654676606601 9.280582639408655 4.190252420465725
Mo 6.2562709529630665 8.569025885068777 11.480014893146494
