34
Energy = -310.2868519 eV
Mo 8.16210866805733 4.39424812394901 9.170626160390578
Mo 7.985403548722904 7.260834828700462 4.842177327867084
Mo 12.10738193443867 4.284043608202616 8.648299392709967
Mo 8.424299891062741 8.346301130849005 7.1241610853503525
Mo 9.71283674675822 4.970904663296563 5.606799097099122
Mo 5.832607422953953 7.880117570272562 11.155139672763994
Mo 6.8736566693737196 12.879716563425607 8.668821309846107
Mo 8.651277282923877 10.920250698419588 8.846550920355849
Mo 7.778439997402487 5.3853844609406805 6.6312443542297705
Mo 3.581405948387082 8.906440921201302 6.037762041724541
Mo 12.00615799407474 5.577535292903401 6.727317176114072
Mo 10.783085418468074 8.95174181612324 8.912333438294132
Mo 8.083770776550505 6.140652785411135 11.303189309063995
Mo 12.46771199211016 6.497982736360123 9.39950179996655
Mo 12.268761794054052 8.001838201416966 7.538646538348992
Mo 3.3236426774696057 9.861998776233296 7.806843309505166
Mo 10.352059614497445 6.963606410525626 10.921186252486994
Mo 6.968628798199887 6.653176816408269 8.895348498554375
Mo 6.151994622807614 9.461147701070306 8.35317015602667
Mo 9.916787144251446 3.655901925498901 7.53458271781789
Mo 9.17903160170285 9.35666343725087 4.489274138846767
Mo 10.29465278213048 9.994839804251013 6.636374115920255
Mo 6.335168293100513 9.208930163729478 5.474794470612287
Mo 6.839634419708679 10.5554060696126 10.473193804210835
Mo 10.489167492581872 7.649976677450371 5.479468214620045
Mo 9.945466736291355 6.356271565441529 8.214987893546342
Mo 5.280503168911058 11.177055088910299 6.84647304273152
Mo 7.930576594108259 11.084760532420745 6.71683831672803
Mo 10.174281168103143 4.672924027481551 10.325158112818691
Mo 8.354133488278807 8.315594494773766 9.974295999508946
Mo 4.423423212889052 7.700739584351032 8.580125363934956
Mo 5.153277362389121 12.054337323232968 9.26137791000595
Mo 5.6024652504144115 7.277158285513027 6.4676441917682315
Mo 4.526634801334686 9.24748028155725 10.752953947323862
