36
Energy = -328.27541824 eV
Mo 7.422685017739426 8.367152425100969 5.106530668717212
Mo 4.82743246146209 5.419801757702247 6.036680663699764
Mo 2.765714019269711 6.610514826314302 4.736885296617452
Mo 8.601585277772218 10.350363850248474 6.644425755773413
Mo 6.6890609330944235 4.377803261249731 8.847305404643404
Mo 6.343989453162658 8.898644580753874 7.714686766831
Mo 8.226746161859573 9.686289391480983 9.24304661242817
Mo 6.20789526021379 5.981152144861989 4.15871189727709
Mo 4.652520523189649 6.779482804349193 8.527662468786321
Mo 9.630284594483806 11.145596023921303 11.332142593851305
Mo 11.283562096544616 7.574166215404991 5.4125571138374164
Mo 2.332066844121353 6.997275434212496 6.499319575926619
Mo 11.662971868759069 6.158826098287527 7.844215902937427
Mo 8.570428834436074 8.253407886512885 11.302117166712764
Mo 7.401043083925421 12.229212306229236 8.440786007764077
Mo 3.964134341435614 8.807931518256773 8.47622118780875
Mo 4.731639449362695 7.9663757965032955 5.93259294922017
Mo 7.466679967264434 4.439003963892013 5.1704622316441045
Mo 5.878871349477601 11.335753588241424 8.920983358438082
Mo 10.387526912737606 11.288490270177444 8.36505029867861
Mo 9.298931631364809 7.817722179893153 7.547529135707796
Mo 6.90557728174177 6.474821770944598 6.8352270747911
Mo 11.249828689853727 4.2802953480049375 8.707117437189408
Mo 10.616589804084025 9.00658228401932 9.789160279111787
Mo 11.186964142684117 9.788353644017631 7.242071733204267
Mo 8.278781881178508 4.3718441744386 9.941146091812868
Mo 9.079881336326887 5.034313141415182 7.5107140171356175
Mo 9.055042037211598 6.26362845916933 5.012787741817202
Mo 7.442602534463813 6.864505432063546 9.519873321156187
Mo 6.8616723196491005 10.188629946936477 11.530114625613276
Mo 10.747952896158724 4.641831518414549 5.9804546165065
Mo 5.818293236594815 8.647734395895327 10.622765007707153
Mo 9.991666736835628 10.03410079104836 12.733289262580367
Mo 10.030088098874867 8.934388042128298 4.729774547585411
Mo 6.296224960099617 10.381922732425805 5.795876783402006
Mo 10.102259392594659 6.611277425512041 9.798909833113656
