34
Energy = -310.21018737 eV
Mo 3.232890170122391 9.148624855500021 7.045836564437591
Mo 5.319540553164233 7.898441135713146 8.690806498812496
Mo 3.3197736735620187 6.002681812254107 8.061280442236146
Mo 6.041264037690087 9.329050775835142 6.600029850955217
Mo 2.061202755738081 7.082871156197495 6.486303415374766
Mo 7.308588681171934 8.831392984515 9.386305375508067
Mo 3.530185436074849 9.061667920537715 4.952955092591101
Mo 4.8973977615347115 7.087523044032573 6.137250352915129
Mo 5.929365544038684 5.315583089880147 8.466514682950333
Mo 7.642868064748683 6.640066980052089 9.844836649700976
Mo 3.8237268835276623 3.2934932223419233 8.475228629016163
Mo 2.307652312033451 4.362930427195626 6.310948188693232
Mo 6.007676868682415 8.91991586093536 4.143650621265665
Mo 8.351980445567024 9.788209248536292 7.017569066766409
Mo 7.730217014999073 7.029452050686231 7.1967810809419595
Mo 9.914371602070872 8.054256170326878 8.705109991328914
Mo 3.1119847980342903 6.059532843782619 4.372359160038998
Mo 3.0651505076445362 3.7161421997690045 3.9992555719874456
Mo 3.5836500565936755 2.19943948325474 6.8577563776026045
Mo 4.853223573274871 4.514568894475906 6.0994505574863815
Mo 8.4527728175743 8.680495126535968 4.983289226483434
Mo 7.39456441148727 6.161129575226513 1.9693319535967426
Mo 6.969148165876559 6.131116321896481 4.7599105231120795
Mo 6.428240353078175 2.7654409621468203 7.421049668730555
Mo 5.088249763742578 7.085569686071678 3.1181564198798997
Mo 8.102751222492603 4.3512207960183895 7.940310927517085
Mo 10.07076107651897 6.098891543133198 8.620709008478801
Mo 5.377768853938512 4.546627370471705 3.3534273204778833
Mo 5.316949380802545 2.3262920887888856 4.563866553726102
Mo 10.128649736662846 7.429857468061388 6.090107922826304
Mo 7.286630234394178 3.3685355721364107 5.3589215379844175
Mo 7.848814418419934 4.311639530902974 2.743662643698889
Mo 9.318768505033074 6.435071105064303 3.7594390161663047
Mo 9.361958885918712 5.19030992038358 5.755316014579629
