37
Energy = -338.64417369 eV
Mo 6.669212770498013 3.7798520588545537 3.6077507968245013
Mo 7.038645265624893 1.8949310029579989 5.320783113935785
Mo 6.348780892005807 5.814794116272313 2.1491813426519215
Mo 8.551565792424308 3.7806477739982913 5.8839456352391295
Mo 5.169780636024461 8.440781761041109 1.3448631086528224
Mo 3.918474557822004 6.327867694626895 2.2252002814411065
Mo 8.199841927691013 6.01939282334805 4.3319181383554755
Mo 7.289023012907114 7.907143325093047 2.7909223408329824
Mo 4.648328577703538 8.981564104867408 3.119803739340669
Mo 7.241148492862338 2.339003955069717 8.232684657251772
Mo 10.507848374241851 5.86793797326997 6.1473800657575906
Mo 9.302508012986502 8.197300329567819 4.9057359795166695
Mo 5.534349281908223 6.48480383828212 4.588328784231628
Mo 4.324283665342432 4.225514501388835 3.7378686313893255
Mo 11.384219591473553 7.5522615815422585 6.465876907750735
Mo 7.735709288785567 6.781297906689145 6.798573507782164
Mo 9.027222666264109 9.170696158269685 7.089791662762045
Mo 4.753594544092947 2.521036201553344 5.530030761034776
Mo 6.196246901152886 4.444142623388099 6.247235154060092
Mo 3.028256590866659 6.8921792505191615 4.33851982423891
Mo 9.861466630367518 7.289051596204324 8.525777580657406
Mo 6.024336526309993 0.9932757919949288 7.726622955795052
Mo 4.249512326379738 8.652989081116324 5.950610973849858
Mo 8.580188317218287 4.847027141167134 8.109661660631689
Mo 6.832112765505651 8.760808174493476 5.088639049860731
Mo 3.435768608565781 5.064861779295221 6.121524893817388
Mo 8.350540043178365 8.909716984144305 9.697060790218202
Mo 5.1103319708514094 6.872960541819493 7.477363504191702
Mo 4.44653270594607 3.1028101791345315 8.019504068646157
Mo 7.383157057777028 6.983949346042603 9.558647932129661
Mo 5.986988407987124 4.782953189943855 8.828514646739224
Mo 2.2706459283946194 7.273637282088989 6.8560100666221855
Mo 3.8963895373165434 9.26828965922038 8.425569395564786
Mo 3.3328734683474943 5.463811229607547 8.719597683706887
Mo 6.5843460213670895 9.091052883731015 7.704902023928841
Mo 4.917056181234188 7.825239482942245 9.760986931936879
Mo 2.162272399540981 7.478375866965803 9.085135125560123
