36
Energy = -329.31894308 eV
Mo 3.220063217844592 3.630797979716692 0.013505801544803834
Mo 5.127541386526673 2.892143940084149 1.6112836442158707
Mo 5.581237687087382 5.536687010399758 0.41529323298040455
Mo 4.379615960006611 0.01634063495455131 1.8465581567409217
Mo 0.9874845263800367 2.1981809495433997 0.6599656965632588
Mo 3.744692293875221 6.071961193250939 8.551847287923636
Mo 7.753203604479834 3.315586532935602 1.8744216029274934
Mo 3.355544799755015 4.986369728884407 2.0639918102578516
Mo 0.8304356431585822 3.9930107197708806 1.5419476903838196
Mo 7.008360293163345 7.462977905750625 2.727988995640903
Mo 7.389348938387611 1.4898731404868215 2.2865913280474692
Mo 4.844795021938474 7.344455920919725 2.126180100547789
Mo 0.8031375620725719 1.8186886500294221 3.9714951339972595
Mo 3.0476067240231384 8.484466556358177 3.133371439461311
Mo 2.733433001466637 2.1417648907279165 2.439937887950541
Mo 1.766732474261091 6.49360751185169 3.2567121896488564
Mo 7.766720185544896 5.629438866254561 5.0520127013616385
Mo 6.121363753391666 5.123021163491393 3.2270885354204997
Mo 3.3968465393972944 8.295369492711423 5.87767728118919
Mo 6.075057022867799 7.469081282568024 4.834365139059809
Mo 3.691702082179993 6.226259254115295 4.501051410759683
Mo 1.6113871393662038 4.120590907740676 4.189592941743865
Mo 4.397664117215582 3.4824564029976255 4.190043870427593
Mo 5.248945780684769 1.1852496180271002 4.015068616065462
Mo 7.115311417533925 2.943706104076149 4.625270668731836
Mo 1.2828528951428697 6.174848901958786 6.291747641151148
Mo 5.788807542666799 4.931458351957361 6.13404378805224
Mo 2.7389921109292974 1.5871590126874617 5.331001511266974
Mo 3.9893798559736404 7.019254349696062 7.221039150475456
Mo 3.2162477105782474 4.215869739283284 6.514917475775998
Mo 0.9790840587488893 3.2882102068224257 6.592027354030069
Mo 5.09240177155941 2.081765068797342 6.564287885940653
Mo 7.13337913092478 3.1415402564091512 7.051886598468439
Mo 1.4615890819057342 5.439154559951008 8.105957016439325
Mo 4.334173741738607 3.2492538519978997 8.551847287923634
Mo 2.6275684320693404 2.030459068410135 8.1190408525005
