30
Energy = -271.5276289 eV
Mo 5.491777984460927 4.546332032656392 1.477075685295255
Mo 6.582896739053863 3.0052633524545302 1.445744663802354
Mo 5.3671123400722465 0.7360605004029173 2.539677516160143
Mo 6.013532344764298 7.474584125222828 1.845401825074213
Mo 3.8915682512898675 1.9849958674774975 2.412235984156611
Mo 4.157538762754605 7.10994392082315 2.126315420993458
Mo 3.4821559069213186 4.707352363798867 3.4279757149159265
Mo 5.458188545741093 8.49948946499888 4.401664480647116
Mo 5.82190945304805 6.032788323201864 4.1018258696650465
Mo 8.089183700769407 5.177451173915153 2.881190147451362
Mo 4.840685649207433 1.2298264291487524 5.072142553452614
Mo 0.877865598165482 4.3413637969784675 4.448480306605022
Mo 8.419408252420792 6.515706952547566 4.279517966481359
Mo 5.8306028290128955 3.176221858216954 3.982346860977637
Mo 1.5202041256956083 6.207955879715977 3.605639405100274
Mo 3.041487596611065 2.8000061392024347 5.008833454996205
Mo 7.562418634234867 4.528296247263579 5.636860190320668
Mo 3.4466089163776843 7.133851057874396 5.121981570613198
Mo 4.717487726058055 4.593750757686126 6.043979275486422
Mo 6.319996122816055 2.2271031746174352 6.8319778935067585
Mo 6.320356331077438 6.975623759492883 6.599996331485333
Mo 6.225445114168841 9.418644242902243 6.423926832756713
Mo 8.310719350550011 5.895341944547979 7.42474140614133
Mo 2.1073655453716413 5.204301059000902 6.175357603154523
Mo 4.1696846483763945 8.761625651506353 6.958957074143494
Mo 6.4126792489729345 4.541828375484074 8.13070021520773
Mo 4.389030992238444 2.7292271598961726 7.624257277735377
Mo 4.134351860706116 6.315345735170673 7.788460130290568
Mo 5.968788515927693 6.593469869560386 9.693108327855757
Mo 4.712295391081588 5.219595262181817 10.1729744934746
