39
Energy = -357.61000756 eV
Mo 3.6380187265866564 5.239512742827682 8.826083394675077
Mo 4.083398877589861 1.442233208589702 9.140330195605618
Mo 2.3198850683274888 3.551985173075307 0.19109243444769553
Mo 6.688689353574046 4.714874226933189 0.5901510684521001
Mo 2.7415926024875947 5.8923312769567255 1.8108847179157794
Mo 5.645153991213084 6.153977340105528 1.6701899145958814
Mo 4.53835906431533 3.455678185119686 1.335031455030307
Mo 0.1458495660208351 5.384972823516425 2.890045952988863
Mo 3.2420985523704178 1.0022888562024364 1.7959993594869383
Mo 6.013308097489982 0.9361917741189802 2.1662194502299603
Mo 8.340435646969203 5.8958093415795805 2.9802091550015435
Mo 0.6849463575630825 1.469802041212297 3.0271517714518916
Mo 3.8859881702385604 7.640415106307353 3.831268794816621
Mo 2.0137903314904224 3.5707307848226617 2.7936828114546928
Mo 6.759799130670557 3.7345962342549974 2.963855792968274
Mo 8.585957601778146 2.0147176732870657 3.2512474191630583
Mo 4.320055033035608 4.937208676517216 3.74167253849477
Mo 1.0991829875418173 7.427427033130004 2.754359837737216
Mo 4.547594159687968 2.274370682083933 3.925578129873967
Mo 1.7909591741010416 5.745417859708133 4.718424456801598
Mo 6.446705131014947 6.390531138011172 4.455612848149833
Mo 5.106398857242928 9.096533754534407 3.7291812398045683
Mo 2.038179202150886 1.1068023680950254 4.452322845781666
Mo 8.676464128152615 5.227345095752683 5.535708796259634
Mo 7.163436808129258 1.573250515223959 4.72998408382888
Mo 0.36656536769794196 3.3654263727970393 5.23595741845282
Mo 8.484264355703955 4.389613292598794 4.632407399219847
Mo 6.1380311985298945 4.151718622837104 5.778412980310266
Mo 3.1555477932957765 3.45801641397293 5.651916952453637
Mo 2.609777355588199 8.077289272116593 5.4167416188648705
Mo 5.771805951644722 8.061987269578543 6.136346122923171
Mo 4.0204269792322425 6.083352715257759 6.320548612238245
Mo 4.986778705782194 1.5634133181593624 6.66238709414206
Mo 1.6421679860265688 4.62369624383431 7.498056093614542
Mo 6.2947272748799055 6.250064628236477 7.3234458770480515
Mo 6.617693007768339 2.3956720694446445 7.478263304139004
Mo 1.8497185009357808 2.541049164310851 7.53966865757877
Mo 4.298758120354819 3.9666844348856842 8.158489076290405
Mo 3.989251527544844 5.934773014730939 8.826083394675077
