31
Energy = -280.85697424 eV
Mo 5.328098817735156 9.283107162220075 6.285248508340768
Mo 6.775233268972024 7.935855967680792 1.9926066466806243
Mo 6.716118537690904 7.932927970436124 8.972978974551198
Mo 9.922274604935959 6.54232503363892 5.774800288926473
Mo 6.755558845509978 6.099865848291207 2.290318017895935
Mo 4.588515175646826 9.173347025062624 3.497135592168708
Mo 5.535285845195404 6.404473224576723 7.105236763280053
Mo 8.973751133141306 7.131537805331402 3.9689857896062595
Mo 9.447593594190533 9.485074258085538 5.2692681478443735
Mo 3.5868981463004093 7.438945222685862 5.528360057707704
Mo 3.8326955547334376 7.350463217894216 3.080670860346225
Mo 7.704322060739416 9.690230392809804 4.463663855343235
Mo 7.566292333058877 5.154155668855365 5.006522725621159
Mo 4.849038979091807 4.937643425450157 4.516315251808997
Mo 5.741986728552688 9.982653126406994 9.034169066450021
Mo 6.659970814604606 3.0864244381826906 3.6471241163581527
Mo 6.193690214438782 7.435260997022462 4.594240500639884
Mo 7.280338110208933 10.21535608237858 7.375758168366039
Mo 7.48731210914481 2.494931222212589 5.68636716598981
Mo 4.696450087642649 2.6798224187137385 4.891625318971633
Mo 4.135242666853465 8.08500406624282 8.151929339603395
Mo 8.16929594183091 4.982427388031388 7.211956778471597
Mo 3.8374860256697407 5.486932752748392 9.01844166965428
Mo 5.791968281628902 3.8080026288923534 6.961124814591388
Mo 7.8283655436186 7.810750414065583 6.658526452773957
Mo 6.213439944588797 5.212520571884948 9.341932895442785
Mo 3.2960891726616643 5.082158172365437 6.565688676176087
Mo 6.099130230368126 1.2896001457399984 7.745529532132492
Mo 4.9009558816902175 3.143339385667805 9.434373052366382
Mo 7.476830052612953 2.3719395430513712 8.615986371155447
Mo 3.3795791412952654 2.9992396196539155 7.813515189814799
