30
Energy = -270.68721596 eV
Mo 6.16509096014735 2.5819930425277366 2.0046774444199937
Mo 4.1867860432722495 6.509454782340675 1.8929213748916236
Mo 6.446029600433012 4.413163361323031 1.45392509840402
Mo 7.036392423785879 6.431342283329836 3.0926877312729073
Mo 9.232132200796922 4.845981176011313 2.340794943473934
Mo 2.553189323147989 3.4411359511788926 5.061938987730702
Mo 4.760113163014568 2.0402054615561203 4.3346028944503585
Mo 5.024425716383032 7.963009685278743 4.2701586939535
Mo 6.905074185121699 8.415845560914699 5.05736034504725
Mo 9.099359796593005 2.974599333695262 2.2592799362456675
Mo 2.8121329323150177 6.423265980478093 3.1316212231546037
Mo 8.982015207931134 6.055666768968786 4.947382372839241
Mo 4.698195014073538 4.465256166721065 3.5220211926330958
Mo 9.611030220518558 3.833138309628996 5.1024069709989535
Mo 7.370103256499758 3.73017475577432 4.186678556390104
Mo 6.35610695858342 5.734153651303071 5.3368903633055655
Mo 5.357064040299292 3.1741038406138444 6.070959330305442
Mo 1.3390195159835987 6.199082533829569 5.93214113954711
Mo 3.835738641044392 5.649585110340439 5.785109194861109
Mo 2.397071565886661 7.874835069753892 5.807901997672273
Mo 7.939516244242621 4.3041027666221074 6.936403182583138
Mo 2.9837290531809417 3.5397704141916413 7.116456124053283
Mo 5.252879911935957 7.688270308490676 7.03974895288297
Mo 7.96603709760915 6.729434776465454 7.197149108921615
Mo 5.507314827508297 5.091721108979471 7.966602190454537
Mo 2.8908127111135142 6.33915706020044 8.176502408389172
Mo 6.069085595124942 7.066425226239222 9.223622678236136
Mo 3.622628222522908 8.552323210975606 8.74431823531345
Mo 4.073306196357406 5.06806563834904 9.88421469380032
Mo 3.9766828317751504 7.313800121120887 10.572586090970706
