38
Energy = -349.04227178 eV
Mo 9.296628218856709 5.687174745348779 4.814089898597686
Mo 10.245167412690668 3.4232795302948618 6.016388019352649
Mo 8.238720589224675 6.712749899972948 2.570195700314509
Mo 9.707630843239103 3.258828446401883 4.145786746084455
Mo 9.516173372161402 7.7447813464668185 6.664682640377417
Mo 8.926380800695139 8.532312533989145 5.025515948965426
Mo 7.142039502041762 4.595833577633002 3.285731387471194
Mo 9.325778882458048 6.1502011131469585 9.176485524407427
Mo 7.545934108770764 3.1413950758124884 5.759551702876458
Mo 8.34828451756593 3.2176965944686473 8.088379189684066
Mo 8.054674770115131 5.3863141026142145 7.206131322778005
Mo 6.596788139369309 8.46332489614197 3.40693011759756
Mo 6.874334980809445 6.393212445080568 4.966659086335491
Mo 6.148715385395832 6.561895167532125 1.4054393715942501
Mo 5.088344945399525 4.539607696470235 5.76619486312423
Mo 7.779261648084202 7.5535558042549695 9.148821779537604
Mo 6.958216527893122 4.897156764860693 10.04050798931314
Mo 6.538375600266576 10.794089042928466 4.934404020810012
Mo 5.586890556762078 2.3195246018363753 3.9554509501987356
Mo 4.510612188709651 7.170268931978276 4.901147571225998
Mo 5.861458022293601 3.4922006209220453 8.002950848381781
Mo 6.721216460766544 8.565167757054354 6.700529226536263
Mo 5.698925992759307 6.300998063812257 10.642413956277473
Mo 5.187964832084907 8.721014707409942 9.440348137680107
Mo 4.793381109406984 5.099238125173108 3.132220355578558
Mo 4.753061435049599 10.022408214586184 4.889985855926084
Mo 5.524204851868903 6.37202454293406 7.829800029020267
Mo 5.9976926669909805 10.46449725089042 7.505438048606434
Mo 4.562192313828396 7.804387174286274 2.400358383314788
Mo 5.302858635075845 1.7087055766101051 5.764223398869687
Mo 2.960695025823789 3.2498328566119365 4.455200248843537
Mo 3.244169059586541 3.5067182503243712 7.048057672878581
Mo 3.876997814300742 8.740871220797432 7.144102516462691
Mo 4.075191982511793 4.745538338867517 9.195308113283817
Mo 2.4025475304495725 5.1526464348774 4.680145490631014
Mo 3.4070043030108974 7.60178484650904 9.368583637273295
Mo 2.3152778992610488 8.011463754491295 5.603298352832182
Mo 3.0323846555139946 6.043477527700256 7.064719478049781
