32
Energy = -289.80875225 eV
Mo 10.642668025873387 7.432780025894358 12.608861379782256
Mo 6.5798956971442095 7.00377498420138 10.519379778526467
Mo 8.523424907596517 9.476241600523958 7.924082133134747
Mo 8.390659253853302 9.054571776931024 12.069541282167641
Mo 8.810536880653288 6.287471793921474 5.808431550975715
Mo 9.296335274720676 7.640547020511321 10.000121630924644
Mo 7.995860921438496 4.788493183552281 10.049898947704568
Mo 10.742286020354058 5.27780485721962 10.842836883989326
Mo 4.164388679755926 6.45805874121612 4.480844346231747
Mo 5.0500002639680055 8.588675711960509 8.239336792750464
Mo 6.241925512686709 10.46818771483934 4.55577702435814
Mo 7.090843120864199 9.423332989570255 9.861884130409644
Mo 8.434621391421205 8.51363792741345 3.7437951736273067
Mo 9.660636983295042 8.690206878572058 5.246882774981054
Mo 10.44147296652366 7.336599620887453 7.641405720110351
Mo 6.811380664901449 5.866992515766461 4.674153293243098
Mo 5.613213772913378 7.822727381509304 3.527293816981444
Mo 9.805028581646017 5.123051857454728 8.467139480248317
Mo 5.678660986389741 10.331023388645388 7.530593564621011
Mo 10.877643181793047 9.534845688204806 8.517953808780833
Mo 10.944125329458672 11.77421052045734 10.208754145068921
Mo 6.920552470596954 8.218272741727878 5.958441520153082
Mo 7.821531986557726 10.868385474840679 5.552613634983367
Mo 9.194760831479226 11.304117551160818 10.231594398398586
Mo 5.939834338161727 4.662318686920974 9.057826887165074
Mo 4.376090982244137 8.57567904890797 5.629613763863822
Mo 5.293275316532022 6.2286126619556725 6.726490407848086
Mo 8.322205181579958 6.653842262176898 12.196299035718685
Mo 10.864250239676899 9.188902265712194 11.273935814486519
Mo 7.294293179155533 4.593314632201573 7.208783331092644
Mo 11.813490906000538 6.799994446968665 10.046517473217678
Mo 7.578071512133185 6.898910817652944 8.185557991609372
