35
Energy = -318.12567994 eV
Mo 5.979699608338687 9.733793236533803 11.523106761483165
Mo 6.279928870686337 4.254348692997142 8.69588875802387
Mo 8.322285729455398 5.0211302102013855 7.017686601168294
Mo 5.680737748222098 5.116234556807408 6.384334110913168
Mo 5.609523721200694 6.082683322316645 4.091179747784272
Mo 6.473184308422389 9.39289358934115 6.395188654002532
Mo 7.466679662823117 7.206319961776381 5.568077323420228
Mo 6.387577463714957 8.398782840282887 2.3719700927069347
Mo 4.825917565738955 7.992331041914573 9.739882087601416
Mo 3.9195695334056624 8.663112664825569 12.138979097683542
Mo 8.55098775143151 11.090403244798463 7.647471852709778
Mo 10.1957991530148 8.025688933836303 10.027330836093599
Mo 8.943575967352665 8.46004150646019 7.896708457383338
Mo 10.358070726969565 7.723428532570388 5.692133471146969
Mo 10.743638417855177 6.261529742226569 7.679839799961859
Mo 6.6082676026674445 9.901630121593165 8.936094034324514
Mo 4.4786377246072755 5.386243690836357 8.907595335026905
Mo 8.489246770852414 10.144338740417822 10.298725743933854
Mo 4.647696048017025 7.382998638030336 6.682985755133274
Mo 8.809572572920928 6.182862111427655 9.618520479048474
Mo 4.8526690014670795 8.310020822570783 4.623139155727223
Mo 9.497494185428742 5.584015210072027 4.775846814609304
Mo 11.023212603769714 9.992838966268382 6.5734957599507755
Mo 5.685881041414592 7.684573428679827 13.10385558218764
Mo 6.713744561214318 6.9757644312536735 8.337655055631616
Mo 4.074800670654283 6.200184729930082 11.650204164085254
Mo 10.513369336531596 10.68147619785292 8.73298368107894
Mo 6.05455224877082 5.742831998587959 11.050932880265332
Mo 7.922345424539516 6.1463715993953905 3.0337643321132934
Mo 6.873592459394968 9.91992834169787 3.3665207254879967
Mo 8.673546270744595 9.889034703803713 5.434909855591235
Mo 8.966055417593573 8.14417979803992 3.454393224371571
Mo 7.539335172682605 4.0564557162409525 5.086677783840694
Mo 7.399687238274259 7.89115686753838 10.965188764075592
Mo 11.85864257758826 8.066445225639082 8.124677040913527
