35
Energy = -318.77478885 eV
Mo 2.2983941454155423 4.0809916557552555 7.055340350198598
Mo 8.529139094215248 10.693469878001936 11.39324203992316
Mo 3.6205672913895164 7.826913637130724 7.813014883115586
Mo 7.82768314791339 6.468038511360296 5.822465640819873
Mo 10.874884216353603 6.7996244166358135 10.299955411699587
Mo 8.791093678210288 7.7895561761500645 10.796756476504969
Mo 6.741107522047941 3.8609554947879925 5.4553004662121145
Mo 4.909117679832348 3.523739965892369 7.7010408580396135
Mo 11.219793405330208 8.421648234350817 8.096922445583957
Mo 4.994592245379509 10.007417032912604 8.581135088032967
Mo 6.679552833035298 10.642377563459936 6.88469721456273
Mo 9.328444256792247 4.337071445747722 6.788943894854253
Mo 11.572135777138824 5.687563557198073 7.671154063377646
Mo 3.041405040664388 6.156446756849657 5.9874531697675595
Mo 7.535786523800073 4.287601135503273 7.903035667176421
Mo 7.119101110418419 8.780336338046883 5.064058837458299
Mo 6.668494167781349 8.13316083478987 7.719013524928243
Mo 4.862827259499512 7.1299528918296975 9.739863163950027
Mo 4.818878948218794 8.429075236931828 5.714594893888078
Mo 9.42977367522514 11.963666968117474 10.201762654738433
Mo 5.5588378088561115 6.322567748948937 4.633985470208232
Mo 9.179677550761983 11.861833376378337 7.044278387687729
Mo 4.5865427571467485 3.8833164185788442 5.3710957650288
Mo 6.982089352915479 11.480615385038794 9.179622646452644
Mo 9.5740274903965 5.055322581923398 9.683637943022124
Mo 5.437995561472283 5.915562466999863 7.121336736631496
Mo 10.792610312650105 11.223561359018207 7.659948178436536
Mo 10.812930296668842 6.596977556852936 6.074139694922388
Mo 9.19600553223246 9.064452844724684 6.280295728889675
Mo 6.997175646933497 6.151543589535965 9.784178664182681
Mo 9.029749408016858 6.923634438007403 8.165992855775839
Mo 8.659217252193258 9.568467074653242 8.72669337831934
Mo 6.473043414486836 9.068758484819222 10.266652050103243
Mo 10.748824916533158 9.510516090384654 10.117846376261761
Mo 3.054741230785912 5.1142875493079805 8.598328116487526
