32
Energy = -289.95209398 eV
Mo 5.133914980403287 7.372737618464332 10.885624413391536
Mo 7.335077032216117 8.605012645959187 11.073541359980021
Mo 3.95041338735249 7.184158852612683 8.634508719607755
Mo 10.99395879323117 10.551664569657776 8.109769246520154
Mo 6.951370097335132 9.847727383957395 7.6046332520479645
Mo 8.916682549619166 6.321577238514823 7.297732560241592
Mo 7.277641534958789 6.291770260117108 3.783423392919665
Mo 7.349539686099909 4.578772014002282 8.52272664816221
Mo 5.914727457047476 3.8542387622074354 9.904870388559953
Mo 9.300386689714532 11.40468153340851 7.767547234428125
Mo 4.90340910039289 5.09787467342374 7.8025721991079715
Mo 6.528198768676003 7.271805356462987 8.556016898502284
Mo 11.730118124988456 6.831670072009844 6.209732310136337
Mo 4.620244973832281 8.878068184682483 6.983253725385177
Mo 9.390945244897928 6.558742987781266 4.747903034938987
Mo 7.132563507347742 5.246091948126941 5.74592739636004
Mo 10.810614557568936 8.572321660843642 4.056489838773435
Mo 7.933761303140703 10.65959319928039 5.159610179451129
Mo 4.401683453971905 4.960955006364215 11.89131155400331
Mo 6.840933386161297 10.888399479474481 10.011707797811
Mo 10.892049744803312 7.745840356972265 8.578111372633025
Mo 7.014637331983288 5.7953309672258495 10.96748468952288
Mo 5.001502242834968 6.7614071532198 5.994056100452768
Mo 8.40081020967801 9.074513392142189 3.715124528547385
Mo 9.552626527079843 8.756000599223238 6.5426863100571575
Mo 12.376387753475257 8.684239842186363 6.197742039307298
Mo 8.771155552305663 8.991879997348587 9.221352357818452
Mo 3.341709522976874 5.24699387119545 10.382202363938934
Mo 7.142083148160868 7.984580391002093 5.887093336111236
Mo 10.404696814367414 10.63492285105241 5.2415713933476615
Mo 5.178641264568032 9.791422504708507 9.699525662879527
Mo 9.080242872030619 6.564885721551848 9.891148471330595
