38
Energy = -348.45905312 eV
Mo 7.299182612208458 2.0266804319644893 7.94169954929138
Mo 7.096623479124925 4.770898451251466 1.8947281816253587
Mo 2.791342763344966 6.67014105456061 1.1787680466366235
Mo 6.1746425521590345 7.7825273958806225 4.4126752938314615
Mo 4.337041003835533 1.4501534330489398 2.1455555884665474
Mo 9.053660660849555 2.1643395236354945 7.613787497436411
Mo 9.309607845977508 5.25818434053615 4.416400350621887
Mo 2.1360321914706626 2.846949900188621 2.9032768091553103
Mo 0.19867748898525886 6.573599563046264 2.578915254354675
Mo 4.796274365000198 3.652484784661236 3.544765442331634
Mo 4.382732242152765 6.16531056168903 5.1575855341183185
Mo 2.6864145740556715 4.049915760512758 5.4688999134107865
Mo 4.400575249557952 1.4373717142990592 7.765920401673153
Mo 2.520139223718877 5.491698099219675 3.313860476293986
Mo 1.3817586803147885 6.544469874516089 5.473561443686812
Mo 8.581305781039642 6.789541147786485 5.546639068270357
Mo 7.849478126455949 4.704774030889943 6.966917982522317
Mo 3.265062948592371 5.772554561751303 7.497473307338457
Mo 5.211524760202945 3.649932331490537 6.287151591643536
Mo 7.021250076926852 2.4685750569919263 3.1154978199141854
Mo 7.868004869881891 2.9087404591643193 5.218225365087988
Mo 5.2866828980800635 5.746758875876462 0.2646885565130771
Mo 3.2920641924577274 8.43165134577115 5.731132082890581
Mo 1.0381305200126316 4.9793424344042485 7.141193010147816
Mo 6.048832299733768 6.251663830697903 7.3788391572640615
Mo 3.3586365909822478 1.582643932737019 5.048171505645751
Mo 0.5770778522800507 2.5137949722175086 5.157476031443986
Mo 3.019259840587917 2.668232588511193 7.80468984844874
Mo 5.4566581014337165 4.549411036690857 8.616948982102759
Mo 4.9749614597856535 6.409800887278957 2.4095958817265197
Mo 3.0602046272183765 8.286039773916439 3.8119451278053367
Mo 0.5220462830766347 5.022979651983779 1.524942605627053
Mo 0.05806347818764084 4.187421844316556 4.3326249594107
Mo 5.478668251508498 2.655597066043901 0.8913541612494467
Mo 6.7445935297143755 5.15057233890915 4.507077947978607
Mo 5.574009822189744 1.3467849008894683 5.067687472455696
Mo 7.623333846612756 6.958170317735475 2.6973316096039026
Mo 3.545838517326183 4.100685331978156 1.1923897490181963
