33
Energy = -298.4384143 eV
Mo 7.066951491348351 11.67062708743414 7.5742130660138205
Mo 7.796579958829221 6.284832552956149 4.051339695060324
Mo 8.105141431782437 12.142215703300385 9.132340183620654
Mo 10.451894890279254 7.877171824176453 8.2755539690893
Mo 11.669274595683389 6.8320095020463 4.578660713900829
Mo 6.777036936307688 6.368723144100684 8.38451544758381
Mo 9.824529496651389 5.9381495382127785 2.6516901350636326
Mo 4.827809920001963 10.01325769063665 8.469489963662124
Mo 10.978670821238513 6.004543560160553 6.429431486168311
Mo 10.082614611195249 4.592037072667802 4.058121198103569
Mo 11.05432084377565 8.832125763185882 5.875010870931264
Mo 8.171333475923586 10.14125608964736 5.1697582485629345
Mo 4.309923856106115 7.4189494160003315 7.747279774971324
Mo 6.066060605835376 6.2757074060387374 5.934080063022004
Mo 8.00928753209284 10.92108132544635 12.028921096058278
Mo 9.573132819046485 9.94457988130731 10.17604840002702
Mo 7.685215250902126 6.58073800881291 10.71050297371142
Mo 6.608626932532879 8.839348467130252 7.160534970639267
Mo 8.279088189622344 8.883005524909557 12.544431153019316
Mo 5.879241181635987 11.290685719850226 10.164837699229956
Mo 5.799101197551808 7.450898524653722 12.161331007790833
Mo 4.156138439896703 8.86617008461841 10.367518686287454
Mo 9.50351559208508 8.411241385471522 4.1286904392486505
Mo 8.642290801368857 7.501438800399441 6.381741600460208
Mo 9.129904861043517 9.890877744445483 7.689310329511731
Mo 7.2844644725826395 8.941887618437445 9.844181279196896
Mo 9.78858057023456 7.673798372709531 10.82419351794395
Mo 6.64225770142179 8.669044601746295 4.521734516268747
Mo 8.422184101560372 5.046239797425518 6.169116256239096
Mo 5.697030832505464 9.986527088068057 12.122634396014073
Mo 9.127202299302425 5.714355799023951 8.55283210579691
Mo 4.85621097502369 6.574277276134833 10.418601654552113
Mo 4.235888829621482 8.012359201820484 5.82234824902109
