31
Energy = -281.0664385 eV
Mo 10.504319802357765 12.312030438885634 12.538769275169749
Mo 10.958461068990898 10.00862158505956 9.500017149285785
Mo 8.81668472330917 9.473908571699774 7.855682243393065
Mo 11.007909100450563 12.342355171347448 10.331809490074692
Mo 6.135859434188156 7.381586695524816 6.416965951833644
Mo 4.311755765015503 7.54849160847956 9.97516411909696
Mo 6.455741623848635 5.6016818518077125 10.73439997679308
Mo 10.712617690059533 11.524534690324497 7.181797880244157
Mo 8.91874612228538 11.808410144570608 9.08673456665565
Mo 8.133760415513404 8.66215244493339 5.244667658268407
Mo 8.473331400035518 11.8612685925104 11.540237060913228
Mo 5.403172386322136 5.859253279402515 8.202636493978678
Mo 6.924938086252398 7.822145078752604 9.006541947809032
Mo 10.329388758678666 9.578367882226823 5.444061794783748
Mo 10.613104199839032 10.045484053209252 11.961545937199634
Mo 10.363870885442815 6.763912622459496 5.182556152135777
Mo 9.789967555182312 7.4024964301797755 9.632958610464105
Mo 8.683260857921933 6.954086892970716 7.166502039192857
Mo 11.129104569643241 8.349788051427874 7.44651292507783
Mo 10.951570330487156 5.426283090061346 7.820716521827513
Mo 8.146667605598736 5.324267250175538 8.983652814516104
Mo 6.404101448134167 10.65609441063547 9.303843177210029
Mo 6.946854861571549 5.033285974455547 6.569560139294512
Mo 4.495336739373499 8.762383037321884 8.368371261410006
Mo 8.50178171556277 6.117549083649126 4.556557285165168
Mo 9.76114307093153 4.38281876852704 6.796203283139976
Mo 8.549525958232598 9.553800648123254 10.743914865121603
Mo 5.90544871306574 9.258960759570302 10.982750404913615
Mo 7.907998463190265 6.932202549622455 11.38514799652128
Mo 6.625573090821598 10.082113275102358 6.897270505204864
Mo 8.845097083238738 11.58653587727586 6.1690673858491625
