31
Energy = -280.92333597 eV
Mo 6.305137063489015 4.185278033399824 8.992106704984973
Mo 7.287355144437166 3.981976950231688 6.471503657940795
Mo 8.730966566894763 9.109987079912546 8.102450679244015
Mo 6.948737684667696 8.26570544068544 9.807549511555571
Mo 7.371354805799973 12.155027444066894 10.25213534965808
Mo 3.7733364023896905 6.265658317518772 7.078441230077968
Mo 8.07920140738953 11.797603616192653 7.81354095334791
Mo 6.068372819186047 5.776674921698055 5.597807715740611
Mo 7.700156268218081 7.52606714929999 5.044762775490963
Mo 10.025679935634846 7.202430640831614 6.328798007769944
Mo 8.820352603784391 5.314050988664028 5.287141326654824
Mo 11.112906360284242 9.047297641039822 9.829949461121734
Mo 6.15962764578785 10.49769562828104 8.333995958417097
Mo 7.85574786597529 6.101540415022895 7.925531738150951
Mo 9.309444652411809 9.369045487977587 4.952009898871519
Mo 7.437544727870563 10.125123964772673 5.858385209194621
Mo 10.077883813123806 11.06636405753522 9.325231594593486
Mo 7.446097739193924 5.689464162425037 10.659192980205773
Mo 11.411762894529447 9.5813799580458 7.043158794578118
Mo 8.645536079699507 10.047758105076026 10.893358734523622
Mo 4.396440622642575 4.359309294159061 7.149766453194399
Mo 6.112759309267099 8.008030947515676 7.097102453997923
Mo 4.5151652147425105 8.6922187644298 8.700057391707313
Mo 5.914746387687361 10.636433545266312 10.68259655911391
Mo 10.386224243464527 11.128010348626942 6.528537862745835
Mo 10.110103805244567 4.356680010727278 7.618692471775932
Mo 8.879887731862523 3.426595510506404 8.781325273808726
Mo 9.668303726658982 5.337562399764196 10.376217328006504
Mo 9.293187672993778 7.673018624856668 10.875443341285251
Mo 5.187143851970773 6.236945030853511 9.123398808502944
Mo 10.572606567265929 6.993600200002473 8.574713767486093
