35
Energy = -319.10493475 eV
Mo 14.080407796850306 7.257623999942834 10.017123327097575
Mo 5.919879157793577 10.116372283906877 6.424262287252724
Mo 4.01185656094583 9.276175039763693 7.483542477121856
Mo 10.367378069897631 6.9735621297486095 10.699343221379296
Mo 8.332168936967113 10.4960570806493 9.569168079950641
Mo 6.138343243958039 11.085867767871598 8.60554806615796
Mo 12.103099007860779 5.890515184351399 9.362174389189638
Mo 8.219862623126355 9.789490171164038 4.3657763197500765
Mo 8.241269211275586 8.344622762385242 11.179667920645334
Mo 11.823906281795733 7.894848377909323 8.194648141708472
Mo 5.44334271946198 7.421695950115025 11.152154091956152
Mo 8.478281535195217 10.611820275568945 7.20942335761954
Mo 5.69775203929485 8.47513869994623 4.588101221624764
Mo 7.758705879857777 8.04360336395101 6.212042071894781
Mo 6.017804056324531 10.018007014121318 11.281233301640697
Mo 10.381627702016177 9.034051332163143 6.059582333275802
Mo 5.535811046455354 5.683434646250712 4.390648116270049
Mo 5.168933088013887 7.236826372584131 6.721260108450981
Mo 9.831667374232072 7.353038005873889 4.414454058040341
Mo 12.822668165341666 7.609178219011032 11.540003363226763
Mo 9.180322921077858 8.140542282878275 8.581050229057997
Mo 10.249374765292345 6.293171098294929 6.870250336338021
Mo 6.369505573821541 8.449631892052253 8.889491896611753
Mo 7.589440925131417 5.845805303456333 7.640535058314258
Mo 10.796530705759034 10.43593696050777 7.963978412850195
Mo 12.919040759212152 9.695524666088463 9.716703932952333
Mo 9.50513368993406 5.2747936815320156 8.906034413851945
Mo 4.3707575295719145 10.012673561344112 10.185220250946747
Mo 7.666338721225452 7.993589074821659 3.2685692531711146
Mo 5.701310169435158 4.6194180694314415 5.890383209329767
Mo 8.28446090756438 5.728856721848597 5.1408789131715915
Mo 10.98448143365374 9.573638853083343 10.448392669973353
Mo 3.8352015640750476 7.249354887843597 9.341931029596935
Mo 5.219955348009064 5.723911166644211 8.821686425357319
Mo 7.437263384627557 6.317966721655832 10.439467513970264
