30
Energy = -270.59924469 eV
Mo 5.798952071809354 5.611915418047092 1.567330489396316
Mo 5.002254265706854 3.8783957560489637 2.1757250004571773
Mo 6.8917516201845865 1.7509914536328994 3.5117533594909376
Mo 7.60396676530587 4.423189268154039 3.07843452890245
Mo 4.876209983922041 8.030256421316011 3.10686395303594
Mo 4.084453368285024 1.7265889742566622 4.0332992229186555
Mo 5.077206265193802 10.31897153417003 4.05674457063183
Mo 6.67972836512686 6.495036654852913 4.213086249355106
Mo 3.8814705622995174 5.775939409828257 3.652705103642721
Mo 2.776262864752135 3.6490096158153715 4.409098577299312
Mo 9.066099286512996 5.331619790883612 4.8303618927970815
Mo 5.620438748590433 3.9396639997602407 4.874828784731118
Mo 3.1847517831521612 8.479954359341924 4.736949036080251
Mo 6.911758519793643 9.151118159023667 4.6552648183736185
Mo 6.566329985303193 1.2654958956213087 5.314129897533259
Mo 5.415239174502351 9.711806517514905 6.448752773382368
Mo 8.12276881817122 9.354685938497276 7.175443256213397
Mo 2.246140436810617 6.28342995444544 5.29776566472665
Mo 8.223676344882772 3.520955519213076 5.544846989975654
Mo 1.5562072652292567 1.4475284351547397 5.777323260100136
Mo 1.402845606999052 3.0800040548453236 6.646888276276714
Mo 8.551096088856703 7.726149409500238 6.444497020045823
Mo 4.8535521998927 7.325812284315182 5.996992507785611
Mo 4.08530077199765 2.116276450071812 6.352884011664655
Mo 6.877934487700397 5.397727193080736 6.647720666524745
Mo 5.957878141663945 3.1110650749424966 7.932236532466439
Mo 6.271442995529704 7.578812993026853 8.353715123322164
Mo 3.841322097320388 4.806695473354105 6.556496461276781
Mo 4.193395632057254 3.403294022826326 8.776134835307149
Mo 5.160709865248178 6.0887543512593645 8.612871519086724
