31
Energy = -281.52224179 eV
Mo 5.62675292026641 7.593051853717236 1.9818772800240145
Mo 4.8957940135212406 4.909932460738512 2.3861772447325373
Mo 6.847860170456078 4.873688816884986 2.348253276860498
Mo 6.213244347715217 3.7504742908912574 4.724548131547762
Mo 3.332586784073518 7.367218470997842 3.4470941069536947
Mo 4.101475314028035 4.5623689722441 5.032658615643268
Mo 7.803466090735369 7.606710442716561 2.866276681277767
Mo 3.3928328565893118 6.878713025208839 5.857097245158581
Mo 5.7686272920886354 6.5891671719951574 4.384482718256018
Mo 9.855613532779369 7.167874209460646 4.741783235137456
Mo 3.072235547522551 9.367675449829767 4.44172657939632
Mo 8.236520180260117 5.467066759784725 4.734507235310407
Mo 5.493987202400116 2.9581737059541275 7.105281532907343
Mo 3.9955587355719224 4.7356195859068215 7.72937659519383
Mo 5.489306123504153 9.27932788875284 3.635443591956533
Mo 3.199607578172671 9.04026860656281 6.8638358404880115
Mo 5.442938614631204 8.731241987833464 6.108963274665573
Mo 7.828568946053405 8.273443999655843 5.215387759072902
Mo 6.07492670743072 5.939610149349854 7.013821584272218
Mo 7.844205332531127 3.931832417605074 7.043763459058034
Mo 4.482114355016777 7.422439931411737 8.482116674663272
Mo 10.567839802292454 4.514822170584252 6.421197733175929
Mo 5.1452228536347775 2.678435487535148 9.458234589414142
Mo 9.233320983147888 6.459929361677876 7.0195391182480344
Mo 7.144136790688225 3.2465902773159283 9.423515330025648
Mo 5.687914768283017 9.299125165265664 9.34020181284556
Mo 5.40968856947195 5.376217165234121 9.739202825627753
Mo 7.310105365331256 8.024616564339864 7.986325686216079
Mo 10.074232353582344 4.0901382388517815 8.276758822030619
Mo 7.795270919959014 5.849825532426481 9.137467866728405
Mo 6.263035912805623 7.682961648071649 10.585553659696005
