33
Energy = -299.65135214 eV
Mo 10.281504022016913 4.178306721772592 5.79091405439253
Mo 9.055249503610932 2.2799824516183973 7.620025498497213
Mo 7.978460163890422 10.020962812254567 8.544711631619228
Mo 10.434251672299558 3.502167205585762 8.432983328367555
Mo 8.559545389618513 5.831236017317393 11.841194966739861
Mo 5.111558515039521 7.52167054156254 11.335582774524617
Mo 10.058878391084777 10.866564660227898 6.720325818111826
Mo 4.847707568789382 10.329010857918242 5.370582494768882
Mo 6.741499813716352 3.4014221313159028 8.95085473778715
Mo 7.785835782759337 7.72873135984416 10.169702463595113
Mo 5.549930226832702 8.803851132280798 8.847753591820481
Mo 6.821798447070756 9.659803190953644 3.5118159371824946
Mo 6.489058089454831 7.771702188085745 12.622735383848044
Mo 9.567969286854298 11.163481688841598 4.800238760958042
Mo 5.071272900049585 8.19901614041914 6.455603172576275
Mo 5.707391391196774 5.5839815843277325 6.4459983898882856
Mo 8.342576033298872 3.0324157359694204 10.167321482476623
Mo 7.926169132440121 4.655339031401456 7.0004602875238
Mo 6.615923049078697 9.877773883096898 10.627916280577915
Mo 9.705606493023227 8.277139086977146 8.513239286592125
Mo 8.582186846040834 6.334866871751084 5.090815335554068
Mo 6.053280262114129 6.155695297491361 8.700799566055451
Mo 5.4946764773248935 10.95040135908917 7.375169862744329
Mo 10.454045155555562 5.9208870045717195 6.8885225504575045
Mo 6.746117143883884 5.173866163608528 11.255700022830162
Mo 8.836274284933504 8.642264567563483 3.643065105619651
Mo 7.6923745346207895 12.516608434244034 6.924221751105412
Mo 6.366704613001845 7.537521908493013 4.478504709038783
Mo 9.87847685169566 8.493129359372482 5.822020846247476
Mo 7.544666085679523 9.832080422823969 5.903747701280908
Mo 7.71698335050027 7.524645730381363 7.228436137138528
Mo 6.827330763906753 12.40545362226254 5.2454337417416275
Mo 8.799513705076048 5.489974203334457 9.21865698076761
