30
Energy = -271.85490871 eV
Mo 2.1980966970678213 3.933773798463666 5.161833626120032
Mo 3.1820756871617233 3.686347990490347 7.872507012174091
Mo 2.0957079945500436 5.625346178681568 6.0533776277610665
Mo 5.007456993222038 6.2451098158774405 8.371431231461566
Mo 4.15572131675621 2.3456598007177005 6.805884365063499
Mo 6.17225776071248 7.964471108091134 9.432060483065445
Mo 4.444761770798544 9.39754857313678 7.520824840308129
Mo 7.32301188282981 5.328546395081845 6.9225214861885
Mo 3.4634707495394075 5.786711033177021 3.53651159668057
Mo 7.383045897647971 5.939249270447872 9.50482051941576
Mo 4.9483884032672005 3.6566906092219185 4.066995722136764
Mo 5.899284919945968 3.571570014304903 8.601099217117428
Mo 4.759861059440899 4.95104099314344 6.080013352434584
Mo 7.323563705770531 10.14925592431395 7.9920524263256505
Mo 4.25072163428633 7.57569002855549 5.426470312805118
Mo 5.147323956475781 10.082891121705085 5.876303585460879
Mo 5.175985198703094 5.270829869403484 2.159781509743667
Mo 7.985081101317563 3.441444962226762 8.479965384508624
Mo 6.523692074258793 7.7628286438873495 6.660040599926162
Mo 8.711047478239832 7.43973280672264 8.094985338513458
Mo 6.738858727289791 2.9187141455146657 6.068554832043027
Mo 9.783940398762047 5.583639219672934 7.226415642786946
Mo 8.257913939317968 9.968311523792996 6.421989199501746
Mo 4.82479513679989 7.890607822122177 3.086596849555965
Mo 8.602226652970174 6.663130735616315 3.2091390790585446
Mo 6.46371532209453 5.94993412728869 4.315843003416979
Mo 7.5114785492363305 3.5049221962964348 3.5537853507642962
Mo 8.791863166085776 4.396126156639127 4.840055097522973
Mo 8.93029719380575 7.243320034645709 5.326282462181894
Mo 6.864430047152882 8.489612458351552 4.132899582211811
