34
Energy = -310.18728558 eV
Mo 10.08235009548055 5.7646690626741695 5.792727809249023
Mo 10.351432781051258 4.685356073805351 8.334657283965061
Mo 9.248550974779247 6.906952753941459 3.1822421624042696
Mo 8.538445102372519 8.369133499094122 5.42813013433653
Mo 9.256975095797909 7.17579302336843 7.453201719972632
Mo 9.014487135945146 3.3401377989863494 6.041053439991754
Mo 8.218791091056417 3.8428306736715565 4.207482516650676
Mo 8.44976614725228 8.519388391003533 2.649295513569814
Mo 9.438889528607477 5.616554133785895 9.647231729416836
Mo 6.272232162079651 3.202208019636221 6.21279428615584
Mo 7.617381969696158 5.761855652741682 5.739421744039704
Mo 7.440760921186993 4.501631007171076 8.088806713771495
Mo 6.616800358489923 6.680186947189964 3.584804099990408
Mo 7.383393349284996 9.263967996303412 7.438985212288418
Mo 6.82865012202223 10.302804020548646 4.68887740891493
Mo 6.47602833783244 6.994804724852572 8.171501731173723
Mo 6.83288397246761 5.491483206426715 10.790725836979735
Mo 5.82381778683089 8.06057894823246 5.598254025350926
Mo 5.316621564175515 8.937577796646295 2.949603013726445
Mo 5.107231866251582 4.4630875590763015 8.900302912038313
Mo 5.433006751524412 6.705788792970459 10.726745278936699
Mo 5.008193795552183 5.405496390623377 6.289945628208855
Mo 5.523301177186744 4.362671286842817 3.9252776657777044
Mo 4.242859958739598 2.1575314743226075 4.581030304838028
Mo 4.302478175887474 8.620462998098933 7.695794930711031
Mo 3.96648278972616 2.8888724004448734 7.358377764097769
Mo 3.7359074929961764 6.6708927910603695 8.67486468081717
Mo 5.6712131095966845 10.744724403611883 6.4287976354329395
Mo 3.9687345564394603 9.584193740079321 4.673193241737898
Mo 3.1115552527318315 7.449659450227377 5.8861078627497525
Mo 4.027444310761329 6.918190221260302 3.6453586641779587
Mo 2.752255712928778 4.858270319927606 6.957794196531593
Mo 3.0685961237036836 4.796657695005118 4.331240665867093
Mo 2.423730932653424 2.539228397332055 5.174301535646463
