32
Energy = -291.93204398 eV
Mo 8.415559442599088 9.204693573053214 6.3566022046622646
Mo 6.692838740213291 8.491733725948155 8.164436807841314
Mo 5.453904825950781 10.114159586268011 6.5947717926178715
Mo 9.491351462872174 8.241577628931829 7.889534662054011
Mo 6.610087698620819 10.092658685525313 3.9717424602604057
Mo 7.411363264752594 6.3919701223137535 9.987405390478589
Mo 4.929075539657303 7.92627984740763 9.565343120700014
Mo 4.074992062607337 7.841506877891582 7.295657180453855
Mo 8.0858148080458 8.964694764124374 3.4940258739093633
Mo 9.263313215763876 7.053450206542093 5.153583143485093
Mo 6.3429184401371845 7.6542388978800435 5.486389930683771
Mo 4.019281728492839 9.432581080129852 5.175301907419725
Mo 9.473957030197504 4.119026106189455 6.985605097707506
Mo 8.091641204911499 6.292291879828029 7.057337548446664
Mo 4.691427765128697 5.198417979422129 10.369483230026484
Mo 5.46198973934068 7.89273973043065 2.98469726491977
Mo 7.666579904077981 4.662313878303066 9.477513797263606
Mo 5.594153563936915 5.840083799544456 7.804601045542397
Mo 7.470380543265101 6.259111709426894 3.4202717041230724
Mo 3.1675952297560643 5.8057126254075655 9.292944458694953
Mo 8.710999284764592 4.32651438198412 5.097666056656709
Mo 3.941798308132528 6.880167128319742 4.66395184916888
Mo 6.884751797409198 3.532645920431085 7.048942909036551
Mo 5.800198519779952 4.947808560501594 5.092976510810141
Mo 4.682058031260931 3.4534047748072463 8.344481132380773
Mo 7.058526861777118 3.3489239456633477 2.9536037120506293
Mo 5.2300594194637755 5.558657483132955 2.606254296919208
Mo 3.4803338643493174 5.072527326672985 6.640470942059046
Mo 6.919504358767239 2.276548381584389 4.5362656569033355
Mo 3.0951250467291604 4.340983609040031 3.9966139571639774
Mo 4.479126959238744 2.820960911571155 6.0679691833449
Mo 4.3182972312757615 2.9501027716619963 3.4277821467279237
