38
Energy = -348.01014823 eV
Mo 4.76766588943558 4.745129661941946 11.003303123997728
Mo 6.3258322427267695 6.984603388863901 9.616462667031284
Mo 7.238811525839742 4.214639429165565 9.489744263181615
Mo 6.280008232846922 8.955514276978267 8.823295523637768
Mo 3.7991969560493644 6.916793347415326 9.538657754669039
Mo 5.774962799178968 2.7491551275097534 8.842564746436407
Mo 3.2634734197317705 4.093819171535077 10.0695708227414
Mo 8.680376752130396 7.800169925748887 8.178455972178199
Mo 7.092313574733875 5.994275775296642 7.099135370671421
Mo 4.968391042868929 5.027638878945684 8.207956287189006
Mo 4.591737570337388 7.620166296355531 7.234764353319624
Mo 9.115327137989844 9.42558073698232 6.691747395165511
Mo 8.107618786261478 3.4058217521790115 7.228203535779265
Mo 9.636503100984047 5.501500784250874 6.8870716642288325
Mo 2.1658221988289297 8.441011047083595 7.521382836384833
Mo 6.9230892745822 8.746528651511992 6.200961491249764
Mo 4.677562721797419 10.333693924356723 6.706425023971786
Mo 2.4228858870312284 5.591039413069933 7.551674607055686
Mo 3.204661201645593 3.723747453217108 6.725352806581232
Mo 2.4406967974483886 9.523544374959613 5.763186277488604
Mo 5.904563279732537 3.174890046779698 6.298635629996804
Mo 9.166712227149208 7.246785677695259 5.387284821156382
Mo 9.738261555516047 2.500569810718209 5.297390315376132
Mo 7.989512464971059 4.604351216381874 4.822107576949776
Mo 2.5341532731735024 6.912277790486253 5.327376986534947
Mo 4.5739676088725725 5.515862162728466 5.5104139550137115
Mo 10.4740365894313 5.129519224437282 3.9975334861205463
Mo 5.662532627495458 10.708156243005197 4.918936732392018
Mo 7.961777946084832 1.860129980221791 4.72661422692151
Mo 6.6374309226397346 6.778843209665905 4.287917122706887
Mo 4.50976520457485 8.457261627078536 4.494025539057522
Mo 7.322724876166414 8.768084537248361 3.522128831344509
Mo 5.842116506530033 3.8077843885743548 3.5960171626863753
Mo 8.72225479878965 3.5276490653935597 2.7166954732086923
Mo 9.299694546220474 6.328511232362871 2.858103789078128
Mo 4.359118054012097 6.17305861952947 2.895122407351266
Mo 5.349477926650986 7.901772933367658 2.1253895659925433
Mo 6.943040869549829 5.086998711166382 2.1515566164889077
