38
Energy = -349.20580965 eV
Mo 10.49591293994924 5.478074432864234 3.985134407798148
Mo 10.210321648158407 8.415613676830143 4.282908918134931
Mo 10.993935425189715 6.8185020073815465 6.7816917857278805
Mo 10.51037227893845 4.364994198841452 5.675033255204318
Mo 8.15410766813665 6.229635413919921 3.0475806597158592
Mo 8.602015589909772 3.5572694247858787 3.5734876022921043
Mo 9.613654257990946 9.343525846122825 5.800751738358377
Mo 8.487941195848766 6.654388287018908 5.681372210203439
Mo 7.42282490709198 8.544477189045821 4.177837553790374
Mo 6.093462307039684 3.2953982584736923 3.0352139342390845
Mo 8.529548768393045 2.6968557000923212 5.7305483029244035
Mo 8.579652469601273 4.951172718946136 7.5190269784451775
Mo 6.771272247528538 4.757264995693701 5.063676106197159
Mo 6.004657636598733 6.423816726531776 2.7872681979727663
Mo 9.800041879016991 7.428942975031464 8.116049962756792
Mo 6.424510275749358 2.0066401654731507 4.646501473977157
Mo 6.010008554185798 9.937956825497706 5.863949543963754
Mo 6.488470306428097 3.06023002513764 7.553069665001827
Mo 4.727964183553732 9.049258812931777 3.275802575079188
Mo 6.0945813354949365 5.707949601379989 7.396140744893516
Mo 7.287632482021085 8.420515710373015 7.158016909560771
Mo 7.361168851072756 6.817084663054934 9.590507805781078
Mo 3.3552639461972507 7.756086865906849 3.5911795906489368
Mo 5.54544155953853 7.262400070430261 5.292045233280809
Mo 7.169518921732122 4.915418929218635 9.911386550688292
Mo 4.13171678314567 5.177579709296543 4.033007022342541
Mo 3.753508777846962 9.020489967372239 6.024245924632372
Mo 4.420282233010488 3.6317858655763744 5.82885237861866
Mo 4.869237611353142 8.275882034356536 8.048668412784362
Mo 4.775046047122397 3.6047550654049947 8.622095890285102
Mo 3.529097745527526 6.154416330598223 6.728451690941502
Mo 4.559702793691318 6.066970872686712 9.516300751886705
Mo 1.2902477684956135 7.528391125149251 6.031860681000729
Mo 1.891994808064681 4.876040777523088 5.082973016126437
Mo 2.4517112291750864 7.78256987619202 8.43877691360543
Mo 2.370707897154708 5.548129450294549 9.155707147856443
Mo 2.3055312583609813 3.7667054313986648 7.004041795102089
Mo 0.560196406872063 6.090107390069619 7.2076263528070355
