38
Energy = -349.30528234 eV
Mo 5.213522735320205 7.555169619045403 9.141136084397624
Mo 8.03125872733392 6.6492986819154405 9.637869859047655
Mo 4.842569659263883 9.556152716723876 6.856306405933254
Mo 5.739865016877175 5.151849124595181 10.584518592519668
Mo 6.752279299477797 8.001287488174933 7.391356531343222
Mo 2.883554496076339 9.618378681308473 5.54473491317195
Mo 5.556240860022272 10.511029696848722 4.2622498717923225
Mo 2.6356566162799893 8.152975630174437 7.713696937899445
Mo 3.8279703118778454 5.4421912969187805 9.268468618720458
Mo 9.301390649370507 7.9811321707992775 6.280421916348862
Mo 9.05777350228438 5.686888928707709 7.21266672933686
Mo 7.114958722273887 9.657469245285816 5.047389788788248
Mo 8.431800581182355 4.7615824809127325 9.781321316333491
Mo 4.5028128881023 6.582545147002158 6.8061188707669595
Mo 6.511820091077944 5.266371923800574 7.840278493431864
Mo 5.817403856191418 3.2680284527483794 9.271640014735569
Mo 4.941244953131427 7.90439967254886 4.79430941616283
Mo 3.4927563825244325 8.97749457507153 2.7205476706346614
Mo 7.2865414894031515 6.456908141032163 5.224168024130566
Mo 8.841592503846993 7.915733999457469 3.43717790742476
Mo 7.837466696758943 3.1120693451558576 7.378303426691088
Mo 2.220302370700873 7.464072050221752 4.985811045577509
Mo 4.158840895589114 3.860194445856263 7.357925484285372
Mo 10.231594673677947 6.541274798966155 4.860879041397093
Mo 2.033345401199173 6.047823925336376 7.040694740911844
Mo 6.405363274288674 7.999725894637489 2.7891718342023335
Mo 3.492895482638791 7.104307719674912 2.4970311641844
Mo 8.270800650556657 5.6115558841739315 2.93821530701753
Mo 6.112818320587568 3.9123018480388065 5.420453347730485
Mo 8.75480352433643 4.22399095888061 5.042767958082062
Mo 3.6783270486383253 5.149514861717071 4.793040858499681
Mo 5.756754604099402 1.859225534796926 6.952579549748396
Mo 5.775815751568503 5.6027936756372005 3.150346774549468
Mo 3.6484777605325704 2.4014580371141654 4.97350586803795
Mo 7.956663642893915 1.56376551561867 5.1929633467516965
Mo 7.198347386016054 3.348027022665673 3.1357834996008567
Mo 4.279789632371775 3.069853170112225 3.2729162139387764
Mo 6.221326893408507 1.1442226882458582 4.373926392980895
