37
Energy = -338.55286319 eV
Mo 6.560290896990854 3.5891315462934266 9.76473730908731
Mo 8.44973482341976 5.338375444140754 10.254566950259722
Mo 5.516298482354586 5.957713115264364 10.164693154776192
Mo 6.992440673385221 2.7724458278859383 7.633416538373071
Mo 9.201979510916557 4.352044521527937 8.6152203996501
Mo 4.553875983856113 3.9482771511496155 8.405685998735901
Mo 6.789495105136621 7.6252834326654 10.435842415152692
Mo 4.71160015970946 2.3559764808412185 6.748956510880612
Mo 8.95782276113579 7.2577116434744395 8.61243864065907
Mo 3.9926354359616782 6.446280115757447 7.999656189747278
Mo 6.2312697852225805 2.8734458012456043 4.834367442636871
Mo 6.985030260340503 5.904302719283322 7.828820691951699
Mo 8.07061685253194 4.163668635539937 5.925201734331242
Mo 2.4986313580071156 4.53918762019593 6.592509823477584
Mo 4.9907475594306545 8.552623452448085 9.014444013977943
Mo 5.184201462448516 4.952109665554448 5.767557285278647
Mo 9.77990703245632 6.073255102837729 6.565757390871097
Mo 3.7545008425596302 3.219669851421467 3.9460416064091994
Mo 1.6924917217938347 6.46677894606515 6.707505046052506
Mo 7.4990959567772135 6.365523904409748 4.829078832958224
Mo 7.880698528384024 4.045325877717823 2.9094749820333417
Mo 11.027188453274277 7.902268421987715 5.116885893579371
Mo 7.078093791929097 8.94957431156749 7.961141017352167
Mo 5.525454414538195 7.843564392966594 6.253480706099938
Mo 5.2080841358151595 4.437434982007774 2.8441961289320203
Mo 8.757409518978383 8.436568776619938 5.976730893502504
Mo 3.0904953794252235 8.689649935290557 6.937043485090865
Mo 3.01596834543193 5.403714519310709 4.360647876052385
Mo 9.764839993234158 5.587502905590732 4.034146250582457
Mo 2.965093260483503 8.064657079542604 4.670159799696279
Mo 5.004103919593749 6.938935294724355 3.6823387443832822
Mo 7.60058981267301 5.92663360971921 2.267853246843648
Mo 9.66332242822129 7.912834412183053 3.4753063445722807
Mo 4.861209410585452 10.489717740311564 6.823810930651696
Mo 7.134757405915482 10.288470692408481 5.756545759328625
Mo 6.813228505268064 8.717502899814777 3.940107683721964
Mo 4.463723764579143 9.878766903000056 4.610560015076114
