39
Energy = -358.97681371 eV
Mo 5.006989324457875 2.702119179684005 1.8571050520845407
Mo 7.2612708934269925 4.064926707715263 2.1007592311399055
Mo 5.184710167128717 6.4694296418021695 2.2835777415484775
Mo 2.9115477196040636 4.0520464428835625 3.277559618514379
Mo 5.99636175651926 1.749934500777555 3.3110109209151326
Mo 5.689687843985495 8.751531063937417 3.840500042931246
Mo 7.342985686855885 6.51182002907529 2.9712572339240673
Mo 5.509809189313572 4.476838071362663 3.8221125038135475
Mo 3.4392786576144747 2.502535160157313 4.390672020935646
Mo 8.186973995013089 3.1164233792086247 4.065594935264557
Mo 3.3055097960153708 6.7222095274196665 4.123085877096426
Mo 7.21555116749948 10.347974971509089 4.874831008696026
Mo 8.206200839469526 7.824390616721269 5.201012862968771
Mo 1.7181224007874831 6.6574766252420075 5.805403367978937
Mo 5.221308718018982 11.009904498886257 5.578775817881526
Mo 5.819040734181874 2.9803925616821925 6.003384464614058
Mo 3.599963356526238 8.959495946338308 5.247515160301701
Mo 5.618898354931425 6.631200164418428 5.259860092431009
Mo 9.3321429691368 5.430106590786049 3.93742535633528
Mo 3.517651273276269 4.642071768096604 5.931827012561653
Mo 7.711864166727006 5.041945795292796 5.730836290304095
Mo 10.4240437200323 4.516710346269375 6.028825975282899
Mo 5.985617667482524 8.67974830225177 6.6793605207828
Mo 3.9237389471917226 3.0404130867215673 8.159733466988186
Mo 7.986973712784985 2.4293861801532737 6.706451014449412
Mo 3.5585563827180513 7.1987548938659645 7.086483922183032
Mo 10.127951944093054 6.481649375040878 6.532826071053017
Mo 6.077954437259226 11.051635348183611 7.933645617517884
Mo 8.431093610661437 9.181131528155667 7.311495214202014
Mo 3.0828446202314157 4.897711028313398 8.471768663705664
Mo 5.71199676927366 5.146278117832726 7.6605383428181755
Mo 4.304320350221334 9.939439105763006 8.221413268310718
Mo 7.735737071415229 6.9991206732424 7.890272112492465
Mo 6.5856366797315715 3.048769485050655 8.667224804535905
Mo 8.589187318895517 4.533120500651088 8.046772235598546
Mo 5.195201582552648 7.470133608062452 9.217358105257
Mo 5.176935789818179 4.7923764531357 10.439119386119893
Mo 6.754142553204853 8.96284903447009 9.47856587135469
Mo 6.945699963413546 5.483160124582657 10.255594811582805
