37
Energy = -340.23675814 eV
Mo 5.427131612493319 4.700871422435656 10.322701067387861
Mo 5.948733821610918 2.3982729946823356 8.430531590568874
Mo 7.359583047415904 4.760832055426018 8.647523497519979
Mo 3.205339712283361 3.3153919039230098 9.246437484142746
Mo 8.02967261369455 2.4817467926143895 7.7433547967418175
Mo 6.553167731331746 7.1203403846252655 9.831786156963659
Mo 5.743536539338794 2.4639305364370343 6.026666976423499
Mo 3.851091133702709 6.100792970767014 9.777461943986369
Mo 3.5129118222433444 2.7263674218652167 6.513008720660337
Mo 4.86879630907784 4.7117925656406925 7.543323291174414
Mo 8.491707183429032 2.441700202845594 4.876412051303474
Mo 9.218457503925634 6.357274228857731 7.845915117826758
Mo 7.3167789573642015 4.723942852364744 6.021109932753687
Mo 9.777322974735235 4.538524231435314 7.000498968508372
Mo 6.538390760802514 7.012262403182254 7.068625446500336
Mo 2.11070841475156 4.603459448812916 8.28814298925042
Mo 5.180873982178257 8.308273824676888 8.914697180201278
Mo 6.328373985985206 3.7871560680163014 3.764691634047589
Mo 8.955707138457122 6.627080262165052 5.221163154451148
Mo 9.248784982978389 3.9676874820171815 4.090017978900555
Mo 2.8059860316862935 5.013771234105991 5.553181454617037
Mo 3.858306408711888 3.5906808272929447 3.9409730884071976
Mo 8.579891594717921 9.170959186466385 6.662752736068619
Mo 5.020807157986083 6.019391882899229 4.863021766578453
Mo 3.654200364359366 7.017488130963199 7.248695025330946
Mo 4.415848040760014 8.825989312065115 5.953247567485598
Mo 7.4845060303008 6.148884763126739 3.3451582992342965
Mo 6.741880299459085 8.213252688428266 4.777503126959786
Mo 8.990873035071326 8.594013527231409 3.268265013535649
Mo 3.036385667607315 5.691464096786191 2.726424679183193
Mo 6.9456738012207895 9.938950179590677 7.047057633629861
Mo 2.877769992169209 7.718433553395462 4.467285986952718
Mo 5.080392303462306 5.65476099457789 2.1565865603291536
Mo 7.599668892044833 10.860979548435674 4.288932674638302
Mo 4.726037763743682 8.069674514090078 3.1353802066202476
Mo 5.799563179326288 10.665263468476226 3.996328069267888
Mo 7.388840887708687 8.360409124085413 2.1104408284664142
