39
Energy = -357.42500392 eV
Mo 7.484398567465228 10.409543626646663 8.462261821624939
Mo 4.3946919837682215 8.937875836591838 10.654589211413736
Mo 5.044166400570155 9.887406449942308 8.095766141045019
Mo 9.990763901650602 10.408757521135277 6.797870135870836
Mo 6.828482576862038 8.474584837970928 9.706345587493795
Mo 7.111926842032626 10.08693671565404 6.094023853761751
Mo 10.987532461320265 9.218447668563703 5.723155539607199
Mo 4.797324049242031 9.354383643389626 5.446847365499491
Mo 3.2217774236941006 8.207278938436964 8.233785986180234
Mo 8.61007520183782 8.180992017978319 7.523756846721614
Mo 8.693260720493235 9.633464782474297 4.184424961489934
Mo 4.405226705662807 7.0552340186882905 10.674173774477799
Mo 5.808748303942494 7.618328281907551 7.457916472467836
Mo 6.798505680402484 9.5577574922338 3.2595632020115253
Mo 10.959180332085884 7.402250009789748 7.721119161042826
Mo 6.587281038405485 5.857268588183036 9.42665708505022
Mo 4.948366659784194 7.5481802227887185 3.4560625098411264
Mo 7.009434667141222 7.536468368047274 5.116945034981915
Mo 3.382368937951948 7.547658249390903 5.847785233217756
Mo 9.314882976757993 6.268420536906265 9.068734781263842
Mo 9.596400357349173 6.910110580470768 5.165000461200626
Mo 3.4487730392682905 5.765656467560655 3.6384267130073646
Mo 7.707191262292922 5.527864735839795 7.078881284133729
Mo 4.04990377521769 5.824006958999261 8.049929127117734
Mo 5.300583689553482 5.434547248514724 5.4384240838074565
Mo 8.26883337739684 3.5735913494484164 9.457177252236045
Mo 8.044026772249254 7.244236776236881 2.8144887133875764
Mo 4.940765623516464 4.254516488222973 9.827081633355684
Mo 10.353082844915376 5.225162838981156 6.818635657547844
Mo 2.5316499282876928 5.128200376726685 6.103714711815893
Mo 6.417080135265047 5.573336548246498 3.0319739243358232
Mo 8.324496545079915 4.8952759430408115 4.490574285798827
Mo 6.015108235072909 3.6635692864387575 7.735555203671484
Mo 3.8081145793789024 3.3233188211180846 6.464665725149116
Mo 10.106060073467823 3.6150976643593915 8.997229781656243
Mo 4.544497586377807 3.2470461398148633 3.692149155715618
Mo 2.6511436515080926 3.2441450082280694 4.073239935841994
Mo 8.633834904117956 3.110668340193539 6.695023003636609
Mo 6.793162228452812 3.1611740340227894 5.3733074538346255
