34
Energy = -309.26515095 eV
Mo 9.759201516457047 4.292164824856634 8.451219036791771
Mo 9.135422052175409 4.918634745565553 5.95355614577253
Mo 8.373649117468135 3.064412292271396 7.821422543580193
Mo 7.7999007812976116 3.236434911016852 4.757350562899478
Mo 7.031281092549356 3.2892377089562683 2.0190374665157216
Mo 8.782976225322452 4.860905114994791 3.069070097242139
Mo 9.506392876883355 7.008660855009708 9.381490140565253
Mo 9.786659038164421 7.200404697951553 7.489073332427438
Mo 9.268066722434202 6.947347600505639 4.395584773699155
Mo 5.9792957660747375 3.913549104387592 6.676525062612826
Mo 6.767263918198695 5.696840547595477 4.778757339217973
Mo 7.67701059273629 4.791100884232263 10.362679451609157
Mo 6.43272490305676 5.775923320081052 2.244011000925151
Mo 5.63239287440265 3.4058479226866862 3.4982211960277474
Mo 6.912296176984241 6.511046573850177 10.690009184390114
Mo 7.417165049465296 5.781872348289891 7.794150610583344
Mo 8.490903018676637 7.13671517402093 1.9881642485879323
Mo 6.90878721074364 8.17730986871815 3.2712134780312283
Mo 4.049356861600025 4.5400351933532885 5.411111619399664
Mo 7.546815641443694 8.114510807726317 5.753770227479691
Mo 7.211119960186193 8.24868474179937 8.383884652246216
Mo 3.5380473517277573 3.545554399028105 7.961923476377648
Mo 5.139318003659105 5.193897996497146 9.096669755173325
Mo 5.177326316309203 6.8392106892367845 6.783293138580331
Mo 4.9564737558765195 7.96601798000678 9.277663704492218
Mo 4.267676423857915 6.556757549870984 3.9499253411274466
Mo 2.0177455939689732 4.640383762558767 7.067200163014956
Mo 4.906842135386138 8.702857137713039 4.837717169625508
Mo 3.1345224923399018 6.3417209620467005 8.543919986229014
Mo 5.671684543255485 9.722012310150314 6.985770183862252
Mo 2.8038904943921725 6.966995994010941 5.867477378834281
Mo 3.5158670292017677 8.988168461799757 7.429810179706892
Mo 2.261117617668645 9.621618559419971 4.854355472710702
Mo 3.30243070866849 10.97077884488621 5.547722559178941
