37
Energy = -339.32815589 eV
Mo 6.069509486370804 3.965993275706669 9.057127988792717
Mo 3.5779134722634827 0.9845412839355033 7.049619603789478
Mo 7.598769478537089 7.1993709027029125 5.804410119810503
Mo 7.149637347788293 6.834978561515449 2.9803477636261735
Mo 5.247403022082707 6.452501078419602 0.9242067242029498
Mo 7.599446153619004 3.397710751079322 6.715493699658556
Mo 4.271380667112512 6.431551631564013 3.6379877593546466
Mo 0.7358622641348602 4.454049644241195 2.161479209614586
Mo 5.757844747777493 7.7928943394395045 5.554331339154946
Mo 4.223452517862288 3.605170059124814 4.331275596992349
Mo 1.074495929999338 5.522597262085476 6.959900294027741
Mo 6.813326747641114 2.365534748695503 4.3732215268237855
Mo 4.331564709209244 1.032287030431699 4.971785757475888
Mo 2.026740165602336 7.053992199635614 4.754322500899958
Mo 5.149527674836568 3.0653425412749447 6.883303773012897
Mo 3.078298043718734 2.048638603400413 0.8299220709205798
Mo 3.8833843276159588 5.625646046544559 6.153224469500915
Mo 6.046041743058467 5.688618316606532 7.847393064985661
Mo 5.953652921678117 4.447605359139008 2.5095930099576096
Mo 5.216161720506544 3.452778821553631 0.3831105355884798
Mo 3.2518549773017535 4.525404869153103 1.7589324838130325
Mo 1.828736955625958 4.729401050396668 4.313021744391124
Mo 6.711602751435946 1.0698450040738532 6.29837418545617
Mo 6.495113127822435 4.99626654214254 5.206964803703268
Mo 0.31431521566289544 6.587124177811599 2.844146702237038
Mo 8.614913832878802 4.271727247399448 3.573025721997888
Mo 0.39530279566087556 2.3616084681517644 4.928892616548996
Mo 2.3918747800988784 6.849393927097982 1.8557003845191145
Mo 7.793649654998801 5.789998850957418 1.209492862521167
Mo 5.016290071328548 1.875788965233957 2.13218395148433
Mo 2.5275429338874007 2.110927901390336 3.2269517810923407
Mo 2.450021880001982 3.152094441600917 6.553870866960307
Mo 8.10500735869843 3.0978148949573567 1.9985376639096966
Mo 1.3332026454209038 0.7952834679385362 5.425377839857458
Mo 2.149831127925615 6.94415780081007 7.778641653257379
Mo 3.5279502364483473 4.788306356252481 8.367236885853693
Mo 4.890932305390288 8.235609369539501 2.249146836209373
