30
Energy = -269.98250449 eV
Mo 2.510628317829644 8.487191598891812 9.592993298805927
Mo 7.527846791785741 4.894593423748223 9.238740247273512
Mo 8.966637471468315 9.101213109450882 3.6186909611835723
Mo 7.989307665390354 2.8985039708773006 7.379746338134928
Mo 5.696910473083605 4.779255795882854 2.148664072182638
Mo 4.276431964379403 5.165697159704238 4.585485634520645
Mo 4.410779855994785 2.554670000741389 3.6391697476646803
Mo 8.648052777843919 4.785089738612826 5.913865470501273
Mo 4.84641244060048 7.85206483388958 10.357370897796473
Mo 7.98753889370022 6.67806234069084 2.4669075158244085
Mo 4.226576809095125 2.6477484585401165 5.498473795359804
Mo 8.439807568390643 4.380430243704021 3.126885255727091
Mo 9.650188245325047 4.359998240337905 8.31269597984638
Mo 6.603908599360663 6.539162495763309 7.136262981412448
Mo 2.9287445511906403 7.274350089631645 4.469402036509771
Mo 6.029864031345053 4.117707687953293 7.122875488530774
Mo 3.8963659549195953 5.935649189318703 6.997449614253502
Mo 4.9998051992043475 8.422706166584149 8.003988109102043
Mo 2.488237252818589 6.4531260673808735 9.438057871891386
Mo 9.096311420481513 6.654812555849063 7.61595536172881
Mo 7.7938984894854215 8.37242061971413 5.934672089277733
Mo 5.187647834205757 6.623469775288978 2.2714357160954965
Mo 6.742085258342486 6.1256087628548865 4.501844360875772
Mo 6.950110360698331 8.87288292129667 3.425272432490715
Mo 4.829142721521052 7.947346273412392 5.205125374194709
Mo 2.7511811757170035 7.963181556751615 7.076400155998216
Mo 4.9842774640090095 5.7853160536296135 9.448796387183187
Mo 6.800559763654852 3.4880542821283163 4.4864071333235875
Mo 9.320504546549923 6.903169548417434 4.673470621962039
Mo 7.251502630455946 7.354520581712358 9.433616681959247
