39
Energy = -358.21268873 eV
Mo 8.421635585641818 10.592954828163846 3.069602205327004
Mo 6.721861372655718 11.042700946115948 5.00172429654862
Mo 8.683286809944622 10.318065086900095 6.076960645401771
Mo 7.204981181204004 9.099707379274033 2.810511242642342
Mo 5.983073014311622 10.226144109144485 7.479768063369653
Mo 9.573493056574005 8.66471150694201 4.3591617233186515
Mo 5.064592229927115 9.291728958357366 4.686517863623177
Mo 7.165676137862374 8.291134622521831 5.699839560755892
Mo 8.11386160745292 9.452155563965613 8.470098528068597
Mo 11.595790916032467 7.968119840363482 5.718610639330996
Mo 5.6580287074216065 6.802886592063576 3.8958632941750886
Mo 9.556862089231997 7.808401853652576 7.211187821231898
Mo 8.26434113347323 6.537183332373346 3.9116898430789835
Mo 3.397807765715635 7.293309801204323 4.698549945372718
Mo 5.380086640281028 9.101488299956205 9.664111264445738
Mo 4.451638955754667 8.431598653505736 6.984351507617565
Mo 10.650241934226797 6.145728892336944 5.017701229500858
Mo 6.651040495264028 7.361404527138403 8.13007288142489
Mo 5.227536136275667 5.8672165584251355 6.301395567716681
Mo 7.468705117096894 8.08499729204663 10.78307077642332
Mo 2.0681886419559206 5.2702618603094225 4.632162347864121
Mo 9.31252027176446 3.701788501172091 4.275919559581336
Mo 2.582264640730698 6.279291429955944 7.1924764905937435
Mo 10.407193139517796 3.42353107929999 5.7663030095751875
Mo 3.963795079973995 7.1248379493419325 9.332834681805837
Mo 8.306438418577295 5.599191348487949 6.400495763699593
Mo 6.7019652218970895 4.490201333112716 4.648479802297242
Mo 4.52143341710141 4.729675485506309 8.76075161325262
Mo 8.755140230928797 6.453120967906004 9.230654049444354
Mo 10.948056424851362 5.537274366318678 7.6411406228441185
Mo 6.125909878252364 6.384072688549955 10.5826144982802
Mo 3.903237644978184 4.562170895981222 4.124957100033477
Mo 1.9913646606287292 4.965340876179286 9.747101781399223
Mo 9.755634889007018 4.11050210748507 8.501366366167336
Mo 7.71688661647254 3.0260600440281555 6.619143709530182
Mo 6.993974220972619 4.507797297676598 8.510276687482435
Mo 5.424034141537776 3.1962360701643346 6.522742728790772
Mo 3.0071113168782238 4.119846765223951 6.880592542565775
Mo 3.2312894594275257 5.235368230425146 11.107704070154146
