36
Energy = -331.29581592 eV
Mo 4.3894139000792265 3.359112391790642 9.528593711271808
Mo 5.447189123517206 6.062980542443044 9.362499623132045
Mo 3.2163859142503686 5.677228362725933 8.267188927335722
Mo 4.115042152740333 7.878571955363787 7.556709341229298
Mo 6.3176623099565 3.6751852588887384 9.807509187042323
Mo 6.009280452290895 8.543178653811772 9.01907633488784
Mo 5.412402550170795 1.6412938999103726 7.416694371406235
Mo 8.116031412089729 6.458745588088644 9.150356416622307
Mo 3.076889925738061 3.3348438496494497 6.613913201104756
Mo 8.38666535307327 4.674749141349992 7.350765226157385
Mo 1.6438612900655198 7.39072894550715 6.559058835860322
Mo 4.087061649919262 5.849652105084152 5.749791208912881
Mo 1.2672763024968052 5.517264013925552 6.186387337769486
Mo 6.57707109135783 6.838443154105161 6.990760017069068
Mo 7.157300495865445 2.120943776060694 6.947905137993945
Mo 6.047386361031109 9.525888888863285 6.2946831713978755
Mo 5.623733259945525 4.4186104312714525 7.324229515167969
Mo 8.299990387317125 8.49617061921101 8.372667134296028
Mo 7.836291552003659 9.069160696079603 5.514990416631616
Mo 2.471215806682047 6.6260320452427885 3.890507532095022
Mo 9.130264298509314 6.6360523322750575 6.366903973720144
Mo 5.954859135757058 7.373604820017423 4.4425755368736555
Mo 8.570082308145318 6.808555582116095 3.835299747884466
Mo 7.142195603522462 4.963366144787581 4.95080294509917
Mo 9.8974438998362 4.434248551206495 4.85242388620364
Mo 2.780665712629948 3.614266462197532 4.585410530964242
Mo 5.750207253719803 10.013863239921113 3.4139814138563116
Mo 5.253922773383082 3.148169715469097 5.006226417597654
Mo 4.844156245035909 5.297079562231878 3.1627332458165194
Mo 3.608977556513634 8.464414845947916 4.87493332616457
Mo 7.760754426487938 2.3266602275507955 4.105151778571891
Mo 6.898844639861323 5.9879102559740796 2.209163759923225
Mo 6.971228917564793 8.977500899976626 2.4896104473028218
Mo 9.318916315909515 4.4673025207902874 3.0089897397114282
Mo 4.2621032987017 7.598977391065323 2.5093597106686025
Mo 6.723722662899138 3.151450516245516 2.7113245619170407
