36
Energy = -330.20811961 eV
Mo 3.282566548532846 7.912128969137494 4.368676926411288
Mo 8.348861308455268 7.236341760879347 3.483411887998334
Mo 6.362070594165679 8.474214623923137 10.313434997671818
Mo 5.1289912833739315 9.71919224829869 8.139796863405978
Mo 5.461184849182052 7.063671002358731 8.074244065598032
Mo 9.721041329974343 8.639627812307184 6.8845363587163675
Mo 5.473537899124079 3.4610361167838923 9.49291474066224
Mo 10.110099483806502 7.043399491600363 5.589807262065624
Mo 1.9115254681459257 6.192938568424214 6.4958567763615775
Mo 4.676675149884003 5.298145282368121 2.6888477973770852
Mo 7.446225965970832 2.576088001198769 7.610822802777069
Mo 7.0744241493378315 5.154785752431601 4.278011100222605
Mo 7.551070581722751 5.189840891391356 8.653568687870994
Mo 8.13798025706347 7.580192978225986 9.092132853323886
Mo 8.058251139240134 9.035985111005099 5.031047497111187
Mo 4.530231731919843 2.393921241690123 8.192996341367405
Mo 7.658066402628799 2.5799862827082385 4.701383231518478
Mo 7.171610814033119 9.560922376232718 7.657259134970269
Mo 5.899542847328056 4.3007669855726185 6.730418373386923
Mo 5.897590247708599 6.325712619901501 10.380826177376253
Mo 2.601325238980174 5.137148572546665 4.195829725902546
Mo 4.19985666298044 7.560909069328125 1.5728287779315528
Mo 5.425298057604405 8.857895433321314 5.762075898920785
Mo 3.8722820239453375 5.265714733969714 8.081736409053635
Mo 7.518202808976172 6.875302145105556 6.254775853566614
Mo 5.989395850074362 1.5959743124903893 5.91602348220014
Mo 4.555505852649465 6.1094330111424755 5.433954955648921
Mo 2.999035509737155 7.8963698016097155 6.983056737600806
Mo 4.939608780456752 3.3179574179677127 4.367863051871529
Mo 7.00000970941815 5.678713384342124 1.496190018462879
Mo 6.798363016453334 3.804200024158263 1.9503205384932065
Mo 5.915010417142369 7.628908816367453 3.6739471121671667
Mo 9.685903809926016 5.81404351210258 7.797274854111673
Mo 2.4592324788458484 6.85098941830104 2.062806633357148
Mo 8.718293445246102 4.198073839730637 6.210117325128931
Mo 3.2380720101052916 3.5372815274565816 5.9273375897941385
