33
Energy = -301.56547716 eV
Mo 2.2091938206994888 4.91337927181249 5.119493190597456
Mo 3.2849556840767504 2.793812928454897 4.75229955838696
Mo 3.0322680554130237 4.84339540344726 2.654631860976625
Mo 2.6126373066161985 3.3001671297628605 7.362612095745021
Mo 1.8215359171315617 7.346600492703898 3.217081179951726
Mo 2.9287662455044274 5.237044534298923 7.929313296249471
Mo 3.163143783915455 7.933491893617984 2.0844679999941365
Mo 2.7090470042499404 7.469288905220555 5.870973251815774
Mo 5.014288488473574 3.683182816583158 8.48228644157456
Mo 5.321334837805177 5.839635568746227 1.4467489057700507
Mo 4.719112032747259 4.773378905563181 6.0437448673813865
Mo 4.9816265676686635 3.6715759164806334 3.4980485208919596
Mo 5.326346974597991 2.1769922601929763 6.396026824037006
Mo 4.395036027983001 6.3168659594239465 4.036387878994123
Mo 5.6159186532961805 6.507682496545572 9.378513419312432
Mo 3.7972862320447236 8.943844886987335 4.881036355080691
Mo 7.204182449334365 2.511076183095837 7.649741273148044
Mo 7.258451718685056 4.0253314488007454 10.136601094744535
Mo 5.08781972489405 7.367733963387826 6.94599452063244
Mo 7.11516716873998 3.847685544239456 5.1830854151906145
Mo 5.859690108596791 8.286310796214387 3.165260579063611
Mo 6.9672142501610095 6.554257480784877 5.121531072483294
Mo 6.457251047519603 9.125836114541874 5.223619351662453
Mo 6.956897880360064 5.207390079804299 7.541645174628604
Mo 6.890804546158738 5.744613975865012 2.500644648861218
Mo 8.62767093548514 8.162080686254283 3.4762489349875976
Mo 7.276058889302407 8.085731901102987 7.631638426951583
Mo 7.724509495417149 6.913922727691216 9.624172839888725
Mo 8.913698956249544 4.241064902226143 9.321913053547066
Mo 9.125069048447877 3.7715124039562493 6.405581355745699
Mo 9.116304229866799 8.521679294807226 5.310917331810751
Mo 9.30479402138256 5.704319376498629 4.752402744826617
Mo 9.230254862188458 6.28089335589925 7.006618672320404
