37
Energy = -338.05529421 eV
Mo 6.1956244229933475 9.825570587723233 5.605258368067976
Mo 3.823768132330221 9.921287715031909 4.701771673248218
Mo 8.123805865050736 9.104431435977851 6.942965801477136
Mo 6.049308835134426 8.71153474160403 2.8349248782697507
Mo 9.72496481470852 7.8061551718018825 8.200285698651935
Mo 5.870139838702332 8.56709335505182 7.883505885593677
Mo 7.874069910534301 7.9138787706569715 4.749767030353309
Mo 9.981681741140466 6.860046083032592 5.562587283105918
Mo 8.036395271042654 7.765656802177359 9.532163792614462
Mo 3.4728171487659543 7.545738744236092 3.3518146448547146
Mo 7.390610034454272 7.5974361628263445 2.1488929175253353
Mo 9.088314821466458 5.684782151635582 3.636942397946573
Mo 5.1486867610317 7.496773671696782 5.564676890312798
Mo 3.5463060479339608 9.654186361100516 6.696284189699578
Mo 9.66994265033116 5.202116882025851 7.549302184902891
Mo 7.52569932398741 6.414844693628258 6.983444961688975
Mo 9.956727358840027 5.834649748982763 10.172680640773454
Mo 5.08503034571634 6.028093907917177 1.7538767073331814
Mo 6.549998522660245 5.500604720402613 4.265711429679214
Mo 2.4579933086370915 7.54395676913426 5.468958955348244
Mo 8.75570360319423 4.203486484267241 5.403430410498565
Mo 3.2585811898922405 5.362345271359181 1.6775785813523134
Mo 3.742655568804266 6.9968934684179445 7.833924698000171
Mo 7.8587007412564915 3.072216983317739 3.5387813014724374
Mo 5.951002635403569 6.141731113745234 9.074671065845914
Mo 3.572932167411463 5.240628974408489 4.302059095634765
Mo 8.367952991064012 4.89185846706467 10.102546315684572
Mo 4.912401322803783 4.90067132124183 6.72889000461213
Mo 5.260967752120313 3.7371051801234145 3.097556630854273
Mo 7.182983852189397 3.823222001790391 7.8084374553548095
Mo 6.336909584089106 2.9509813997854715 5.356818861176925
Mo 2.290386792002766 5.21235617420842 6.553870227856223
Mo 3.654366127348653 4.53714668361179 9.173194847824485
Mo 3.748862093566068 2.855532241793529 5.309120063239381
Mo 5.518339356871609 3.9691053324771537 10.097576237558894
Mo 5.294545783559995 2.492912873114096 7.863967573967582
Mo 2.790437371039967 2.9631404636350798 7.342753908870989
