32
Energy = -288.49246107 eV
Mo 7.799538101185473 4.647463553607311 2.146366158574188
Mo 9.565098756793859 4.339467100970367 5.853972209063776
Mo 5.974358546322871 4.675070746193383 2.183234931465147
Mo 7.1242896541016005 4.8214158032797 4.864204594197032
Mo 9.60911275596479 6.519191334460008 3.519300050999961
Mo 4.572696984037802 7.1786352849691815 2.7218611353864994
Mo 9.723822878018439 4.766487389094205 7.841849091117794
Mo 4.483815650885158 5.747848896563725 4.485925578713034
Mo 7.308989619139995 4.640709275117576 7.506817636100813
Mo 6.8919236582848 6.985708487718823 3.571068516366699
Mo 4.488120107888874 4.844085884870226 7.235408454247432
Mo 8.873056666574334 6.742147795907131 5.978668649524995
Mo 5.9166607448608115 3.4295386701850052 9.40601796383445
Mo 9.393412320318483 8.384535700728096 3.9231914897997626
Mo 3.336787021081699 7.270885611897938 6.126493793162292
Mo 3.660790382785723 3.97141081006082 9.224988669405906
Mo 6.238174407927825 6.803326179687551 6.25524320594063
Mo 4.816208016122142 8.596711375574992 4.722342695938892
Mo 5.336865738126765 5.046211958000055 11.023695476193577
Mo 8.332570789982402 7.334805765521042 8.428896341630425
Mo 8.853253296949548 9.418321885428055 7.094755991152245
Mo 3.799796986519791 6.813055362698106 8.362178917671763
Mo 7.115145915810548 9.24064499452096 5.250950401606443
Mo 6.017985553392081 6.274841944453817 9.165594661478183
Mo 7.665234599569428 3.823189244035359 11.667225464015084
Mo 8.149977298574894 5.200276588774046 10.52297126680846
Mo 7.720522508512433 11.648960889929848 6.406124299348321
Mo 6.07312959921149 8.872608978384378 7.819253812678283
Mo 9.137494901450799 9.726311239918266 9.54854892418352
Mo 7.261154974227268 8.523146217352277 10.198662170922828
Mo 7.217949460265431 10.844148496021674 8.754064219662132
Mo 5.698447496408507 11.025221925372355 6.346508620105609
