30
Energy = -271.06553323 eV
Mo 7.276016360065643 9.754841680402572 2.6261466930305235
Mo 5.697930604090584 8.90439839344431 1.9865744669234093
Mo 7.919504243183216 7.137384786320318 2.6244587145732394
Mo 3.4588286909134136 5.012549049455487 4.825234424511814
Mo 6.146287094919511 8.370590016828647 4.582170158474202
Mo 7.9598392850542306 4.892905692520911 3.8424019432684746
Mo 3.775431608677911 4.039623024877019 6.4874448081648755
Mo 5.899404389541147 6.249265383641216 2.78034790985623
Mo 9.977935823602891 5.417082166758432 5.225407065411905
Mo 7.994670184246494 9.712665875750275 6.588601987296
Mo 9.184125491649596 3.3968365044639346 5.905673959116655
Mo 6.889108406277817 3.4302603665663494 5.772849247802881
Mo 3.7610315686829017 7.8555108826643325 5.104306854832441
Mo 8.32790490773502 7.165509952428519 5.192989291054892
Mo 5.906416369459889 5.659603869028555 5.336598423811682
Mo 8.964989521341806 8.39300582607492 7.55340816118104
Mo 5.1047675022983325 9.9260874831992 6.514570737898635
Mo 6.126550087628567 7.557580990446 7.229697944885178
Mo 3.850367991504383 6.531835302025293 7.271692696187398
Mo 8.073397129664444 5.554747373846829 7.2796882070325735
Mo 8.026021056858681 2.921386106842928 8.50673701831282
Mo 5.847490847348225 4.740321568799061 8.112984228654017
Mo 6.400801250028152 9.24423559303691 8.905196117495562
Mo 9.635912976266724 3.954677738335834 8.64483040622679
Mo 3.0080288799307495 9.28326463653995 6.70150501023463
Mo 4.156712579567608 8.519508163200006 8.988897617085161
Mo 5.625993362357792 3.5766524810436344 10.37513418625649
Mo 7.287955887333125 4.496103799874888 10.717639867574084
Mo 7.497808744187746 6.8638443082757465 9.478350647106819
Mo 5.226889603286774 6.445843431011898 9.84658365344372
