32
Energy = -290.997661 eV
Mo 8.332292517341354 9.254898137660861 6.275795633101272
Mo 8.746473300361895 6.781112488774175 7.001347041389079
Mo 4.585810892704293 8.437273575265259 3.251659977043617
Mo 8.691519707554171 6.20217760927472 9.603983703151398
Mo 8.451323699869823 9.088996024855799 3.894062611949661
Mo 8.167065467475052 8.947797309590067 8.99926030234043
Mo 8.902025480562932 6.827874474209827 4.480212112665605
Mo 6.859647526272429 8.740975122177138 1.651081366804589
Mo 6.487557815074309 7.3293893955002565 5.157916553454995
Mo 8.46544397649582 2.418436732059517 6.562232516975409
Mo 6.334457572145751 7.213113244357229 7.916876257247447
Mo 7.019644229690649 7.013238859790157 2.1177945322364704
Mo 6.24057535321618 9.850282478547332 4.506460580458118
Mo 7.117496664931019 4.914493179595378 4.0697123815224625
Mo 3.887788017149069 8.574685708590533 5.22666164139238
Mo 9.106422755820466 4.429242853043179 5.645351757584177
Mo 7.084029459693727 2.536513347417382 4.921270740084718
Mo 8.833039757960647 4.510604513733488 8.646252881979718
Mo 5.913554623464362 9.563187667129394 7.066823748454953
Mo 5.3646807433912 2.022848388824577 7.194955043041333
Mo 6.7219900832337665 4.5909584117064215 6.802867546552559
Mo 7.679288668855016 10.82144966518085 8.475546903908086
Mo 4.651464231344158 5.950641987796225 3.912876436342794
Mo 5.548353544588834 9.102054373266173 10.018744251780179
Mo 6.616954412596006 2.4987390354382084 8.702146937231468
Mo 4.776243412945745 3.998528732332181 5.240267436461338
Mo 4.186869370205944 6.169340458894623 6.482466882423947
Mo 4.336391113251742 4.0560136052096905 8.115770852798843
Mo 3.6931837616660528 8.179317183490237 7.971394591512026
Mo 6.296119470596725 7.565654810409831 10.781027595841962
Mo 4.00163014936367 6.561107233354417 9.29739070009983
Mo 6.169149900042449 4.984777614720558 9.413540058282933
