38
Energy = -347.31485215 eV
Mo 10.671882990938771 5.87659933303076 5.046828486808273
Mo 6.002714964718652 2.665380833635332 8.678205268294748
Mo 7.533374877339861 3.682230945220919 6.1905418196288755
Mo 11.20150112854695 8.573511386669235 4.7842845790885535
Mo 8.522110011044695 3.7547577535957593 8.789150804301402
Mo 8.766372150163555 4.471160679152307 4.063948834478266
Mo 10.027930445947012 4.455600307766398 6.773032191057317
Mo 9.204040203273008 7.4909367697117455 3.5732464551266734
Mo 10.591228935996021 7.481894117264018 6.875799853026191
Mo 5.25626205991912 2.565783872076357 6.23706340363347
Mo 6.482829846781617 3.554434947865021 3.722752261236545
Mo 4.289423153843709 3.5992863159379347 8.71927938908589
Mo 6.903437357062523 4.955580602719261 10.73715334918683
Mo 7.040541958113915 6.139745119710938 3.444438331068854
Mo 6.441268912645527 5.3948172611164775 8.041714059213934
Mo 9.519413711008214 9.712299037634747 5.3972119513731425
Mo 8.146829956585092 6.32173590196316 5.954195129532253
Mo 9.116574682564917 5.91848619479768 8.588955033358225
Mo 4.169702186446328 3.2894591419341515 3.9173986014002224
Mo 5.4162334706048085 5.350447453542293 5.427410676431648
Mo 8.34610844016792 8.595511213209054 7.455487067853558
Mo 7.3417688138217905 8.65103963998291 4.605542122177873
Mo 2.063804693961658 4.935620422154977 3.6594668049350667
Mo 5.123080383247279 5.659119494993509 10.60542747091126
Mo 3.309110293878215 4.171853901743127 6.131575555777805
Mo 4.1616418777365425 5.501752912804146 2.8886370424141483
Mo 5.870045373238512 7.874545426486881 6.900994756723586
Mo 7.059137186607546 7.395967608305328 9.53509783964525
Mo 6.861636365103607 10.426565044158087 6.656825122511248
Mo 3.8626612481701255 6.110226180241221 7.7521180065442294
Mo 4.837427207030998 7.732576056175255 4.323222346734571
Mo 6.786355821229053 10.197541808299581 9.524202440279378
Mo 4.69661033334105 7.988514503963331 9.197892079429087
Mo 2.773105661716463 6.528491418388724 5.058226675860258
Mo 5.091220634649886 10.007906915259431 4.982976174892325
Mo 3.317106669563674 8.644534790161963 6.608870892987083
Mo 6.425062622965809 11.85211746798885 8.880689211024908
Mo 4.454070931003409 10.09855520475535 7.7902242986359855
