32
Energy = -290.51427788 eV
Mo 7.251044008357978 8.562748461585809 8.574830363220489
Mo 8.382556889966668 7.460946327608938 9.961169132723578
Mo 5.770101945609279 8.990904204198175 6.0191467201279965
Mo 6.273197752610194 6.10111567388862 9.7091186430283
Mo 5.063139280046523 7.143135711389035 7.85184610268347
Mo 3.6806491884690717 5.003288582503535 8.927386803695857
Mo 8.307450011353621 8.430139085843017 6.189905717819257
Mo 7.914834332458507 3.818898355706331 9.567381919952135
Mo 2.1165961736679146 7.108226115193036 7.2402695585824794
Mo 1.328914616228366 6.612572861926586 5.650754763313346
Mo 3.752286513493074 7.9840913110909195 5.23246589627513
Mo 4.77983820271048 9.231329655324098 3.353939818344907
Mo 4.920769246594159 3.8726895652157136 9.868696556081504
Mo 9.837743569629444 7.378027175888495 7.798045558194703
Mo 6.756216353963612 10.090253478162614 4.058560507881725
Mo 7.825758490351844 5.91743023030711 7.67187146601888
Mo 3.8183662167543475 5.285825741068802 6.121314184107218
Mo 6.29417194367438 6.481905776236187 5.5712479144301215
Mo 10.343163929872096 5.3232521233008425 6.617001016613257
Mo 8.554819910474993 3.1429611480821893 8.042656046374002
Mo 9.39828802610533 6.5128319581274425 5.100336416175302
Mo 5.803447161944475 4.123917820893216 7.343953853218971
Mo 7.253787754079765 7.884288667786087 3.614693926464085
Mo 2.5728850781996138 6.767680678780667 3.080020161881859
Mo 7.472501957433576 5.069242825128112 2.9384147197000154
Mo 2.692855131857978 4.645041400734056 3.7031088536097525
Mo 8.081677386372952 4.18685355910312 5.4526575873002505
Mo 5.30944111330608 4.10454695902258 4.560037769601394
Mo 5.0306997908188995 6.646482665443176 3.2233781502286676
Mo 6.673903352326497 2.372528302569317 5.844475463681172
Mo 7.226965163130961 3.174173363600947 2.953519427038302
Mo 4.5411918601595564 4.420142119064835 2.2370961461068424
