36
Energy = -330.52884567 eV
Mo 1.8881922920240997 6.900332547833329 5.555649462581265
Mo 2.609815663927646 6.636094713509278 7.819289165498896
Mo 2.2032422067277952 3.982866360686033 7.1802579218979705
Mo 3.8406154702735757 8.9302020041005 9.03924344954533
Mo 3.7901329229160963 8.38116552769779 6.163658040367766
Mo 2.1868304704037316 4.366311652514807 4.471208468383382
Mo 4.032700748879874 7.293490770657465 10.120367504322575
Mo 3.7734270057994483 4.238228133873238 8.364070076838614
Mo 4.117720287659254 5.500470878066656 5.81740556977172
Mo 3.651413333698815 7.0230657883304595 3.7612570464135695
Mo 4.503768557132253 2.9046055874776333 5.760216165819515
Mo 5.246363849336289 6.7394742915495325 7.875739403585537
Mo 6.196363298714347 9.325053496925937 7.149910582046127
Mo 6.598792110591516 8.262624232388777 9.636302170425992
Mo 5.433196030232666 9.360595024004107 3.807819896710032
Mo 4.037352256738472 4.529070902234661 3.257616217058481
Mo 6.051194881919266 7.341733369526685 5.218257937175162
Mo 7.24928936900145 5.68864699576741 9.73480251291615
Mo 6.018153465009529 6.568882213605587 2.808519457442735
Mo 8.213766198260569 9.215757000135863 8.433086613782837
Mo 5.379033986252812 2.323175028490447 3.7857161983680205
Mo 6.353816893412041 4.355716852829069 7.232399099763122
Mo 7.996196863554693 9.087490686122862 5.440112677887576
Mo 7.877687445412794 6.8499407887432024 7.228021087548992
Mo 9.007784638415545 6.820373086883147 9.622599530050394
Mo 7.244200936461102 8.811318695920338 3.026409149439774
Mo 6.627479246869419 4.16440772487023 1.797743008897447
Mo 6.4457917491805885 4.605615498003467 4.65016010800277
Mo 7.371083992345074 2.2127411751538486 5.998923669414924
Mo 8.69303825135385 4.336838565270214 8.038144642876855
Mo 10.308789200318513 8.124126919438954 6.561583397553862
Mo 7.958189402506683 2.350897171107413 4.08088375169847
Mo 8.719287129930855 6.717951590001334 4.727225463324487
Mo 10.563600058358766 6.317464603906606 7.117126744263462
Mo 8.238554310149764 4.817733125441973 2.5740487375056804
Mo 8.925010631099171 4.489896444608098 5.6634890794531305
