34
Energy = -308.79756693 eV
Mo 10.20374398492444 7.433559654489364 13.92470745939104
Mo 7.51734785859723 7.815201890229271 10.990991514573833
Mo 5.344864404955351 9.290667762896948 4.438740331743236
Mo 10.884842516699775 9.154577995743072 12.33422978187324
Mo 7.867336192003468 10.684730008732751 4.66234890205243
Mo 4.790909544427079 10.287879449380707 7.967642149549429
Mo 3.474280478512826 9.952359889357334 5.795112198050514
Mo 6.637896956898057 8.85569284120168 6.724807633127718
Mo 7.310949669899421 5.468920948893971 9.877455356729525
Mo 10.241239923006514 7.120513685447176 4.657373561809747
Mo 8.316525908964786 6.576741983411567 6.109260654794197
Mo 10.212543320998854 7.924927623691028 10.293901757164248
Mo 7.836762113010546 11.15923086685078 7.366815665837116
Mo 5.624767863311419 11.364735012013572 6.162663236662687
Mo 4.194145856340784 7.936965202947797 6.555953917090955
Mo 10.935838437486499 7.236297223887219 7.513670398897878
Mo 8.23240257346562 7.482999426495726 8.530630972317963
Mo 5.3643407254571285 7.63088541840191 9.10760851304678
Mo 10.830459838394798 5.461811924306525 6.51598980956508
Mo 8.305496966181826 4.5094444531238675 7.670806594963426
Mo 8.953898364730966 9.98960876068331 11.427961404118738
Mo 9.84468391665206 5.400410983618984 9.29977439413173
Mo 8.845800917767027 5.948437767273567 12.053085050159815
Mo 9.612254919718126 9.88289412125105 8.7110664404106
Mo 10.973607019890588 6.075942436265218 11.575135444824353
Mo 5.928828439879145 6.786665308319023 4.9020415937065245
Mo 6.729230937539064 4.2644370094966995 5.628523176974616
Mo 5.930696456209554 6.096103612030881 7.714325707729301
Mo 9.373331735173442 9.096532876554054 6.321830784883969
Mo 8.766196882011846 4.0538962377667485 4.909587757306069
Mo 7.937468208515873 8.674321004389594 4.103229350357491
Mo 7.114721219138994 9.83633490603702 9.266910510618512
Mo 8.513292824542189 8.492687896143597 13.460606813302588
Mo 8.07672225037589 5.905377285948092 3.7006634175924127
