35
Energy = -319.22347913 eV
Mo 9.527057551656377 3.939007783124223 8.276649912410507
Mo 8.762123594416034 6.119300125514481 9.01660404748174
Mo 7.530179275372661 8.635355340072293 9.406482736326556
Mo 10.741918272187023 6.363813800567617 6.878390410809299
Mo 11.40743521554675 4.625438208855962 6.42453797544173
Mo 8.52708798692853 8.352332208974131 7.478876231643118
Mo 3.9765697492260177 10.027554532204839 7.912773700694767
Mo 7.043206751261298 3.758355966275936 8.467932462630074
Mo 6.340411017497076 5.862165027670507 9.308524345198027
Mo 6.409993804861683 10.16267943256336 7.882048511877185
Mo 4.556337708273723 8.302644199946736 10.023580580799521
Mo 8.561190745798562 3.366305691589453 6.17015870350908
Mo 4.399247922069977 3.808574052319861 8.942033540745879
Mo 7.865697919583529 5.7384957472196305 6.758546076566
Mo 5.744134175501641 7.7391065283198355 7.4594209768527815
Mo 9.653182356513792 5.084504368104651 4.620233406682375
Mo 8.821817152970763 7.378303764642429 4.916576027319536
Mo 6.1372621008216255 6.949509573767622 4.792882688353964
Mo 3.686630208626804 5.595321883581133 9.032867313332053
Mo 5.038900181521358 5.182152090724964 6.633513010312215
Mo 7.1672930991114745 8.670626980103087 2.701927125706071
Mo 7.878135372140597 6.040440833439225 2.912784979765081
Mo 6.978497672289827 4.349400575668776 4.433892398995203
Mo 5.510531591674821 2.1480881035211854 4.156889450892917
Mo 5.596145561095601 2.5636540787406807 6.021760438314554
Mo 2.7284213017502497 8.218820732251709 10.095661832861488
Mo 6.9734422187004155 9.281254569870281 5.397005994321815
Mo 5.8887615084132605 4.316635885608322 1.930514087492681
Mo 3.217707106680623 7.6263711492920185 7.351803359767518
Mo 4.452116854757829 9.542063388240441 5.819285883629593
Mo 5.316194756677488 8.948902273005816 3.1232386005536927
Mo 3.503057577891067 6.9491066270852135 4.7184752635333185
Mo 5.177504109508847 6.054816282603389 2.2325457281269436
Mo 2.4942733067227407 5.5498950045602085 6.156643780996272
Mo 4.299130836891514 4.556822278038786 4.351836880173764
