36
Energy = -328.10957743 eV
Mo 4.820010392230664 5.312869946882825 3.559093433534851
Mo 9.831161606394707 5.908295914481308 4.833675345995307
Mo 5.225323297517174 11.526582123436022 9.036425281961156
Mo 11.593243677242738 7.747825484247966 5.81574789737597
Mo 1.8922281506737826 6.265656154502595 6.02955893062291
Mo 5.604493013588784 7.800268455981579 9.974200444176121
Mo 9.1668538713041 3.127916274576933 4.260751192135775
Mo 8.961999082432595 9.094202074717197 5.975309199965678
Mo 4.506538638368559 5.6439042613997765 8.855187447686701
Mo 9.825918232257353 6.6375289924458665 7.711078011612693
Mo 10.82875492430635 4.901952316363476 6.9041852893651
Mo 4.089027034113556 9.752529151125756 6.930000764163338
Mo 5.4457716456020995 7.912803047849418 7.4418865341760725
Mo 3.303933731137447 4.691387158564606 6.826609150732235
Mo 7.6406707307401005 10.546487232958334 4.683669888063909
Mo 6.570721818507838 2.9820545288184133 5.636207893665987
Mo 6.633979651588769 10.389412529077958 7.183088981511666
Mo 7.290880361838037 5.203314221135817 3.955264379495603
Mo 8.208842744210337 7.665232100302002 3.781349361399645
Mo 6.345138825130415 5.364661959928762 11.012335921105485
Mo 5.483014059944218 3.6137641435331727 10.412453139519046
Mo 6.138975417925676 3.380907016514263 8.06865556439471
Mo 6.463105047125263 10.309091152833142 10.042927066517294
Mo 7.598838123835786 2.7004469449759854 3.266369874691019
Mo 2.821056252227161 7.27595877927158 7.913283130055672
Mo 7.73929881714346 6.966638250103477 6.12104231659696
Mo 3.8699984368339595 9.41267087586749 9.259192267181431
Mo 8.377309593739795 4.2777718621328 6.658842143068735
Mo 8.22916801986732 3.989421394348295 9.152324481551785
Mo 10.892856999235327 8.320895192751474 4.145187099054242
Mo 7.901415693607295 8.748275594181774 8.455381784220334
Mo 6.153451414739509 8.881371570124786 4.901321042104485
Mo 7.2448112246812135 6.0341928611722 8.645504392797235
Mo 5.648760519881904 5.326935427509875 6.242608366898925
Mo 3.9901987347732035 7.102403014389401 5.311420266444473
Mo 5.543253100254381 7.065374876494055 2.8788646011579875
