36
Energy = -327.53222127 eV
Mo 7.018988427950628 7.984771615288404 4.088814299769991
Mo 3.2861974915664107 6.165498773130381 2.9361680642474006
Mo 2.9931470110285585 5.776491089532681 8.407404932792646
Mo 7.270399717482372 9.501213597208716 6.167348305306126
Mo 6.414981155441332 4.015890561103191 8.5734336304276
Mo 4.926750657266066 7.923406760362598 5.895715204059873
Mo 7.727588587046541 10.199337485609961 8.637512565293905
Mo 5.560838668026794 5.534111889754218 4.0223316411629995
Mo 4.9851339956195675 5.006900454752105 6.329654236670326
Mo 9.459550691421333 8.488046339016798 10.414984966519667
Mo 9.450373097447184 7.138806318027597 3.9357372902131194
Mo 3.137776516435269 6.326976827254979 5.57359621426648
Mo 10.399609055119717 4.855699197806288 9.02183218307015
Mo 6.876487007183032 8.12677056482959 9.721718306056722
Mo 5.709502198985775 11.573907441674132 7.384400391343213
Mo 2.7194193785668244 7.712321950271405 7.931882209984425
Mo 4.204249685797719 7.844441740391465 3.243760181186351
Mo 6.632372126734246 3.4559414933387567 3.210638288569921
Mo 5.052807978035669 9.356995085098584 8.02871944196162
Mo 9.152413834656583 8.312017346368927 7.666452585615513
Mo 7.264790896391488 6.723278930566786 6.105179459357581
Mo 6.403970387719886 3.0553954209500245 5.22455638366677
Mo 11.35072720448485 3.8417660803077975 6.493584686547079
Mo 11.183407193683527 6.759074242112352 8.483969800685916
Mo 10.134487682781339 6.170938977029914 6.2993195890793166
Mo 6.463863702621823 5.125025410695925 10.14532557396064
Mo 8.640302480657882 4.139302916849514 6.7192280226467265
Mo 8.343803163172883 4.831348614717953 4.44360311912016
Mo 5.326107781626838 6.59219289244228 8.345824545418385
Mo 5.173251516405927 9.836559082615079 10.670136982620972
Mo 10.770220187803217 3.8715802031345348 4.69928016767808
Mo 4.177371012425835 8.21561798250007 10.430919026138689
Mo 8.338609745323447 9.788291111256958 11.200346885353461
Mo 9.600715538049696 8.842155543886273 5.212090686494515
Mo 5.271492787202354 10.699386796594633 5.542546730212897
Mo 8.391497994370305 6.021745820052207 8.60518995903383
