33
Energy = -300.66571566 eV
Mo 11.123608139905663 5.841762416630609 6.74141566630499
Mo 7.341071371907733 3.6961822421139106 6.015677593731755
Mo 9.060234193972747 4.929683246342356 7.653195939124608
Mo 8.796058432279395 5.851491120315379 4.988474927429468
Mo 6.796970968368602 5.7696569804498985 4.045791533660854
Mo 11.10902259351093 7.785466259032314 4.914396108769841
Mo 10.57253278852744 9.678490543662909 5.9795835663721215
Mo 12.712475787888543 8.192102105819671 7.166424836625078
Mo 5.1299392450888215 4.274520489155827 5.31087355609268
Mo 10.856493925930355 6.6863694023480535 8.7128976397442
Mo 6.715874246330923 3.9682216810397235 8.693311704252036
Mo 5.5663662208957 2.619282443153938 7.4272941749697745
Mo 6.653322345331363 6.1095955179682395 6.964338527278655
Mo 8.933429279140304 8.155003054991624 4.228962774559382
Mo 6.596913414097862 8.02998807020058 5.421453127961113
Mo 9.08607109617534 7.815051658609188 7.019984106493344
Mo 11.552496363198667 9.257767613457528 8.32015581476222
Mo 5.481378841969514 6.289946118443448 9.47566500606746
Mo 4.8159944009016336 9.736843139596996 6.331038624568838
Mo 4.169197310686292 7.617064885995735 7.328996857277907
Mo 7.8375690371018205 10.261079434926032 6.200659896110729
Mo 4.375988043046706 4.837422187000768 7.513310260288067
Mo 8.056395938410246 6.455331543713418 9.481786843614294
Mo 4.3017045181825155 6.723466474522224 5.307562466391729
Mo 8.8732767374247 10.537464871530931 8.026598568531991
Mo 8.957406560298597 8.495610388464955 9.730012134474663
Mo 6.576041661284444 8.761106534107826 8.29266368260958
Mo 4.438304627436658 8.379541248751547 10.13696433778519
Mo 6.2039608457559225 11.342779604364164 8.21043524690141
Mo 4.179828435214337 10.424181412459177 8.44260779813236
Mo 6.435276093098571 8.363322865372595 10.963266757962147
Mo 7.256780824029767 10.890923525363231 10.511837837541517
Mo 5.350365596107158 10.988709413164399 10.920184386482681
