34
Energy = -310.53962945 eV
Mo 5.675383112569507 6.852372112112118 8.646129512798044
Mo 7.636668255836299 7.330339572417218 3.653402347867002
Mo 6.080199762192873 9.183973533613424 5.364176064967115
Mo 4.822219671290714 4.838622604191332 6.855257327570984
Mo 5.071925573344204 6.316989403952694 11.243847887843199
Mo 9.16813629527456 6.42439603755176 4.400301231466905
Mo 7.085169487091263 4.744478294721325 8.148026377562292
Mo 9.388641332323694 4.696286771893887 9.796452009855944
Mo 6.615475070341205 9.205211112963147 7.833237198224057
Mo 10.950977210789972 5.592441034597708 8.638882131684316
Mo 9.09558723104043 9.94726342263718 8.212792882851218
Mo 10.295667453320775 7.608416544605653 6.7449239114526724
Mo 9.181385763126578 5.1352102294144135 6.9266416814951155
Mo 9.570347436411733 6.877166426435765 10.955102788045018
Mo 8.997145613882168 11.675503813399109 10.28809043646883
Mo 11.43971981248294 9.73382754176959 6.811992533058664
Mo 8.542920167642494 7.197967513724282 8.75016921828492
Mo 6.874947655300584 4.479684968113086 5.414787673262775
Mo 9.341292922498836 9.482410220951564 10.947506792075934
Mo 7.329841090923525 6.947458440772608 6.3610516211537975
Mo 6.903759606133126 10.797267200169628 9.831024715168022
Mo 6.864295459579237 5.644891564449725 10.947483893633978
Mo 8.722889111063964 9.132602415018702 5.616066074053909
Mo 11.60032983272228 10.875354934116663 9.485798690260008
Mo 8.112677321506794 12.658602345733193 7.879193022511493
Mo 3.4405411509479342 5.510359064215141 8.951451338140377
Mo 4.675115953474687 7.66805663993556 6.414580431775304
Mo 11.017217088296308 12.240136941313004 8.311536339668889
Mo 9.929651766570197 11.256815853865056 6.0330624617679325
Mo 7.088290759393978 8.331070172777162 10.49654151662994
Mo 10.981304576481975 8.250956118542152 9.3170865013827
Mo 4.770799096283251 4.098172851775746 9.474468072280503
Mo 7.196257757598586 11.602540158796657 6.646013963371337
Mo 5.438341798471283 6.038347732312523 4.6705143308993895
