32
Energy = -290.76187941 eV
Mo 9.29614477638988 10.49885900656215 10.114213303346215
Mo 7.870187146222157 8.21723783740848 9.89540532300362
Mo 5.8852031753408625 10.05797827272829 10.336252063982485
Mo 10.39745376116847 8.81010355663465 10.275808567589326
Mo 5.826303348169313 7.228883733532746 11.268270922694496
Mo 9.37927213752708 6.482982464460588 8.755861607679035
Mo 7.4480398442483455 10.03494358056191 7.977210881149405
Mo 7.424171918400763 5.286911052354044 10.23826659019823
Mo 5.981195151361118 7.368095121534107 8.45995924037511
Mo 11.150568803622376 7.988601799874281 7.915317693210064
Mo 9.790234210315065 3.7076587696797083 8.751862760696984
Mo 4.74506458870602 10.297719695255172 8.79730057687084
Mo 11.088075495831824 4.499317448579239 7.735951517245636
Mo 3.9169856764941424 8.055096813546417 10.164402417336733
Mo 10.056329526594102 10.280803175960564 7.804392563592665
Mo 4.655288670073117 5.39802804322049 9.975692662080228
Mo 2.604079554595075 6.185224307842486 9.28027634067412
Mo 3.4596896274062683 7.899395210168167 7.549716533781332
Mo 5.6389177458196516 8.967211180823968 6.475411972790991
Mo 8.48969965252815 8.080927321562255 6.793430651811969
Mo 8.319383964155364 10.371333877021579 5.5072609738221265
Mo 10.545559666540576 6.784796537099486 5.840134560405553
Mo 10.576867819413126 9.468040851628766 5.605571365742332
Mo 8.745055342859926 5.243418803873475 6.541473197757871
Mo 6.947460541065296 4.532018976739278 8.444889795966478
Mo 4.333999912580833 5.532488569571345 7.426791421080258
Mo 4.296100302256747 6.967451468684245 5.395757524709435
Mo 10.779359901392896 8.204358278105232 3.404955581803435
Mo 6.441885606957268 6.280931012162721 6.020392599594921
Mo 7.048235181588277 8.336173203662849 4.350803537864254
Mo 9.195393048427823 9.356407198582913 3.1280768992791588
Mo 8.532581428429275 6.773945964123335 4.166827669693832
