34
Energy = -311.30122613 eV
Mo 9.357753996182778 7.6583101067521335 6.91510418448788
Mo 10.005617060239292 4.797843938123782 6.729035557760283
Mo 9.257432298046837 5.480039224754923 8.460625105450275
Mo 9.318577977137979 6.595135345652996 4.67806825473485
Mo 7.6576251229924 8.278912143419802 5.4312290808933605
Mo 8.216349065997068 3.667599206209989 4.875952277954534
Mo 7.788666574774655 3.305864314110833 7.3967648536519395
Mo 6.991439222947663 7.558467828730826 8.31816726968989
Mo 7.187146710798907 7.861793200534154 2.6848423713150744
Mo 7.4032900689234475 5.768849782373142 6.405140291182977
Mo 6.657827717948344 1.447928955928281 5.899826234448325
Mo 5.299405638900557 7.079363539562298 4.584460214378892
Mo 5.367142793380096 8.759797487174554 6.810950802206726
Mo 6.436496141893122 5.312107648350136 8.96191335443219
Mo 7.361086438880852 5.565881778709987 3.5195449457064156
Mo 5.680841073449184 9.931595673631813 4.15058315124696
Mo 6.578232536965725 2.536701704540097 2.9167875723315184
Mo 5.582539751376573 6.931228836203322 1.6482744469820316
Mo 5.481061280470459 3.2735203983985284 7.762896655222882
Mo 4.574621638397316 7.5904794043184145 9.325903185567565
Mo 4.836530367171227 1.9766074185983635 3.239639498644405
Mo 4.543262466103684 9.25058530101922 2.805955160379221
Mo 4.740050841191456 6.061075625219781 7.136693864151112
Mo 3.221872375261802 8.353881091718426 7.810699403678369
Mo 5.630958253038276 3.986104599071304 5.195570372294538
Mo 4.846442626618327 4.773279640613109 2.870241825068622
Mo 3.599540368712154 4.810784159354805 9.421312511123366
Mo 4.634202247273452 1.5916810778299 5.978027710340836
Mo 3.3034157190626248 8.690082008485135 5.165345278780401
Mo 3.262913550508329 6.532405762403514 3.2392318489290415
Mo 2.988624961305508 3.8900419164657856 6.475510325756151
Mo 2.281569908609119 5.837375694727875 8.605302670578961
Mo 2.8172704736111522 3.8684203234079892 4.524975719248344
Mo 2.6391439078094887 6.4717116019601315 5.62207952276946
