39
Energy = -359.20232388 eV
Mo 10.370971235894348 7.3549165708254565 8.248695497195467
Mo 11.13563561701719 5.959055370769272 5.694942419972191
Mo 9.421190968670036 5.092409886901016 7.83619246175313
Mo 10.827060822860652 7.6846928257728395 4.981819556860089
Mo 7.845617546923059 3.137449919830125 7.276551978529446
Mo 8.515023296896333 7.546444360431926 9.054921203495498
Mo 9.010155001627101 4.250253885650981 5.2123248606388985
Mo 9.314560022150134 9.39812177401095 6.77197814994221
Mo 5.794521741626134 3.1526040138220974 9.334109626063922
Mo 8.351094247706985 6.867242438952474 6.336477396023302
Mo 8.96384337411603 6.153198791818217 3.818183058830872
Mo 6.758248247405105 2.2384972132783933 4.615199678863519
Mo 5.763775937085993 2.1910757354216406 6.597774238358967
Mo 4.0292002916900636 2.5166925274633076 9.039409447207701
Mo 6.62429821435664 4.774266030934293 5.701440812306141
Mo 5.55066495238725 7.770045481990868 9.030943476321173
Mo 6.970404965603811 5.470245422761835 8.417340732296486
Mo 4.0991988153533345 5.40351707865607 9.395069266739522
Mo 6.881656463141558 9.262826149745989 7.377054943372916
Mo 4.470033930602426 4.670715053585081 7.120051183390773
Mo 6.861647843416245 4.657646355214585 3.023039979224328
Mo 5.532984390726635 7.167915513024963 6.551831571453208
Mo 4.475945930837909 3.3942822367890826 4.528631609952624
Mo 1.9861831412858997 4.239459870986313 8.234497734809024
Mo 6.733658151064238 7.433153076286123 4.099679569366041
Mo 2.4911778899197645 2.9954342878977043 6.585040546451826
Mo 3.1970878424224014 6.999643982824449 7.78299972705143
Mo 8.387696367249838 9.29451887591639 4.865275422379986
Mo 4.214849778245441 9.341007698044345 7.926622767413854
Mo 5.63511106822588 9.44206554389003 5.309545924496082
Mo 4.438043574813044 6.023154645440629 4.202822439509477
Mo 6.106046452018784 6.3876916434993865 1.846290733320588
Mo 4.476387232045756 4.330155942240785 2.2014689540365673
Mo 2.2518494964837243 5.366990718411964 5.687393652617433
Mo 3.332687476082114 8.15640306427428 5.469440329911133
Mo 2.1848052486010454 4.298898623905755 3.6273627845999954
Mo 4.357429249141416 8.400293036485646 3.2394215333727496
Mo 3.0609107614390685 6.620091000148633 1.8583462411081635
Mo 1.8378962982321827 6.93709597085365 3.395259073506738
