33
Energy = -299.68876082 eV
Mo 9.386533580023846 4.191498906856962 4.256570516481437
Mo 10.130441033917105 7.021019258711025 4.245571376264412
Mo 11.475208265566463 6.00983171602102 6.058382761301455
Mo 7.7085212967434975 6.2037176626289945 5.142722751679579
Mo 7.804345421050303 3.416733703774217 4.826572324251047
Mo 9.21568942352362 4.780385090505172 6.9103207258220785
Mo 9.906856073149577 9.260639947536417 4.637383200201231
Mo 7.668944817404259 8.456608014622889 4.2493273444963
Mo 11.843018468268157 8.07011301722234 6.2408403041784934
Mo 9.250669643721034 7.687572118244633 6.768656285841833
Mo 11.104572471094837 6.494381806147566 8.644143817479256
Mo 5.1508651135834524 4.854673108077727 5.846756037865143
Mo 5.1255534288525455 6.479083251585522 4.76959805477321
Mo 7.058756743674599 3.782307987833582 7.655627947324372
Mo 9.78906931608644 10.49008326314833 6.911776449791969
Mo 7.903625007531459 10.813945068975581 6.073959163720448
Mo 10.872687188295009 8.592835711891023 8.827842477501555
Mo 6.372379869788175 8.681041328112446 6.403723513948403
Mo 3.870866712760432 9.064979098416094 6.012019682980356
Mo 8.747993751086433 5.343772622626498 9.24991171255049
Mo 6.883660926670094 6.4636236557963604 7.769307099270145
Mo 6.9751710666911215 3.7093968909036654 10.05913461139536
Mo 8.033705373817769 9.492112554721759 8.445368837048292
Mo 5.044505499388216 4.854066435011589 8.856344894432599
Mo 8.802096862613517 7.797826028719359 9.86805644969294
Mo 4.282013978522048 6.951896798669777 7.4054704412287204
Mo 6.432348665088399 6.1464440037047785 10.388703608321725
Mo 5.431855884319064 10.496701248616475 7.834613997592395
Mo 3.1596760363852536 10.60522765796173 7.389881703785382
Mo 5.797383613404007 8.413475537202917 9.280064526183748
Mo 3.8689249644102843 6.975600834651372 9.948856845543087
Mo 2.267991507950567 8.343864592570116 8.435995747494824
Mo 3.3855739782844214 9.496947933305451 9.827736849646765
