36
Energy = -328.343935 eV
Mo 7.368227394741241 9.529417673884483 3.325117056701872
Mo 9.118903450046963 6.348945011999621 7.543999968798837
Mo 9.569661176534659 5.675432974425697 5.105347797020896
Mo 8.130900482419877 10.662045747497038 5.219021349132629
Mo 10.061713283605657 7.983363648271877 9.189152093874
Mo 6.6047466682561735 5.557850461905853 10.377271147717805
Mo 7.782704472002214 7.725552407480427 5.542316583228659
Mo 5.686132969905631 9.232548804675329 4.957448973527321
Mo 9.07518351474532 9.23217127042007 7.39721059457626
Mo 4.8644472207509795 6.306418773310194 5.601245345364934
Mo 3.616344070294772 8.004868673565667 4.058861576430048
Mo 10.071406672739146 3.7717510341865257 7.213328793517897
Mo 9.649408170170236 5.417265308880884 10.376596105048447
Mo 8.895693866681103 3.876595812372158 10.934473459880943
Mo 4.825386352949893 8.617860763148386 2.453260051811324
Mo 9.581976489521903 3.19093053898481 5.273839675097218
Mo 3.6696759468912576 6.409708227700865 8.320970682642308
Mo 3.1853327480633413 4.417718936057634 6.352308941172763
Mo 6.163961773034676 6.825773621225149 3.453514569574395
Mo 4.645811712630654 10.441372894360471 9.164983160944226
Mo 6.460342291581782 10.44464305688345 9.790790427342953
Mo 6.376542263339135 6.741057998653826 7.736081939317507
Mo 4.705897800546169 3.5223671651135473 5.604727718326695
Mo 8.168494166838848 5.130254398890553 2.9055376596630578
Mo 8.718238669112324 7.063496476388458 2.881908875209443
Mo 7.451663790039299 2.8009566095619607 6.614695390067196
Mo 5.329572602598349 4.367946138058391 8.122576722402414
Mo 7.778551260671606 7.916733775985455 9.603053847267956
Mo 5.0345304694303525 7.847688321390424 9.76433477716974
Mo 7.820451285402088 4.179212048023476 8.415811897375507
Mo 3.938326727263502 8.616910835128923 6.976408398071735
Mo 2.3368947626989236 7.376550485821681 6.351901582089147
Mo 6.616167229748119 9.367098676575417 7.473489989738451
Mo 9.70705501663768 9.194929324889001 4.836123779435117
Mo 4.456862688846005 5.395542403573068 10.508609071818132
Mo 7.276387379098348 4.970658646738029 5.546700274861923
