39
Energy = -358.38919864 eV
Mo 7.761409596743742 5.673088108654204 2.542281563258324
Mo 4.842591363552364 4.319187896907994 2.2684698764658435
Mo 9.733598739175193 6.458919039179494 3.7034022359949152
Mo 7.264078565632335 3.007228997817501 3.0596749707111353
Mo 5.601932518590006 6.63583373073234 2.737018891321965
Mo 7.8311084022441335 8.485031288446889 2.5510148471266247
Mo 8.864227085068622 4.16189896463196 4.5274156003154875
Mo 9.358800858227339 9.042929278434453 3.732542418744514
Mo 5.466049311816707 9.115219283898773 4.087049174662866
Mo 3.365232409446165 5.031066933017198 3.7945222476771625
Mo 3.0811537141082312 7.646886659536882 2.9406743896508236
Mo 4.624477291557359 2.6672089174442144 4.531406102266444
Mo 6.06613909215895 4.888880719171605 4.6396652015764746
Mo 2.8603848053900194 8.78657462045575 5.605248767930045
Mo 6.91103383612365 2.249010522605756 5.162679907018893
Mo 7.586925065962942 7.209003593451264 5.031534732042181
Mo 4.395839663619237 6.922602269932851 5.292177584058344
Mo 2.236671423127144 3.199250176925164 6.00417169960228
Mo 2.1184433398223663 5.861242069052501 6.403494383841468
Mo 1.551704635442057 7.1989461379712685 4.13606749747642
Mo 9.691516807969599 8.083656257777605 6.424200651935333
Mo 4.598018172957598 1.610812580290297 6.741997911675465
Mo 4.501197272068094 4.266747691205188 6.922434113314389
Mo 7.325363273507205 9.890266933693736 5.080434215552069
Mo 5.161896073044839 9.243265133290095 6.667101217084851
Mo 6.163371192278081 6.578282188271202 7.36037633567024
Mo 7.6210744509037145 4.513123358564739 6.784600091109166
Mo 9.971809424934893 5.904733850018043 6.178348114763927
Mo 2.5887470796267453 2.3772397881953267 7.94982687116733
Mo 3.4292307365141808 7.541890682455411 7.889645073869622
Mo 2.387634761593494 4.897347380539148 8.371853378640145
Mo 8.573688307051116 6.695734820491367 8.629362062795673
Mo 6.558541083833965 2.456368990630323 7.917202348216991
Mo 6.946806062657903 4.859163770906398 9.427177389278114
Mo 7.427967846982709 8.879854894038047 7.394043310767804
Mo 5.197260639888892 8.504984516724688 9.12146979708529
Mo 9.444304298163862 4.7516664366624575 8.549084782837982
Mo 4.760317559238833 5.947807906410614 9.339473699426584
Mo 4.922044960357376 3.2296353329480896 9.293448264447647
