39
Energy = -358.67190725 eV
Mo 8.481388876757944 5.855940100392681 8.9032035728825
Mo 8.959753413489405 6.801640278573629 6.8084602251690205
Mo 6.17263562133924 6.027123482716046 9.869878190953036
Mo 7.498896788145414 8.381352234297006 9.143867645800604
Mo 10.335932252126774 4.662474245048654 7.009601248806631
Mo 5.9867874782481305 8.61715878263288 10.426863426134
Mo 6.628774915668313 3.7659638413673306 8.540758453108458
Mo 3.4847576481371174 6.693164568834812 10.417143679094854
Mo 9.152022368640534 3.394356652332089 8.5104578332003
Mo 7.249264582446661 7.727263701610552 4.868441154348768
Mo 9.12696740098231 5.878888746054556 4.24255351307548
Mo 4.282594164610835 4.872549757913237 8.407181380708982
Mo 6.394620333451501 6.096287023390416 7.043157107890089
Mo 6.739551716067806 9.165377333441057 6.577207574502276
Mo 9.940496099338668 3.719411125014656 4.426278948337464
Mo 2.630746521800876 8.21567784751383 9.721406266873144
Mo 4.896493001153458 7.909563355986557 8.227319350738016
Mo 9.37824673475762 1.7788116808316452 6.394575265597879
Mo 4.181382306172339 10.224776039294406 8.105047344551036
Mo 5.4249039104557975 3.40898432460755 6.322012088586743
Mo 7.9682786172923565 4.249262702558848 6.128270650381135
Mo 7.481829368039409 1.573693087254687 6.849046057561661
Mo 2.8513726007277227 6.4991035697950155 7.5409374449437685
Mo 4.770450950422065 10.598927980015633 5.363641921006029
Mo 4.672349840979255 7.740593638178018 5.63645651687435
Mo 2.7248403072173537 9.201590858264439 6.930664768803067
Mo 5.67023317069672 9.774773508686454 3.894575216348382
Mo 7.467601694002929 2.571344172882029 4.2757172570028406
Mo 3.9444348325163436 5.248999779334954 5.440715942101324
Mo 7.192243324199951 7.1273564035746295 2.162568705257701
Mo 8.294754480644848 4.387484914247983 2.5346526693470364
Mo 6.359182774880708 5.14959695149547 4.139369820217182
Mo 4.7172342400064196 2.7781119471526923 3.9276174603560197
Mo 2.1975647777119134 7.08186276224817 4.457615977451084
Mo 2.752998882142305 8.91117338138679 4.044158249390415
Mo 4.706741549283654 7.230121790736078 3.149238654667092
Mo 5.967090796420419 2.9066083552573523 2.2390651914803215
Mo 6.218362965741625 5.597079403513715 1.366753389311993
Mo 3.9048228785380665 5.005492270761864 2.8742456267507768
