32
Energy = -291.37204907 eV
Mo 5.601140501101703 9.68414567787343 5.0185366914218
Mo 4.180083746343699 10.035254149356566 6.648879739303295
Mo 3.778359173543623 8.203037182894873 4.5663239209730095
Mo 5.483744897367645 7.798550818061084 2.4516838709593527
Mo 3.7613553069214696 7.06342908111253 2.0709443392539306
Mo 7.266814696887737 9.605687365049338 7.329732865212619
Mo 7.364511718701861 7.2838235667407805 4.680280596393539
Mo 5.488990977097597 4.509876036381854 1.9146336654223255
Mo 5.440387005505171 7.518215498616066 6.6467863345935125
Mo 2.800318214674447 7.987630833418701 6.756136376025182
Mo 7.216678595243161 5.271762880156974 2.379757340567517
Mo 8.013721562473185 9.024882948741423 8.935718788517358
Mo 2.381019657687333 5.970686834343903 4.588368715498747
Mo 2.8544648402709214 4.6093865127674984 2.8571685447405777
Mo 8.341046016339996 7.041832172638617 7.081726297765847
Mo 5.08372971887361 8.481754645338818 8.804238421576233
Mo 5.1332510534227085 5.773846955451163 4.283288523573432
Mo 3.807735450551052 3.5036581617629126 4.569246172477613
Mo 3.856121282218638 5.292043693492876 6.57739951192973
Mo 3.8064758611774594 6.476732106520499 8.786177541166854
Mo 6.649716051915335 6.495042329154466 8.973009797790017
Mo 8.666983696255418 5.479766317089093 4.686980834641818
Mo 5.284613479481884 1.2962373867337422 4.008266864569003
Mo 9.767211491760525 5.049102131213664 6.92658707450112
Mo 6.679293485135034 3.4170723110731736 4.1841568592115275
Mo 6.684643051744868 4.97955108430062 6.560011875442578
Mo 5.247101876661515 2.7687806713330723 6.5288270535908595
Mo 5.36728884351805 4.439282778467375 8.887722207840609
Mo 8.372158159388176 4.626221184780719 8.746609156927983
Mo 6.62707921781745 0.9363435196159717 5.427381901129139
Mo 8.282814698523003 3.0550885573932813 6.164932783865291
Mo 6.944753422424232 2.6408297510618954 8.2325478615284
