31
Energy = -281.44096028 eV
Mo 4.240117916015954 3.273310340578335 8.072625587694342
Mo 6.900680370788468 2.868480027475658 7.562403239814085
Mo 9.352491351332795 3.013888227173718 7.733798578120457
Mo 8.055250496731551 4.967621790077807 8.917383998488177
Mo 5.217448449284815 4.029551470375931 9.51433241114405
Mo 3.829323961243903 3.8973325864395525 5.273612112025981
Mo 6.767739867253045 6.079636446031386 10.990836943773276
Mo 5.730568174257959 3.574029500778973 4.888152286125056
Mo 8.604700085939964 4.17024076686192 6.076971002806
Mo 3.7627581098105436 5.980045939988274 7.643021678542697
Mo 9.861761336361067 5.756454186810108 7.647349549566592
Mo 5.090058986008518 5.223860726484377 2.612651640452987
Mo 5.991298108021884 6.918798402454251 9.485298587918434
Mo 5.989708931776967 5.1531270546400965 6.988891988853668
Mo 8.880431476823283 7.689659596756801 9.462640700000263
Mo 5.034767978691071 8.116806324218404 7.256735190778858
Mo 7.494980512292258 5.975049880587751 4.384680855248838
Mo 7.088386612209686 9.516568325518882 8.112309681679841
Mo 9.756578592917066 7.009048668192485 5.215420642995082
Mo 9.945352324997769 8.467314883488894 8.066973744271564
Mo 7.692832221398012 7.103786843502793 6.959189814760995
Mo 4.770227823416226 6.40454766710401 4.968466425144542
Mo 2.441434138394529 5.939666981991963 3.5132624077709984
Mo 2.592248253936697 7.382465843438669 5.783746710472599
Mo 6.120600305295598 6.910735951668708 2.4152247845635033
Mo 3.905153550421873 9.13107100429432 5.342850082645022
Mo 6.241704031874704 10.531946418421244 6.465697814725329
Mo 8.850396572559617 8.032342209287968 3.6101159745527944
Mo 8.466541825272797 9.393160193818906 5.812824754766826
Mo 6.430957060495772 8.383841861784608 4.7925993751985185
Mo 3.390523799662963 7.569088087276942 2.970093598267129
