39
Energy = -358.43152789 eV
Mo 3.432023806911594 10.846813380155359 7.107676172709293
Mo 8.394802943923324 10.276244097456528 6.402931992602171
Mo 7.198351669150696 9.48366922190048 3.941372681838331
Mo 5.8669062396592 9.817423674019611 6.937487801838174
Mo 4.650229972029189 9.080662633421488 4.9900540631865935
Mo 9.518418284676772 8.29980276289718 5.493941879207147
Mo 3.4272229537708836 9.332384890104223 8.302494304881556
Mo 8.376813652780507 8.911986962289477 8.1226259208481
Mo 8.104641190005802 7.808583288471814 3.1824656784591014
Mo 2.282030984413654 8.758771141328642 5.903036698402408
Mo 7.1306698072034465 7.702097152120029 5.948181883330961
Mo 6.014517935453529 7.835307821549307 8.757643045258524
Mo 5.779928107342678 6.9882424636225124 3.6771624831298477
Mo 4.505650954788256 7.093790183543504 6.610069549117121
Mo 11.106646191184044 5.748411223712599 5.289450231729452
Mo 9.504032567984616 6.697870126972237 7.501630250586277
Mo 0.9757444729729803 6.298106117199334 5.13110096784999
Mo 8.003278905364464 6.522242399712689 9.60443654675561
Mo 10.63087773006002 6.408454504091926 3.6573883126144033
Mo 10.421582153283554 5.120114122543967 9.679758416599057
Mo 3.121884911127776 6.771960481492007 4.366547565551425
Mo 6.978535906481242 5.466806122314976 7.516946311000709
Mo 3.893779864767565 6.654582880902641 9.315397683520224
Mo 11.514004338068629 5.029349673509369 8.121690693819769
Mo 2.033282213052867 6.662087282957111 7.1036564516399485
Mo 8.40454079527713 5.473221752379252 5.033820137758772
Mo 5.596417790223694 5.164585960875838 9.871540184991796
Mo 7.186366298792992 4.8012270932829715 2.985079239690007
Mo 5.56173304495979 5.017214485557361 5.281070529053236
Mo 7.939827030335324 3.837151851510077 9.422825686982353
Mo 4.183063848604515 4.66201326715824 3.0570321528921895
Mo 9.186418756391205 3.8746013088863296 7.472420880783683
Mo 4.357306073659345 4.547631807766178 7.9322412525028625
Mo 2.883169828425794 4.399218790422327 5.490684805679517
Mo 6.31887025593648 2.8676570367612153 7.643117914667285
Mo 7.587643533621943 3.216183934860995 5.508458527325594
Mo 5.850856427313805 2.970287406758832 3.431772285474526
Mo 4.733430371434034 2.5427862342841445 5.867512564298531
Mo 3.0351863708686175 2.709908569179324 3.987359641531621
