34
Energy = -310.2712318 eV
Mo 6.794218479214318 10.45267041682599 4.725039192339284
Mo 8.96017173362302 10.013715501012756 4.798829771586114
Mo 7.536248164117371 11.65569278628564 6.631395951648965
Mo 13.438295500161658 9.008350033047211 7.171845792802694
Mo 7.174343664075806 7.95537602568403 5.182510224671443
Mo 11.643517231719752 9.437629153736614 5.7232528002531415
Mo 9.994840455710548 10.61793530539436 6.995501109068164
Mo 4.506658336868918 7.5562390440094855 4.9583454801690845
Mo 12.094796483910052 10.141252163380411 8.411398255593863
Mo 5.19566423442493 9.63306970514207 6.801695257064341
Mo 9.650444758787172 7.791468411030787 6.349763783805315
Mo 5.549014620995901 6.047177297114233 4.368358913970275
Mo 7.631522777134767 9.26236639272492 7.436118910548877
Mo 7.8390572430641745 5.6849593442940565 6.1797290458875125
Mo 3.807741798939955 4.945394211439422 6.507429037295806
Mo 8.548962674276225 11.307841501479512 9.331275451477472
Mo 11.626138202240645 7.406036697859946 7.733658681968998
Mo 5.821993443149664 6.736468303583909 7.458261476623281
Mo 5.440042719141733 4.025079364603964 6.357320438779765
Mo 3.091470946674521 7.810791001008842 7.424752146515447
Mo 9.942049440917438 8.80712544163 9.115788626702056
Mo 6.552575203358488 11.399732980655479 9.0060518151899
Mo 8.363041860832679 6.776106460174027 8.728873111504887
Mo 7.53533786894819 9.006917632680135 10.193966623181362
Mo 10.251244579374982 5.139340220456134 7.516755975278016
Mo 5.085817010729026 8.964363597483407 8.9394435591216
Mo 10.963017603732332 6.5019079763907905 9.905585314211999
Mo 3.321460858575373 6.711308842115569 8.942465423183
Mo 7.496518531455873 4.301354680063734 8.167597488784821
Mo 5.265274190783329 4.851046882187763 9.028570945984683
Mo 6.025454316210915 6.962944697511575 10.275035625038484
Mo 8.685346304268075 6.897930523555714 11.376967565739427
Mo 9.761562373260192 4.5286387006038495 9.620569891331758
Mo 7.4232324867785815 5.195312511525762 10.919406778739603
