30
Energy = -272.85626228 eV
Mo 5.0325037425158605 5.821981985386596 2.977776094301575
Mo 5.065530118927739 7.880346417842788 3.3595915218283463
Mo 7.38985677688586 6.406355823211033 3.833573684707082
Mo 7.59308251443108 9.00949918902649 2.7850715529659236
Mo 9.61609852788497 5.101522025566878 4.853539508888534
Mo 8.22135793535891 3.8037114252224886 4.400458083797959
Mo 6.7269584068510735 10.46127326391639 3.7320738412158443
Mo 5.6500672352459285 4.3811739093612045 5.0078234015828444
Mo 4.696222255987095 6.608953394251503 5.657009227525116
Mo 3.1147803047246265 3.9249647075680456 5.7813999407462155
Mo 9.312609576050546 7.971459439782015 5.114426044523635
Mo 6.569578644788409 8.437242569598853 5.400436933979311
Mo 7.394054690441492 5.766389171284648 6.323174895490583
Mo 8.923530427884362 9.930270905795114 5.237772367932616
Mo 4.185720322370471 2.600501629345757 6.603877194240184
Mo 7.10946878962485 3.060824145231325 7.077398329792394
Mo 8.205337486196997 8.6239182166713 7.485009888761946
Mo 9.003538345817715 3.497626989763507 7.14758259594122
Mo 6.596918783007147 10.644046189602564 7.086457503292863
Mo 6.251326030915846 7.1759582560516 8.1944377459911
Mo 2.7253214466742253 6.40582115674639 7.419474518087823
Mo 4.640090522116212 4.984209488710912 7.820372532305423
Mo 9.627173387304301 6.348855636310293 7.828831413026355
Mo 4.410818542898911 8.68325419614951 7.226075816419378
Mo 7.446591686020743 5.072285380441 8.92269685566725
Mo 5.587855510711813 3.2107000068166607 9.709781716686258
Mo 8.793322228383346 7.060285266931268 9.607201601795486
Mo 6.05047524546539 9.888219158067919 8.838383468732204
Mo 3.779276763916006 7.313147799585065 9.118366599320469
Mo 5.2670181643942335 4.911686669557789 10.43640953425037
