42
Energy = -387.99265097 eV
Mo 6.250877647101672 8.95807864369328 2.971904926184322
Mo 7.072983482346331 6.230632915596142 1.4320264655444708
Mo 8.890427221137138 8.252673839468887 3.2789900996315797
Mo 2.755383876812592 7.469374677530866 3.1044805042353825
Mo 5.235583667472674 6.5847405365452 1.6138294965941964
Mo 2.8762701728625593 4.330124025723459 2.476055549579788
Mo 6.886232579327933 9.206779263471168 5.405688928187088
Mo 4.337745273311901 8.600318966118609 4.518629497132945
Mo 9.402764243520243 6.2806491445869135 3.133029862919865
Mo 9.250899286757688 9.164442228138313 5.7709354434534585
Mo 7.902991138307509 4.109352773168767 3.9976888136728297
Mo 1.8915435522087247 7.150697455788398 5.368195471837875
Mo 11.221826284410328 7.343965014005934 5.12345089459602
Mo 6.6055280647080465 6.761456776888989 4.046011802363171
Mo 1.7812338076516032 4.537438568944568 3.9901088075059423
Mo 8.516397836179138 6.743251713907287 5.687216124504666
Mo 5.917168102195589 4.185584418443639 3.0715101040834187
Mo 3.3626795976404593 8.303932498912674 6.953877361414139
Mo 4.203274351125978 5.922466752247532 4.273799156300383
Mo 4.156500194501761 3.257013219571041 4.8224898147898205
Mo 10.98893058537467 5.560914102765416 5.675320447423968
Mo 5.590221248803578 7.163386346425548 6.737095825533583
Mo 3.4290815676402726 5.40096626965808 6.5978387682336335
Mo 10.152270390189614 7.275714355936537 8.052399223140851
Mo 6.174608478132962 4.663029966790374 5.9992514951818245
Mo 8.909125677417778 3.951064057734359 6.465142956665132
Mo 6.424135011363215 2.2466651315341486 5.639507233386299
Mo 7.643120008217965 8.636886393872844 7.837770121669684
Mo 5.417720274868177 9.239707038171906 8.46817407190674
Mo 0.646939059515178 5.112297251603174 6.8599764815831445
Mo 1.33352839205484 6.277335363517707 8.205933408078648
Mo 7.709157143711634 5.887033875340358 7.963430216800717
Mo 2.4586653721361347 2.9146245190926563 6.621201753934171
Mo 4.913549396242881 2.5183947820956583 7.392745370843793
Mo 9.843730048934663 4.656858108437426 8.518109375798309
Mo 3.911562577185254 6.8516300340766145 9.043638159844646
Mo 9.090934797600072 7.3131580317254805 9.759170466211353
Mo 2.90024451293093 3.9375064137329967 8.677732988464708
Mo 7.474053479549582 3.0812173217909353 8.35532976777165
Mo 6.055503444643817 7.356861658224098 9.767390134231015
Mo 5.26469100416565 4.778111668337284 8.686844263006133
Mo 7.758042913593783 4.399505542830059 10.049544584951184
