40
Energy = -367.59375439 eV
Mo 6.183456951092958 11.507695870699568 5.577482074080326
Mo 3.717262138132548 10.052798760260703 5.0160024831860275
Mo 4.99955852797668 10.987614964744823 7.1666606065365155
Mo 5.312744963653963 9.917810798451695 3.402410735828001
Mo 1.5016266448247344 8.459409783563752 5.878636289875326
Mo 3.781129704152567 7.664091443104657 4.347957943155696
Mo 7.710164317777892 9.66554718532867 4.231516944082654
Mo 3.6731767457261375 8.52534439177931 7.2213847144996395
Mo 7.750483321440214 10.184637820602047 7.146754430738576
Mo 6.016792104994464 8.592767406918329 5.837676168557303
Mo 6.11275198202371 8.880698157056198 8.615706170333862
Mo 2.1678660060655184 6.545669303840997 5.864425908743815
Mo 6.329491650143112 7.45568422027284 3.307477833527855
Mo 4.693503246352929 6.14656108250458 6.668702836045093
Mo 7.112065792225467 6.661087214143748 7.813698089225131
Mo 8.827283943966918 7.4645084404646616 3.2642036122308484
Mo 8.653818819768414 8.800598112557648 9.001904770670343
Mo 4.799865454492129 5.540754630143925 4.024601264650856
Mo 4.470476319388546 6.930827037256435 9.042787921611067
Mo 8.832134436902999 8.288811043900711 6.084912408796003
Mo 7.266398555337516 5.972860675592953 5.184448304793489
Mo 7.389382953138644 5.128461141596183 2.200056348497826
Mo 9.555987667406548 6.6907595773557755 8.113231738956992
Mo 6.940161203006982 7.32120983919296 10.792214288815181
Mo 3.8155072282517444 3.4255842502428733 5.384938005112645
Mo 9.373214548821931 5.231721255285364 2.0869687930240017
Mo 9.69756531472661 6.003897435821029 5.000614406176153
Mo 8.947075850586206 7.370992086378 11.08672109328311
Mo 6.203653952608446 3.97090150977209 6.871260436422541
Mo 3.69249144346172 4.146398710990089 8.276294725392809
Mo 6.4018508218063035 3.518072542182386 4.2509195820240135
Mo 8.921318739636881 4.441206308823074 7.032906397486709
Mo 8.917280675684745 3.844508544010094 4.17328290957282
Mo 8.602082894133755 5.237826318546981 9.831106237912001
Mo 6.054361711826009 4.972277210703626 9.509391431120102
Mo 4.850034821058365 1.8326335257842652 5.815355032624925
Mo 7.934190205016532 2.2383368150560647 6.0359511681065
Mo 7.765526559593399 3.042111533052666 8.79537043355756
Mo 4.7426303564320476 2.6436908005656305 8.88291113098731
Mo 6.810103508498787 1.2777026984606423 7.724427614120564
