47
Energy = -437.20587736 eV
Mo 9.892302648878376 8.249389347890022 6.447947830596386
Mo 7.416501404214608 7.5463064610304755 2.293673965472103
Mo 9.7457559393799 6.667746243775441 3.9285175664386953
Mo 9.203745956962246 7.824580236649786 9.13469116709953
Mo 4.6884705169389544 6.9813420662104955 1.03800122279712
Mo 5.713532543115571 5.841830983295636 8.340705506473975
Mo 5.18121595806034 9.788555494219123 7.509120350310444
Mo 4.795771107187741 7.1436159556806 3.650563446701107
Mo 4.856987502333651 3.2279621031774988 8.183015985258994
Mo 10.567948504476389 5.430903464378937 7.2230271430245665
Mo 5.544915285244905 9.222291840847179 2.501507014012784
Mo 1.582594057752393 7.132590922180639 4.8620552453062915
Mo 8.160082828044024 9.23541244855026 6.879789039244715
Mo 1.5906736083996038 6.973145109227649 7.479552268611878
Mo 9.294181202484394 4.465787309553698 5.191199652630725
Mo 9.184473859412236 3.4147993736696596 7.540616250144221
Mo 5.279244449961085 2.1417627508035397 5.535683961496043
Mo 3.8179133046145606 6.039441585688946 6.250746863863094
Mo 3.4377655378918797 8.731352157729043 5.572142439278163
Mo 3.2095964906882353 2.2843516420051975 3.6537490043391516
Mo 3.292665135246445 4.983486335798242 8.682965654104853
Mo 6.650716679137176 4.173193132334186 6.447290912760989
Mo 7.520639110071945 3.512413983044278 3.7742702635915326
Mo 5.181038416890345 4.628569437616806 10.813298050192486
Mo 2.5322454680110784 6.65478642626933 2.1265994888607946
Mo 2.2854153565154878 5.0966300274709955 4.074030365151986
Mo 5.58829832168463 9.70011205092466 4.780912208051325
Mo 1.234465179698636 5.091913545066749 6.867606128395093
Mo 8.271379799418051 6.283073678764208 7.184155929532966
Mo 7.340241502752379 6.35499036652969 10.671803977133743
Mo 6.065771295910528 5.277501827884084 1.8215641210006597
Mo 6.838903697820718 8.110200996873656 9.084162244826189
Mo 7.009038460530882 1.549607098528957 7.612421402739623
Mo 7.874829740302593 8.740320137041875 4.306085598783633
Mo 9.423437213209883 5.4949307054302325 9.616318473798064
Mo 9.065764045673562 5.341493115613746 2.47483046423707
Mo 3.22123021338349 3.421935733959028 6.2060228246810265
Mo 4.599473622653881 6.518890989180762 10.712750718869533
Mo 4.952011550049299 4.469244856773212 4.317728261507113
Mo 6.064635795262356 7.56436400008092 6.2171505616722795
Mo 7.945960538181222 1.7760106020235098 5.821295085892025
Mo 4.1408791597402415 8.231932208680425 8.314930583968822
Mo 7.234149623517308 6.037243704124988 4.406210917380741
Mo 7.454763093607038 4.036589910180382 9.136996843528559
Mo 3.907035269892363 4.395787529554385 1.9438128543446795
Mo 5.123172397399751 2.144326156126114 2.9090336964583505
Mo 2.8112669142106594 8.860384254373477 3.252546752248931
