46
Energy = -426.1142342 eV
Mo 10.440987846837052 7.797774829481208 5.726052437714571
Mo 9.235669819861453 9.069776199952411 3.4413517604405848
Mo 9.526816406778096 5.4758806511580165 5.916243339841982
Mo 9.030603382604564 6.035022614665739 3.4283716077052864
Mo 9.855674541242236 3.5592742270697486 3.7075747805635197
Mo 8.632062075740205 3.077235794975925 5.894543642611328
Mo 9.187609254823355 9.8021249657302 6.272721230789369
Mo 10.464431222527995 6.412739107408583 8.43293576086362
Mo 10.880034812411328 8.426133966286116 8.249691847204955
Mo 7.065930486497679 8.28712578438927 2.364010208871547
Mo 7.865166861308546 4.894517964859547 7.9195058173777735
Mo 7.889349215005327 7.599543754515296 5.004498429512323
Mo 6.736311883023641 5.109695998211478 5.310127030110525
Mo 6.673891313600658 6.017848858290317 2.7391433567874666
Mo 7.925157000759317 3.4446139517951613 3.1674232023651485
Mo 7.774078187828221 10.149649073762243 8.37791195887612
Mo 9.000581118651352 8.508202585501886 10.00432621269733
Mo 6.413808887005475 9.365488062503484 6.501574875362899
Mo 7.559904105896669 10.297971841865834 4.212013743808947
Mo 7.125731272677381 2.628151106457297 7.92197300307504
Mo 8.301206747835252 7.620012134862341 7.611174253052476
Mo 7.780255132821328 6.603190465945364 10.044373758243735
Mo 5.392299233365333 7.763566015166438 4.507757059233208
Mo 4.718594808047643 10.5658826959316 4.730896693563751
Mo 5.849400325438406 6.701739144759687 7.50805631191132
Mo 5.8621021591036415 4.6524545786237805 9.72956083263553
Mo 6.2842233939883485 2.542612096877817 5.315638052411996
Mo 4.952609085343223 1.0779283205967443 7.45520389997725
Mo 4.968815188528418 9.971167240526604 2.880867806911969
Mo 6.183018199114292 8.497322410153341 9.288255861179007
Mo 3.9673809396901065 6.232858034522003 2.792252254830913
Mo 4.882527314793723 6.689074132142728 10.30066585223731
Mo 4.923177022034472 3.987309335553754 7.2737307726639875
Mo 4.755259753998905 1.8005751202718094 9.207572136981693
Mo 3.914836261733996 5.722329842559859 5.41850804183332
Mo 3.6627600505702707 8.387053902852674 6.650794810333819
Mo 3.0359608681690244 8.41952378779382 4.239243717509864
Mo 4.977244544205622 4.1381475829226035 3.46389590741913
Mo 3.475116120938708 4.168455972828103 9.528427641608898
Mo 3.844795057540818 2.7680430046994076 5.305669502893403
Mo 3.423359731257271 6.207411027163744 8.263821607662052
Mo 1.5510745162042128 6.0485077942338785 3.7614158638910284
Mo 2.1593562126980075 4.2243563690518515 3.754083967672774
Mo 2.3783853261457937 2.422305264379681 7.6161287727581515
Mo 2.0012887466718636 4.19258813051613 6.947189338791255
Mo 1.8486592298882476 7.210548726158134 6.362636502403586
