41
Energy = -377.90479982 eV
Mo 2.9932762603815655 3.5816481164805065 9.373414477000164
Mo 3.445746911235359 6.451540779178339 0.41342427733493925
Mo 6.798443128267209 4.577428707182186 1.1321225209392183
Mo 1.812187663864662 5.754892492766019 1.2661243143017415
Mo 5.101158418631244 2.122120884351861 1.0901565717762218
Mo 2.194403856221753 2.7268017365832717 0.9962881498489015
Mo 4.422166492591733 4.4084068353698465 1.6932106938338654
Mo 6.586788090816705 2.976945542449019 3.064183595702007
Mo 6.34757273292845 5.951811252117097 3.0454851400876333
Mo 3.4699292528481016 6.795614158434814 3.2792158785685057
Mo 8.526319815360136 4.934732471387247 3.510929541231461
Mo 4.605842913583256 4.321928588759085 4.425346158735118
Mo 5.570549043651781 8.167779882462238 1.8812799872361414
Mo 9.46065763792143 4.722956674349616 3.199234079897779
Mo 3.996696699746432 1.9151343638180012 3.209693049932451
Mo 6.19703820772784 0.6334006113083194 3.8593291930091365
Mo 0.5423565364622164 6.241280773838982 3.9736843346104553
Mo 0.9488322867526668 2.2134780965325995 4.462572057220674
Mo 5.113242650997119 6.674464332542859 5.680257439090291
Mo 8.312143270778286 7.747420575314039 3.342204258536372
Mo 2.2238261761160345 4.077665993077748 3.466847114597039
Mo 5.480704978474441 8.715446530646496 3.7323456857312975
Mo 5.7006225232741645 2.1140878558941734 5.724220707960467
Mo 7.801027059583759 7.332181252316703 5.150282350013581
Mo 8.499402529537608 2.1675559375948685 5.0681366604246945
Mo 7.114956567361392 4.605157378292079 5.40011407573524
Mo 0.4979671399837065 3.9967943996943878 5.777486849014754
Mo 3.865449987046867 0.4876082816443175 5.403758935043149
Mo 2.9750526402342703 7.918240265723035 5.311623710411312
Mo 6.815705728591957 6.04600846564693 7.847651952070529
Mo 2.891985946892747 2.562911366992588 5.858323045221493
Mo 2.56094332915927 5.5707983188751 5.789232512671126
Mo 1.3542332178416505 6.0672757583678 7.922533248043906
Mo 4.8051624368462935 4.251417911317264 7.149888717163551
Mo 5.696544168499234 8.094400161985376 7.497980886927473
Mo 7.5370857038434425 3.255662193962755 7.782426619461995
Mo 7.929725253703662 0.702958605316734 6.118186118644518
Mo 2.20936190699765 4.255322299699827 8.221073059124238
Mo 6.094257932904273 1.9495811949241852 8.28786093899243
Mo 3.99868743478064 6.432220630200991 8.264843519083591
Mo 5.5483323697882545 4.699007019390252 9.373414477000164
