43
Energy = -397.11002057 eV
Mo 8.525508506667032 10.526835336641637 4.786967965680022
Mo 9.94610241228162 8.310879373927106 6.050662649793448
Mo 10.38260159617699 6.277642312809421 4.855639106274663
Mo 10.097328867004912 6.317567510684426 7.364921872992149
Mo 9.374262580414351 8.43161926877005 8.956997486469845
Mo 7.851787392734909 9.850766376524025 7.283501005017521
Mo 6.900021838256422 11.416728240188732 5.04076764043255
Mo 9.91306633360633 3.2065989542270543 6.388548120278144
Mo 8.307965001601058 7.557328561794791 4.259074579510818
Mo 8.15992853294786 5.162238320851368 5.491881788612776
Mo 8.574787345387872 3.303376255488659 3.9520453554245467
Mo 6.286620030391643 8.853308523906069 5.171679038112165
Mo 5.668752336304732 7.564527540034812 3.007732969068781
Mo 7.582632646693994 7.274197714082132 6.993134160273694
Mo 8.17764241003174 6.821916579390748 9.603839402016709
Mo 8.547976256924022 4.464381235369316 8.222554141717671
Mo 7.168843967423248 5.603403422277245 2.964465368060247
Mo 5.288483372847062 10.298694184488735 7.230470353159476
Mo 6.421857071280754 8.575189793201138 9.025005077883598
Mo 4.026975218177197 10.52382043654555 5.05910742963411
Mo 8.838105669214428 1.7395514520303408 7.289986905194964
Mo 6.057768190605194 5.028305814408511 7.834178927846371
Mo 2.916561587529595 9.537766529995288 6.6863004184412675
Mo 6.873471342320476 2.979969001797748 6.3913186470585215
Mo 6.824775782175098 4.423634898246106 10.445665308137508
Mo 7.672634433252074 3.317759620673593 1.270556366178528
Mo 3.8360790908904305 7.968745922775239 4.576925976123973
Mo 4.7374475211002895 7.651056858345375 7.174806681341622
Mo 5.543361581962315 5.867267892238804 5.210536802506496
Mo 6.926708015999382 2.758329726186845 9.30730331822791
Mo 5.03613105064402 6.573158368107216 9.695877149535983
Mo 6.27756901682747 3.3195656893212266 3.8668588048272774
Mo 4.143008953647147 5.244714891906286 2.9640538967366186
Mo 3.7411036470742656 9.0816267373841 9.412284288451513
Mo 4.127573386847314 3.8856983278003026 9.534222268622795
Mo 5.907465530077897 3.673409756549942 1.0983754874113734
Mo 4.487637952719753 2.646098908788702 7.9399585229834795
Mo 1.7798993108765557 6.993390132925849 6.212402475079535
Mo 2.061893789811014 5.625324356281514 5.013996759180379
Mo 3.462102267563609 5.269007960636251 7.5000267651089025
Mo 2.7122032366699114 7.394569869848078 9.242263123836262
Mo 4.224958588919149 3.8490750802915126 5.541831307170589
Mo 3.4502452316725 3.441913757669425 3.0363021809077195
