49
Energy = -455.43567909 eV
Mo 5.126338120461878 2.6743372736518185 10.82636950057965
Mo 6.812043231278496 2.169867570947911 10.20393750219472
Mo 3.5452643051492676 2.877079203774549 6.713955398805312
Mo 6.383741862080739 1.9834395740309068 6.878121789977196
Mo 2.8603157078982493 4.534208341971965 7.933511042814338
Mo 6.903513488546326 4.839194185352434 10.748709494216678
Mo 4.469649555842591 5.650399123088876 10.482830542435115
Mo 9.400309902118515 3.8499074236552464 10.217472295966333
Mo 5.308200200470811 4.007245548480246 8.487313060995485
Mo 10.447518485696161 2.819913053752922 7.66565877860052
Mo 5.295150948931167 3.402479861719727 4.679122494528658
Mo 7.933573991323516 2.163387611561994 5.82605664018231
Mo 8.130659843064583 3.893514947284019 8.260800124038619
Mo 4.424758647631228 5.666718603130854 6.2985206825165285
Mo 3.7297343590058514 7.307529861999961 8.430902141995972
Mo 2.472262335519987 4.3133400814149825 4.9624536304532265
Mo 8.810475264462841 6.03883150315407 9.899683923025702
Mo 6.391821235720027 6.341281237345488 8.429576503940298
Mo 6.092113815547118 4.4791357444480875 1.8121369545632273
Mo 10.883783211649396 4.732371508056874 7.8609966094663095
Mo 1.9099340959172488 6.867311766471671 6.252229132720164
Mo 3.5812361833778366 4.298985652924908 3.0635578255043576
Mo 6.990933418496469 4.783391735758766 6.083234507518895
Mo 7.6965612053948576 4.039454776337796 3.4943838912998975
Mo 9.701334951599186 4.379886886858646 5.385203556522533
Mo 5.735515411760901 7.394757193710994 10.568045270430964
Mo 3.2770664990936997 6.8058868832634 3.8038839388192605
Mo 5.659992122764737 5.919697986212709 3.958507142109202
Mo 1.5717279066308476 8.624552441091312 5.329320831878739
Mo 4.8740851701883425 7.057572790169598 1.521990093438457
Mo 8.878998184065269 6.435904015914188 7.1433564677781085
Mo 2.636875492186623 9.309008736210108 7.712402671682799
Mo 6.638917956353293 7.66797871819988 6.005781139385448
Mo 8.252884389244636 8.838145960823828 7.891591724841025
Mo 5.553854154321673 8.890501046284726 8.29403652506104
Mo 10.00367358678914 5.373148128313165 2.5477978526902674
Mo 8.2917501987452 6.666291851798179 4.378576549233982
Mo 7.307514343955072 6.435413412303294 1.7969365968703996
Mo 4.238576060123998 8.547959128506541 5.786744361327125
Mo 10.712625371887853 6.371165675521153 5.21690058224728
Mo 3.4558548284405726 9.319205699628169 3.1850629010829428
Mo 5.714566806298184 8.43335686499104 3.158855985969639
Mo 2.9329849055272446 11.160603375828346 5.625362967705518
Mo 9.421992594525502 8.864766508219738 5.953765975917278
Mo 4.458920626269085 11.029610309011472 7.19605624210844
Mo 8.123678190842513 9.276724888731732 4.035026132373472
Mo 6.7842320276004076 10.110675954978097 5.925419128629988
Mo 10.14197188624981 7.269290230408911 2.4998072082687735
Mo 4.819960249889621 10.848781701285876 4.321364296705059
