42
Energy = -389.24295129 eV
Mo 10.161209368252148 6.618389271478942 4.641919560625543
Mo 7.776770520970178 4.963884907754209 2.2349775125715796
Mo 9.863895760047114 4.9148035706363915 7.152382025202144
Mo 9.347435643351927 9.024165159662083 5.209649271932696
Mo 8.844454455554894 4.766572500221913 4.814277544606358
Mo 7.998813513162069 7.409314294623761 3.6944522793962173
Mo 10.46214753187736 7.539371753151075 7.586142178915961
Mo 8.410454082356443 2.754966607105211 6.751404708816059
Mo 7.657767171372179 4.888186689579029 8.469833016237931
Mo 6.853209679602164 3.0430026423209307 4.13863075276715
Mo 6.14224279133523 5.849703922525268 4.509173197894036
Mo 6.3649781642086705 6.117161632311692 1.6277976517078883
Mo 9.081685847347376 6.916110511296184 9.23886865940862
Mo 6.542543703684661 8.553894777778867 5.870018631853316
Mo 7.6805339865549485 11.121155264293128 5.438637099856378
Mo 7.188885211182421 10.195383361803072 3.7202388450096855
Mo 8.162085711466485 6.644222366487586 6.545250593677558
Mo 5.357939756258909 8.221322158651065 3.1955900850741346
Mo 6.332391883572486 1.0011558886723266 6.437963657857362
Mo 7.215430625231957 2.3602772718752347 8.707353453359966
Mo 8.684274815635394 9.205749800294083 7.444534112374089
Mo 5.064044090222081 4.0599182628878205 2.9221773130313093
Mo 4.981594767021224 10.285254721122431 5.321730168312064
Mo 5.784258850326003 10.441447521217016 7.75632762008298
Mo 3.837074704952035 6.570000334916073 2.9792032076863872
Mo 6.162442875722897 3.84905874194029 6.49705773837824
Mo 4.451211124132315 2.489456862119013 4.858391697986085
Mo 4.656592170590496 1.5966593866356968 7.322702054998089
Mo 3.7182095663563204 5.044776370018864 5.261629497553419
Mo 6.766573007677971 7.8622949291622914 8.777215907685324
Mo 6.038149554292032 5.95884394530503 10.265154306371468
Mo 3.8925959625707716 7.801098251099268 5.355219478036482
Mo 5.354526503809631 6.289306166595387 7.329962994044354
Mo 4.367349551294914 8.958698126648384 7.757687234724561
Mo 2.165704498125219 3.7273882462941335 3.6942749124960685
Mo 2.092856658676106 2.7119124144865103 5.519338124330773
Mo 1.4499391697109345 6.4502378885535006 4.575531732801314
Mo 5.203496645412759 3.775577539749368 9.082172563798755
Mo 4.008704996203398 6.456915426202034 9.347371812859176
Mo 2.5373026912858365 6.909819964841775 7.203012063046903
Mo 0.9634557614024493 5.233072672293742 6.032778875828153
Mo 3.3823281460414876 4.2783386515833755 7.592341218630313
