40
Energy = -366.18370089 eV
Mo 6.799039433147682 11.465584756778025 8.23521941683259
Mo 8.784032474245569 6.833354971694589 11.160636228870775
Mo 7.744628082801971 9.209120682332108 8.260173145683373
Mo 5.214870346191446 10.133824292814547 10.005303853946986
Mo 9.642739637373836 7.711227350432422 9.196006479103287
Mo 7.3812026245282745 8.475425027257021 10.597552473924173
Mo 3.514396446689964 9.689497635905377 9.020736088668137
Mo 7.4759901058631435 10.283475089985457 5.621478164963701
Mo 9.34251317940561 4.758041632379934 9.1182938376929
Mo 5.231846623365994 10.26764784571388 7.230085642242157
Mo 10.798496333184245 6.54616951855485 7.34282058774908
Mo 9.023877628650226 8.143217973123702 5.953382314829004
Mo 6.754208028364225 5.762304421523641 10.10225615734327
Mo 6.300252362664891 7.93123751180717 6.197443395407056
Mo 4.636294534652666 5.069671789424057 9.205827779784883
Mo 3.5378864424303322 7.910055462785985 6.815893222332581
Mo 7.882136903399552 6.282333458436559 7.560022333963901
Mo 5.48089272980958 7.620292278369027 8.828404353267043
Mo 2.8616621581609465 6.922593659305248 9.187851629798885
Mo 8.769024049270424 9.927205495755379 3.8447363609705283
Mo 4.9488929685263905 5.621360159541753 6.625887037917429
Mo 9.318030579276627 7.463845640596084 3.52503374217599
Mo 10.73800722418888 3.9640759360569304 7.800455401965136
Mo 4.722275855717548 9.240232866929784 4.849213088467502
Mo 4.2236368720278845 2.9580510776031494 7.245545156598252
Mo 8.642218478314263 3.657093130918952 6.462313949747111
Mo 6.76867922773772 4.047467967819417 8.047100850745203
Mo 2.3658918598341767 6.398248100112628 5.183624660579227
Mo 7.286062315458021 5.5146664481281675 4.928869442563063
Mo 9.959401524642866 5.616423290755326 5.508301470170795
Mo 6.9839198178979185 8.164924110612416 3.7024643173064113
Mo 2.4693035340469525 5.4232430405392975 7.662976843317052
Mo 4.596573115449506 6.786574034566485 4.178598224060954
Mo 8.992938776289357 4.815719934623988 3.1981645438197823
Mo 3.15733016522522 4.311829961631625 5.038036381201536
Mo 5.679371913549128 2.8804745329577384 5.952856571956061
Mo 6.984694021519801 6.028160813060558 2.240290671834118
Mo 7.606926813964271 2.935966176489959 3.766260139378543
Mo 5.364153347827033 4.443042307934951 3.6979682643910996
Mo 6.9668866362641735 3.7513775001421044 1.7765342762258072
