40
Energy = -367.58864538 eV
Mo 2.920163366218755 1.949515374676719 9.214943000869956
Mo 4.549427001702777 4.521813666818866 9.185824438227169
Mo 7.98867124373095 4.001291907069976 1.273767214133871
Mo 5.541359202399283 2.770043842717246 0.7245107366736746
Mo 5.863555588678969 7.490890245745783 1.558744045068002
Mo 3.0094647613714423 4.093295481786456 1.4654195462435522
Mo 0.6341087792552432 3.4369267509753936 1.7410459470946569
Mo 3.3181577613033366 6.7997559378819465 1.957417742201258
Mo 2.876243217202763 1.3159118561984087 1.450767602510606
Mo 5.657764322964856 5.182634310765378 1.9123469192306262
Mo 0.9931765112804836 5.501888189616919 2.9906910852007043
Mo 3.3925510941808494 8.883688302007322 3.0675823358043783
Mo 7.530662719615617 3.1231589879489117 2.955544869806765
Mo 5.829728032606202 0.2738170506576651 3.443015715553173
Mo 4.717475923526474 2.6343499716577043 3.1741997864927365
Mo 7.556527641718973 6.174434061844674 3.3314199048611886
Mo 7.549613151415313 8.312134397592818 5.049497492888318
Mo 1.8032956705876817 2.864883221312456 3.7273527656913377
Mo 5.2683582083027085 7.251872557965297 3.970537025769041
Mo 3.671576237522811 5.046495185411328 3.8798493902163824
Mo 1.811535298777025 5.014637601383957 5.680088459569092
Mo 9.320749488077915 4.21060981744494 4.5713972506739955
Mo 6.2993482562106315 4.703213153064003 4.811731746519667
Mo 3.360481001253945 1.0149618216548457 4.7303661407946995
Mo 6.517528705640488 1.8372467995904338 5.209021366582027
Mo 5.052403898236076 8.88368830200732 5.216585084293239
Mo 8.2967237834704 3.388689506449643 6.073565905593575
Mo 2.377561295214635 7.517122414884879 4.570674862585079
Mo 4.047767780496129 3.1262704079896437 5.919267761111728
Mo 6.985786218996242 7.028736588973962 6.259377644607196
Mo 0.3346049142598519 3.778453886835388 7.562146456047936
Mo 4.2675535356099505 6.230584286709415 6.4079510324261895
Mo 7.583966825715073 2.436304929253715 7.757157679787574
Mo 4.106013484320157 8.554620944592902 5.84537475872848
Mo 1.2412592662223443 2.470557233756171 6.547951557661895
Mo 5.829534152019442 4.133893019345313 7.431417531740384
Mo 5.220770215871658 1.2665467428910155 7.067742365217425
Mo 2.321414660876539 6.398221528590414 7.758345001104366
Mo 3.0990549236471887 4.094616652277226 8.2715471553823
Mo 4.547455078687646 5.575616280840761 9.021388332451497
