43
Energy = -397.13404941 eV
Mo 6.475216188216787 9.311362912022519 3.2963063238493575
Mo 7.690780902585243 7.069511791713972 3.1476476621686267
Mo 9.338570585802549 8.835884031834615 3.287751732629605
Mo 4.752680782210495 7.171455351552046 2.5283519349833563
Mo 10.069615626134755 6.038928060747222 3.7567109773245413
Mo 11.180563067294893 7.85955205758923 4.336612668810832
Mo 3.8186836044243626 8.821343003388003 2.509981977615349
Mo 4.920461467687685 9.738572712252845 5.055297548687147
Mo 5.976555781263379 4.912002686893688 3.634634238118837
Mo 8.064912510272068 5.242661612779185 5.1310958832432325
Mo 7.569775272447157 9.885068113879505 5.510916442919317
Mo 8.926125839848078 7.809888610916952 5.707656347197029
Mo 5.944172177559912 7.268318077556621 5.1729706513067075
Mo 10.215823064031106 10.328412657462794 5.725479212799812
Mo 3.9791033458156857 5.2384998795299005 4.825873873702972
Mo 10.45539616546263 5.4119874044508345 6.402328598608666
Mo 7.4610384189579 2.7935435209969603 4.879564576818458
Mo 9.962099470904446 3.4621569247932946 6.0042508607621485
Mo 3.2238596209416452 7.799279121312696 4.870861584753635
Mo 11.165262649299454 9.090809330282617 6.846432505046824
Mo 3.2120728809327614 9.31698412755755 7.157277291181508
Mo 9.461158491080104 7.504403240259603 8.303335204461712
Mo 8.342669751693474 9.514740995301253 7.873274087224394
Mo 4.782706689965323 2.6457210965282654 5.1493227980811955
Mo 7.149128521962173 6.891953384931425 7.501024422273209
Mo 5.648284719794911 9.031045164966804 7.54506360990409
Mo 8.372945506637693 4.661112182667251 7.993119019102541
Mo 6.045130646088399 0.9269273131618944 5.77582102023882
Mo 1.0570405559604539 7.910608756456889 6.157006552534244
Mo 4.25658506970045 6.7823817731475735 7.217654814951315
Mo 6.041014479316859 4.48738047169004 6.542408032016103
Mo 1.7245279855102296 6.071606348606416 6.600884067126388
Mo 7.731935115885698 2.3924392547047373 7.288209972376446
Mo 7.080138961866168 7.925635247881038 10.034537533684802
Mo 8.049566619123276 6.223890705751203 10.29150846619362
Mo 3.6168064989228235 4.127647466625181 7.491542684224207
Mo 4.269081657564556 7.947246604868496 9.627928314034907
Mo 5.208231126261945 2.1645260921508336 7.758879384825684
Mo 2.2228686154143222 7.766005933564825 8.685651785728739
Mo 5.603882441640967 5.61110933857071 9.213304768095114
Mo 6.713031835543629 3.2068042730438133 9.945740575445136
Mo 3.171992682168012 5.30173840142412 9.470102872715545
Mo 4.868582687610992 3.1270727437458237 10.258747800291372
