40
Energy = -367.70206699 eV
Mo 11.798085667013675 6.922479518420097 5.048133893936531
Mo 10.565072310718133 7.09353780366902 7.67706849431493
Mo 10.247039819376262 5.081521395475763 6.421643857027645
Mo 10.376095742638132 8.922579847015623 5.971041345447651
Mo 9.805283641037798 9.686004564698608 8.225640216642192
Mo 10.20491745937773 6.789395303686904 4.0553400592547355
Mo 8.531831163052619 4.872549150773472 7.994753116200383
Mo 8.680219756565004 2.4207145954158134 6.844575208847292
Mo 8.241826595993253 7.04697912861252 6.269994817297221
Mo 8.356251255294872 7.483834534001375 8.86365392849759
Mo 7.914534096194147 4.733964990349284 5.111143412331171
Mo 6.307508222984864 3.08991272641574 8.376249962849597
Mo 8.081872574225729 8.80023438193855 4.569223870320728
Mo 7.1447643692761185 9.539357658567653 9.811016958394008
Mo 7.534268432292531 6.602719537796066 3.294737627903265
Mo 7.93325445217063 9.763640466913923 7.121831023909074
Mo 7.282444283661163 1.1201795678895208 7.091852728030339
Mo 6.349347387240135 5.671998620320084 9.489552757043175
Mo 6.025802277973907 5.2171576268160695 6.923239364531453
Mo 6.3237835907891276 2.8557443390468227 5.3892710929286025
Mo 4.834997570687054 4.093743702036583 10.395605458751596
Mo 4.118472201299236 1.8589142577953282 6.752549568405455
Mo 5.723741381267618 6.966618141974653 4.894310798367601
Mo 5.838140830745032 7.98434561212161 7.783630212355831
Mo 6.225873192382561 7.952951608436072 10.710706350259684
Mo 5.852117709600034 9.108311208668733 2.680983113896998
Mo 5.714742318141465 4.43487439140986 3.3308970698104905
Mo 5.654655339748136 9.46359090749402 5.515749001836643
Mo 5.220573917650712 6.268752064638542 2.105968670800731
Mo 5.2690839722888745 10.73385578986823 8.076848590864744
Mo 2.457264911682928 2.720589123160064 6.606751949628117
Mo 3.9239368392157306 4.21523083449085 8.36181876388249
Mo 3.4590745486589256 6.620725650070787 6.713776763396184
Mo 4.332759484503156 9.666184749688881 9.422148196923658
Mo 4.195781143443127 4.301803118147113 5.309523339119916
Mo 3.9813819582715855 6.731635408124946 9.089212620477314
Mo 3.5880635877779277 8.757799716699127 4.480763449427199
Mo 3.55825297864942 6.340071844967147 3.7755988002573235
Mo 3.417924421249417 8.87962456366146 7.009772508041933
Mo 4.18378296768828 8.779812855436012 1.9145630014581356
