48
Energy = -445.80305654 eV
Mo 6.373834119368353 8.011395788961746 0.48361282387886634
Mo 6.419146622777001 4.994505336069962 0.6654168049921064
Mo 8.306801722851203 8.065046745452943 0.7498034531876816
Mo 4.069742243360727 6.287956538528676 1.7414477756638425
Mo 8.861519588717766 5.343388852649451 1.2778589881661984
Mo 8.154898865862585 3.82562746062043 2.5754458652353955
Mo 4.854700022199062 8.54105634524059 2.8495580686721245
Mo 2.5598412512177107 6.876457800147459 3.0397551829039697
Mo 7.324215214089496 9.250256429344518 2.9052949521793328
Mo 5.494467254554606 4.040010296096461 2.7349231143005674
Mo 6.834033052346049 6.500121872786575 2.604252458496673
Mo 3.006549650858766 4.308508763512736 3.5587893312068113
Mo 9.030285619437784 7.448170335430814 3.6049947761206993
Mo 9.726839143972512 5.255399346962947 4.066594829434552
Mo 4.798247964915264 6.1387312317726295 4.45096816351587
Mo 6.734891404498743 2.423433907437857 4.655232764806061
Mo 4.260129803011886 2.0287987376826644 4.028334714584358
Mo 5.691577731134431 10.285271263849424 4.457070051368293
Mo 7.3406957340799 5.0114947633684155 4.908728373900671
Mo 3.574253310155183 8.558614591454965 5.310927922783522
Mo 9.353377326443551 2.926401393211574 5.343866486346607
Mo 2.511783767684485 6.0107660968908965 5.803753032663457
Mo 8.605558250058886 9.837479540620276 5.379021893235605
Mo 6.540791112063167 7.952143733882035 5.2058858585084655
Mo 4.612239364598714 3.9080423493535066 5.971911140676636
Mo 5.5622051415672535 0.6287312082040203 6.191838262285681
Mo 4.7526026378946815 6.822967777637087 7.298159762559091
Mo 4.63807499594455 9.55100170103383 6.802627811932849
Mo 9.44974427903535 4.269936301393373 6.772228883311247
Mo 2.0088392557416666 3.6539461480673507 5.688767361585754
Mo 8.960997411505675 7.025410661024047 6.06883823602579
Mo 3.3322629474684122 1.3160399569562182 5.979899379583751
Mo 2.7348067603063617 7.869047672975366 8.160079444296295
Mo 6.987036817321944 2.9878879066567032 7.046543276488263
Mo 7.089516011922008 5.576493629524252 7.410750644199085
Mo 7.3957248542384635 8.258328661758389 7.681597209092844
Mo 7.222440514429511 10.554573899364193 6.623963912491973
Mo 2.0441963159439616 5.523434553182537 8.100517444723215
Mo 4.678875142900283 4.530005793964311 8.625923684174806
Mo 5.1138773190322935 1.827032447815026 8.149151609306525
Mo 5.486137099981982 8.651734361734942 9.289313659154512
Mo 2.732547126935306 3.059771603630618 8.096168833125864
Mo 6.355871889781398 6.718623152926854 9.743505482540478
Mo 6.758102499969745 3.68190067156742 9.623433570973097
Mo 3.766697238773763 6.520110541291362 10.003002395411755
Mo 2.580720739103974 4.152922224805823 10.483714776647401
Mo 4.202011148305282 2.6940596148726628 10.760724069664109
Mo 5.399174369343574 4.5898426459898785 11.318684121301608
