47
Energy = -435.77071666 eV
Mo 1.429936861763282 8.267496712734399 4.741886794083735
Mo 3.4863277833095534 7.917586503057945 3.151930851296651
Mo 2.731394081928458 9.631833318837275 5.407525642689787
Mo 2.614078925853783 5.861890562936978 3.546087750981119
Mo 2.0000247220875362 7.910036884021993 7.72649436458984
Mo 0.862068633428335 5.647901190674116 5.983241823278405
Mo 5.319125454152382 9.141223609797546 4.9886118418711085
Mo 7.362247847235109 10.84590738290388 4.231731593608656
Mo 3.507346631146047 6.9573346037454735 5.935751123887639
Mo 4.675281711847354 5.192982322061658 2.2889547118375786
Mo 7.439075376743273 8.074954098174166 3.2010360282198986
Mo 6.591467381094926 10.559197225856973 7.139492860543391
Mo 3.690867227794355 9.093983577977038 7.86347940029352
Mo 1.2636946348821931 3.855238060650086 5.683044550019424
Mo 4.268746092665481 6.699270448825383 9.074719652009499
Mo 9.129851559104232 10.111055822442431 3.864672446905384
Mo 5.525301076157133 6.728521476658091 4.208276064703743
Mo 7.53730252454598 5.317520946036908 2.3432917268373346
Mo 8.990478170817852 10.64823226292287 6.65464429573571
Mo 8.031484646379537 8.54624957320671 5.731712626228749
Mo 6.3163312899441415 2.7464332928502855 2.052311204191952
Mo 3.1401671043188317 4.952960438633705 7.4299274097613885
Mo 4.2209551985516365 2.890262332164399 2.508718415889789
Mo 9.520232008739528 6.9319780236556205 3.7781876723544667
Mo 6.257952057803024 3.9346990443988505 4.320624268726373
Mo 5.90389299597893 7.7745915148055005 7.111669386605313
Mo 3.8404583891015505 4.083147165639538 4.95133820659346
Mo 7.405607577767519 9.254730227022034 8.60781735445089
Mo 7.769132816400518 6.017343048042108 5.267304121560729
Mo 10.88970996553496 8.29554836292553 5.702691365817868
Mo 2.9233208486567364 2.0675639875633465 7.524828229039937
Mo 5.665764087339374 5.2519011686082795 6.912866025346569
Mo 4.795825377659454 3.851746101908275 9.213142674013652
Mo 3.106967849028237 1.4555494876707382 5.727910858448595
Mo 9.808432266634322 8.544756174704258 7.70021879722116
Mo 6.3021739560980246 6.4282014569348895 9.503808917363157
Mo 8.376283188436688 6.332430741188396 7.729483194581141
Mo 10.337078265149316 6.131343298263544 6.112333271386039
Mo 5.535225261912676 1.0384572230180515 4.271515036632274
Mo 8.888219309294199 4.259693255702188 3.4349779781372884
Mo 5.5268703669618 2.7244010370371945 6.688249902915674
Mo 7.018648766567601 3.9192036150116425 8.782055586925225
Mo 5.304552311418501 1.0671429431109163 8.926962013791766
Mo 5.360680062463154 0.12734457626981507 7.312921498128891
Mo 8.252529847784986 3.6631365800356033 6.3364856544672
Mo 7.30507772255531 1.4208369057807053 4.76641953768824
Mo 7.764534340568987 1.7863215570866031 7.527470907676007
