42
Energy = -388.55329725 eV
Mo 5.783029562422939 5.3990502706455095 2.1720591254725377
Mo 6.17719188758394 3.348072187677681 2.838204404440767
Mo 3.5207591917876866 7.057913062974646 2.0657267351322575
Mo 6.146488371250135 8.298407846704954 1.2946415084844365
Mo 3.689071033341668 4.594177843221587 3.5265792175635884
Mo 7.715508735627333 7.432251663086565 2.0075939409720736
Mo 8.03583002545747 4.983821571059097 3.5808138182590534
Mo 4.4874106641955605 3.225283511171992 5.504309205773525
Mo 3.175620848105635 8.77820575762253 2.721528265100669
Mo 9.77264254090658 3.5035333959162362 4.657278227176089
Mo 10.494967334332747 5.402618578710067 4.882061819853165
Mo 5.649208767019094 7.790114445466521 3.891200892863192
Mo 7.128191192574613 2.879003705863366 5.358426080755228
Mo 5.799901581296725 5.353420297961435 4.9114419142380425
Mo 7.360559837813798 9.963665778915376 3.48889484382047
Mo 3.365256479471732 6.841853142637633 4.867227940550712
Mo 5.508829952091643 10.498584696503643 3.1657973778982162
Mo 2.21395764250107 4.498309744229548 5.404841265516208
Mo 8.261065581899649 7.45005642364536 4.916457380939423
Mo 10.5640867945568 4.1924043366782815 7.531855079970541
Mo 8.243521659773014 2.5808811439461494 7.326776695219991
Mo 2.9950019316559846 2.7631534663367203 7.751770503808872
Mo 3.843982792069582 9.511711555059872 5.262325613710659
Mo 8.291113489749788 5.2081244028967 6.37671777392567
Mo 5.832569293205383 2.2550077548318606 7.782629200558609
Mo 3.968809961290967 5.3997827443244 7.0659502636307066
Mo 1.8339859433091514 7.151294374402932 7.247342238330279
Mo 6.213410558211399 7.189697859448855 6.691949271572817
Mo 6.343217515322679 4.6071284991322035 7.889545066129952
Mo 6.184628302864786 9.640959372801243 5.77197916926302
Mo 8.509280668733412 8.99052573918954 6.766105966236218
Mo 3.8601513575414454 8.349780264258847 7.3827113527872825
Mo 1.6627066641881822 4.178813046015273 8.044521554422932
Mo 9.883079153433853 7.028871380111251 7.250694395048631
Mo 9.378891463531872 4.517901700776693 9.00355695164458
Mo 6.768922554605012 3.030603486961673 10.161794098807214
Mo 4.318261379204898 4.3402176493600395 9.445556377833851
Mo 5.212891301316258 6.826502247080797 9.271520510561489
Mo 2.6082030025659364 6.507544818883377 9.200604849372292
Mo 8.049141563641312 6.841288464812483 8.686928798318357
Mo 6.4628335070545475 8.831830799276005 8.494218307344704
Mo 6.869312525591712 4.9492848346951135 10.587297054122926
