41
Energy = -377.64610529 eV
Mo 10.119133367538856 6.533573734843561 3.9764421319613614
Mo 9.782786411593628 6.0249130965608995 6.717014532768858
Mo 10.083054760500106 3.9652631896523585 7.842467252849152
Mo 10.367827094813242 3.8247348873880185 5.31978759297647
Mo 9.814740427729063 4.845142121856573 2.91216029289328
Mo 7.732501010275479 7.276978370669621 5.672824948564435
Mo 7.900455056291148 8.79718745823731 3.7371215359377463
Mo 8.80715089023718 5.526923938941249 9.547900461673809
Mo 7.565331565522818 6.532055122788719 2.892526743534575
Mo 8.180232662324308 7.274775411420783 8.504906078757566
Mo 8.373316012549802 2.4345378307267396 6.058908765503797
Mo 8.04504394813939 4.740228864346143 4.859085200254355
Mo 8.140032118650737 2.4871086598915584 8.427525765443347
Mo 6.416683358261842 9.467044961437598 6.477042392883386
Mo 7.843834190566357 2.4208795275762127 3.2378290018858786
Mo 7.416201373717017 4.807729178427391 7.374503433995227
Mo 6.054552662900293 8.540519681076312 2.119691996472357
Mo 5.004183920220847 6.302819167793402 2.347476597688061
Mo 5.770054312004318 10.721175476641388 4.144640216180844
Mo 5.372734390915106 7.916939510159809 4.489745822468097
Mo 6.384031870759395 3.9069813770825257 9.891546868423742
Mo 4.878448958557001 4.607906051403344 7.46846750120873
Mo 6.7820797814420235 3.7481768338839014 2.4999656819007385
Mo 5.947995025373598 6.2332178185790665 9.629097541898783
Mo 4.071046987216555 10.064873149733296 3.346847506300842
Mo 5.426811940620914 5.315381339969548 4.6883153744390365
Mo 5.608405258231445 7.356168072227069 7.312807046198519
Mo 5.812068213393784 2.215169025913462 7.58504995393398
Mo 5.916339223524914 2.834160205706427 5.29508713880978
Mo 3.911147986866759 9.377906045973763 5.902952250218115
Mo 3.0210057360777873 7.360582685562618 3.469921755715167
Mo 3.4056232721212094 6.546466474338575 6.124497173263484
Mo 3.144791746785701 3.585002655474059 5.8625420954493785
Mo 4.189930416546334 3.61768241477124 9.520603617773807
Mo 2.862580578882559 5.005096435618204 3.7620890516798227
Mo 3.285516100016865 8.43041405700924 8.168674179870775
Mo 3.5090324411109663 6.34333671201133 9.079359733386207
Mo 1.3601081957101029 8.108854793600539 5.680858320712489
Mo 1.1128136320791038 5.61944056409002 5.214538752413754
Mo 2.017770592096996 4.559510129639954 7.4560753267557605
Mo 1.1337691777307777 7.180497920600135 7.610950562279735
