49
Energy = -455.30878088 eV
Mo 6.343583048383424 6.77786651523231 0.5080841040183323
Mo 2.6972592178106027 4.740308325467923 9.763134411920312
Mo 5.4520353628863765 3.26189294695286 0.5113748352931837
Mo 2.3119774871170353 3.4952180618963444 2.0607720999972936
Mo 2.950600854734924 1.616799770918639 1.0826178520464054
Mo 3.495565289420201 7.767194773783204 1.1712368970157363
Mo 6.936359982296773 4.849969421042402 2.532155393727195
Mo 1.632142209726068 6.055734223248304 0.8911702152985856
Mo 7.416986624130503 2.720924796262823 1.4583466235803073
Mo 6.339448280573005 8.613350240513961 1.1635123565059478
Mo 4.35607325589712 5.235186872033341 1.560408645865334
Mo 2.5525200363945135 3.1922912575082707 4.725174417229099
Mo 4.931619049086033 2.6861214410330585 2.7852391945052717
Mo 3.0627816814320874 1.0129649947259676 3.2779543158475923
Mo 1.3346314026101922 8.473381783640242 2.602289805700515
Mo 8.72274386236188 4.7702257749994255 4.46957996640363
Mo 5.68531909285739 9.946261472057005 3.6856357666900297
Mo 3.0860047485847497 9.197539487568958 3.392710113505326
Mo 2.490248834510266 6.121052003254248 3.5544608003533207
Mo 8.142225732105954 7.207437209954747 2.931936024147436
Mo 7.338161555463719 2.4475328607438245 4.014181817570585
Mo 6.6246439175431195 8.942172245435845 4.191769180884564
Mo 5.123640507008113 7.246471406671869 3.0285681300019918
Mo 4.614831385901653 4.814579911304749 4.539567807874301
Mo 6.653954268753863 6.319701253043571 5.023494289274906
Mo 7.317994087642982 1.0161441782611038 6.266088409334809
Mo 9.188759376572408 7.082241523656779 4.879404503402584
Mo 0.3290274889526063 4.90474088823532 4.855398090217482
Mo 4.881285243167116 1.8653349982666743 5.396566486690983
Mo 4.2093847226027 7.719565574140323 5.459703549885518
Mo 1.444724459116347 7.5042249745522245 5.105564244363172
Mo 1.1544968879941344 3.2110096575960165 7.176855825625201
Mo 4.629678502568011 9.197539487568958 5.051809414647387
Mo 2.6223675687004073 5.624711552393836 6.410509573233361
Mo 8.732897050424539 2.6630262247020133 6.61419652306024
Mo 2.2403743626449826 1.2164861952112516 6.255958762834542
Mo 3.9268956763695653 3.513090510891046 7.1434589209809065
Mo 6.5564152430954 3.810215803728903 6.036170871943328
Mo 6.412489400331102 8.35909068382397 6.4186699659955355
Mo 8.228014266348472 5.773918056757082 7.309666075893638
Mo 9.998106140654622 5.7307195012031364 6.662496011115732
Mo 6.131951198564431 2.1534963260283626 8.100012808749469
Mo 4.216934084434164 0.7539155444367353 7.592862620877503
Mo 3.4867794293029957 7.469286179581128 7.75433765504137
Mo 2.4988017859149543 2.4149540888317036 8.920711266304211
Mo 5.295274135882084 5.830209777539382 7.5470584488068315
Mo 7.656608380380856 4.534984668140397 8.591127970963033
Mo 2.8542093085326146 5.003248020166178 9.120551602747312
Mo 4.839729503740725 4.285524035032865 9.554001323556589
