43
Energy = -397.95242832 eV
Mo 7.488363489092881 2.9471146996032567 10.763412585246556
Mo 8.978039367344975 3.8795111185654925 9.971493773652428
Mo 8.790192410923494 1.2784282842530224 8.62306701454999
Mo 6.8635858084237595 5.631182433993173 10.0810101567441
Mo 5.037554882272999 4.4535702818191005 10.055036582997525
Mo 9.481799690622765 3.8317310475271342 6.897597143694157
Mo 6.953418407596824 0.9267164916818318 8.28529144679758
Mo 6.956431097146177 3.481651906330029 8.18009810413059
Mo 8.20560686044035 6.147058692930637 7.843220654052896
Mo 4.334206331236367 7.079548510280704 9.442738962308312
Mo 8.568693145816507 2.227289386643423 6.060388110094141
Mo 2.8329078393327216 5.76293250750061 8.132254626335033
Mo 7.117346481243711 4.636429531708617 5.712357132319878
Mo 4.476372193126345 3.5292065654715175 7.6251728257151425
Mo 9.202239398140856 6.57248826466661 5.490462920270794
Mo 5.550230026105592 5.803391749121185 7.659263934463129
Mo 9.076962726118527 4.617577704364825 4.167129511226548
Mo 5.758812223301407 2.5626066889644727 5.542831096262202
Mo 6.702338929457346 8.206976316473336 8.279291701895142
Mo 4.402593582911321 4.893062230520224 5.282036478144825
Mo 6.600290819709176 7.302985409422898 5.440208388222783
Mo 8.304732708769029 8.703528008484215 6.890632291566338
Mo 4.1959595329550945 9.821890226357835 8.398742378309766
Mo 2.082487885795657 7.888202853280521 8.006088020492566
Mo 4.13433768546683 7.7574871290453 6.536121467940947
Mo 7.112279657743058 3.019663901685766 3.4278292089260134
Mo 8.282772469585028 4.610243815688488 1.460315400989382
Mo 6.3076433842463 5.552676046404322 3.296236934791027
Mo 2.379831373589398 4.6562129427287235 3.4692362506173926
Mo 8.2506549309855 7.131062719369722 3.2273450907057426
Mo 3.986738093864089 7.097475858330006 3.904404761218908
Mo 4.722683428450722 3.3980408594868803 3.178088431264973
Mo 1.7411838448130887 8.214784127368603 5.093509809845719
Mo 1.7353234043050254 6.326224983325664 5.627344613964134
Mo 5.821063844814969 9.751043026047979 6.10232410683502
Mo 6.5378513197357755 4.140082329874103 0.8112941911781736
Mo 3.058685861331774 10.332279259031347 6.94998719768948
Mo 6.109749403854586 8.792202334947106 3.352690594177245
Mo 6.674271512301823 7.029714344265629 1.0652310239265694
Mo 2.0224772239370656 6.47251397751793 2.4775894466557
Mo 4.28372288865544 5.57960903606482 1.6296164679293608
Mo 4.165754531353424 9.700344233711967 4.416249015774302
Mo 4.752438713788623 8.07377551720415 1.4853283699257218
