47
Energy = -436.28271524 eV
Mo 8.592254247804323 7.430571400861556 2.226525721686295
Mo 7.587391961189601 9.25929277153205 3.5522447716462757
Mo 5.403435030366681 8.325099963698888 2.4824844512421778
Mo 9.85339671087538 6.155716834553722 4.385226418852401
Mo 4.7783971277149755 5.642465513663594 3.3068783962307498
Mo 7.7450362599501155 4.155376518426889 2.998666188413367
Mo 4.9328179343666045 10.056847608645992 3.366140722357662
Mo 3.8865209060441246 10.10526216867507 6.09022135070838
Mo 7.146965264413905 6.512080967245299 4.1694529651290075
Mo 8.518994554441075 8.193829440903565 5.80671835059924
Mo 6.725147495695076 10.611375776514285 5.908599793642583
Mo 2.2096455518464904 7.909114781524688 6.206022387092167
Mo 3.062531164234242 7.920594196220312 4.3009109180632255
Mo 7.595609355398034 2.3887024199628417 3.828404657656129
Mo 2.857451556993856 5.342825147901818 4.748899240896874
Mo 5.879260060397538 10.646891828968347 8.071693438682175
Mo 5.58861387607522 8.34726441195209 5.368858865376691
Mo 6.717041286958682 8.319404626409272 7.81070977948589
Mo 8.685031106698355 10.40664688772907 7.506744324367204
Mo 9.86249852012841 10.579400680947703 5.204896488141395
Mo 5.106854618593968 3.007250095637943 2.5464560629465
Mo 2.7663365684007544 5.450427500723482 7.80361852792357
Mo 3.452239645801359 3.0618378020102406 3.517488811102829
Mo 10.118028381237838 8.423209706386222 3.401407106138153
Mo 5.658277426575473 4.083317075526688 5.147310678485882
Mo 4.046321967902107 8.773574311862639 7.869655224756723
Mo 4.426102816977517 6.30137559194458 6.399730323314201
Mo 7.5959687442763455 9.642321303468904 10.190402889178982
Mo 7.129040275357243 5.953655020850172 6.864827432376577
Mo 11.006136943144831 9.298790489931053 6.158731323770656
Mo 3.1603450306370338 3.0027288525195153 9.098628313055745
Mo 5.189571758363896 6.439887152746098 9.091428636033696
Mo 3.709750266978602 4.6100605074549 10.183480130539497
Mo 3.5087540540788233 3.3617387026120067 6.3939969765419145
Mo 9.531943937074402 8.49379475892794 8.501461651571235
Mo 5.960665798432072 8.781470246510457 10.455667326596457
Mo 7.973598131107033 6.739490347489646 9.579408610265283
Mo 9.961145391557212 6.57086703466047 6.875848059023232
Mo 5.259189743727831 1.4096472848127066 5.2744960502641876
Mo 8.707066540653203 4.402067196647748 5.433388360459985
Mo 5.565951018912789 4.071199746249627 8.051208600955086
Mo 6.7964505931083945 4.761174346727671 10.284712138464494
Mo 5.629985494072972 2.3142919681224363 10.291615325088758
Mo 5.05373409242579 1.4674897647994292 7.358776569462888
Mo 8.39714838464712 4.465969344906192 8.287327469874779
Mo 7.306600028378776 2.620856849593686 6.632698903066457
Mo 7.268374123595941 2.0758510665584975 9.341447740101934
