44
Energy = -407.82858526 eV
Mo 11.184416323426404 6.732754587854521 5.709882346959021
Mo 10.385462387316267 4.679904680656699 3.495629655542242
Mo 9.859338411564678 6.938781273142781 3.6040384739955424
Mo 10.816025583825704 4.207407285335157 6.265859935494451
Mo 9.486738791701494 7.918059529485187 6.413060219680759
Mo 9.956182145522035 5.471095076610146 7.974467635001135
Mo 8.184374274346364 9.066202297260839 4.529743880341401
Mo 8.381611722337121 4.822006528900275 2.383164799818543
Mo 8.643720517919654 5.475256134370916 5.447578456848825
Mo 7.296674175543962 7.085191267458646 3.090899394363781
Mo 8.532207821361428 2.9534571867674204 4.32707193731251
Mo 7.649495112325107 6.681490469323258 7.900176714504489
Mo 8.670125871983783 3.1617841694231985 6.882033080241774
Mo 6.484410897611139 7.0117165365416625 5.559744101674588
Mo 5.494864919604793 9.696892576339978 4.024981640462377
Mo 7.918023486836676 4.343325560278661 9.008524435296271
Mo 6.9029468715384805 9.283037743419818 6.506319416842055
Mo 5.948887228788835 2.578162460456626 2.606813028357648
Mo 6.3651143329919835 4.683382129139924 4.043223602630157
Mo 5.75077173797067 5.16791189339411 1.401566668493045
Mo 6.2027496132624345 4.435234542943113 6.945960330577208
Mo 6.563924217597201 2.2636161454983994 5.399603516807926
Mo 4.7800642221288205 7.0530674027980265 3.2843907244089254
Mo 6.016582178359869 2.2291783859929715 8.246355165030051
Mo 6.531988831621794 8.801644846194264 9.217594781787152
Mo 6.602703836305818 6.108466193656633 10.406263542481843
Mo 4.171277608114237 8.028908582741069 5.965638347582509
Mo 4.60836741689755 10.584996617436987 5.506393474034674
Mo 3.9928496715868125 4.861392626177672 2.3967860385879645
Mo 4.427495144071417 2.6388679458806474 4.009445839410128
Mo 4.158310496587536 5.2464890032038936 5.36316963281642
Mo 4.437417950211671 2.027659446012069 6.927861391382468
Mo 2.6936566851051245 8.8044068969631 3.784744334990078
Mo 4.928585914204927 6.625388634118221 8.025600023445582
Mo 4.952761817714927 9.571749203278856 8.382257119375502
Mo 5.310868245557967 4.634785181384355 9.918855200866297
Mo 3.557019811395829 4.105434036827267 7.9283885312915165
Mo 2.1202712790541764 7.010895673711928 4.271180954196593
Mo 4.026034698706025 7.512725483433795 10.35734988173389
Mo 1.7078304319972166 9.085188814526465 6.525273858104016
Mo 2.1497544773899735 4.163892753772198 6.074125471503575
Mo 2.2127279272008535 6.403168279529726 6.9852888509500275
Mo 2.7828399802128336 6.167324353061437 9.738350520037036
Mo 2.276190874052184 8.77274810949046 8.267359697479343
