48
Energy = -446.6567339 eV
Mo 5.25004679186704 5.743587300374869 1.6177897113870823
Mo 7.6898741245946125 5.814757713700516 2.8149011463374514
Mo 5.63605957426424 8.041969537921403 3.128521371216349
Mo 6.585480280865593 3.365610172950373 2.8977923207623846
Mo 3.476665829584143 6.556216938497905 2.2974182919495774
Mo 8.271565423587772 8.60791780409529 2.674466497273598
Mo 3.916516072432449 3.8396752262798994 3.0217306903748304
Mo 2.9959862150774117 9.272018140360084 3.0305297056422376
Mo 1.4869456007658937 8.139327105419076 3.523577139249509
Mo 7.580346842171468 10.006033398142181 3.9926506151970984
Mo 9.417684966674397 3.940073640002551 3.198740269903663
Mo 9.771391581032582 6.78206413188609 3.7827922856594296
Mo 5.30829628054562 5.47433760404979 4.410757520864725
Mo 2.325761390199889 5.095574824715953 4.3450530288818605
Mo 7.676606644875021 1.9630910772310455 3.773710920077267
Mo 5.278317450598666 2.9669311892344408 5.4638832888739515
Mo 2.9662693323706955 2.5523820266093282 5.044358802909671
Mo 9.264372447303536 8.583551890721676 5.390882220279629
Mo 7.203360932680021 7.290651097034531 5.1636035522736785
Mo 3.67253078236983 7.3842866215899186 5.038021020847502
Mo 2.397006556997409 9.503153007628754 5.830841864815004
Mo 10.74675270603675 4.884482011868619 5.021048180076917
Mo 10.166098428276346 2.0160235579048202 5.297167396678629
Mo 5.113774833446821 9.51202997311928 5.075304292821396
Mo 7.952216214825255 4.434851497040848 5.191565158420662
Mo 11.689124735582872 2.6095815946389256 6.215297950821375
Mo 1.3127203118098687 6.751788083561578 6.004159371647737
Mo 3.1766389748729615 2.2004687934554226 7.357602152182603
Mo 3.6964873845013515 4.947828990194939 6.657914871531857
Mo 9.306409798214974 6.084685972838938 6.624135039390672
Mo 5.2761308191742105 7.475240747779359 7.117170697611871
Mo 1.2614771171322627 3.97771895535972 6.7759006428397965
Mo 4.486766336370399 10.075095011814403 7.717851861668346
Mo 7.649800568454801 2.4517560182507654 6.652722067279968
Mo 7.17501329784685 9.701157486109764 6.871385791264682
Mo 9.564113337201723 3.641167386006344 7.492429065927687
Mo 6.619177716372905 5.237202286437564 7.407689162201433
Mo 1.2588464909768176 5.539883100641702 8.219986299318922
Mo 5.429086147583362 3.1183452845517157 8.03806286229873
Mo 7.976792474107954 8.169146449259635 7.930136004165559
Mo 2.649339930902619 8.171025870933985 7.57086790369407
Mo 3.0936850627497345 4.017833409568924 9.213737453403677
Mo 8.499521926082684 5.581492616072051 9.214021691657853
Mo 7.938174928116581 3.4064698124839534 9.441368498633075
Mo 5.493593083234532 9.28024187520024 9.216944389530804
Mo 3.8502671051086566 6.2036163223357494 9.106623971844026
Mo 5.853647777224093 4.44872392089419 10.135802241064612
Mo 6.2187667754530285 6.764441925750477 9.616592119765622
