42
Energy = -387.22078134 eV
Mo 5.544996657188579 9.359820583011915 2.142644326258737
Mo 9.12017846318764 2.5181364614328574 7.707717891342306
Mo 5.72971980983152 4.64723130088112 7.0473335490591245
Mo 10.837885741329124 4.338740315722097 5.866865464875654
Mo 7.318268785880528 6.237304094005415 4.85005980781384
Mo 2.393127159836948 7.658701506316562 4.486600090429286
Mo 2.556985621425206 6.388369601434516 2.170448090437191
Mo 8.466668871327702 8.283539213920905 6.252284805863504
Mo 6.532238266227642 9.148397004363575 7.57068289333132
Mo 1.181213497169897 4.082910580771856 6.284061672687525
Mo 9.171596923379722 6.873152295503599 10.01411144756242
Mo 4.179425782944441 9.15972970985939 4.788777951005142
Mo 7.713482906702844 7.570682595456582 2.9945632086837866
Mo 5.250769995724277 7.273429168850106 6.414190853255061
Mo 5.364323794790338 5.548012427251828 9.547295111518684
Mo 4.158135184628851 4.644731390203962 2.380731035050437
Mo 3.719212836223879 9.058459245756808 2.1200117282744877
Mo 7.315707233807589 6.815580362122693 8.247078265092409
Mo 5.0076959247799 6.957928676760375 3.565453621755223
Mo 8.091655365556797 4.5047915423019615 9.652638609619203
Mo 3.0013346432168784 7.632158139067985 7.080890786541859
Mo 6.957704655920116 2.7832432092322428 8.507915629355619
Mo 8.318589544655579 3.505868907321815 4.580999554083542
Mo 9.099690402544503 9.07197231368544 8.807342753166536
Mo 7.109766869370009 2.3390522096701103 5.804228334289359
Mo 10.379267172658471 4.5058986866096955 8.844425206671769
Mo 3.2675698618538007 2.704154690623256 4.44559684418122
Mo 3.8562452914336443 2.6977832939162045 6.197424484218997
Mo 3.5115025934418145 5.426408531150261 5.168080352222896
Mo 10.126488125216245 5.926911980654759 5.03959597840172
Mo 3.333493496514901 5.3327259766173984 7.742531286035335
Mo 6.7566090076920435 8.999682385778796 4.742514188943817
Mo 4.738736447762212 7.62638138044073 9.22844396752634
Mo 0.8301022763163738 5.901008914270525 6.3037049977821376
Mo 8.371055837928553 4.7400727970322425 6.956059062462415
Mo 7.304494173198157 9.076561979423925 10.104078303315204
Mo 5.71407688002252 4.176057855025316 4.462759332010753
Mo 7.015722922240094 6.912594507571027 11.02196533051002
Mo 6.943237208964652 5.169040927221738 2.17543857054786
Mo 10.108750299526223 6.574267457795395 7.637189856264395
Mo 1.605135047050447 5.027593856415362 3.550517626929574
Mo 5.646121057828873 6.423184587612562 1.1369323963255775
