46
Energy = -425.5100048 eV
Mo 5.394004322565027 6.51708291266168 8.93198417141408
Mo 4.514419374103911 4.240826414625865 0.4474130606528367
Mo 7.196728495231666 4.854772534198138 0.48548999776167373
Mo 6.978858701537832 7.315940544248195 9.814043243917434
Mo 3.065828638849812 7.202657823243299 0.6894802446888287
Mo 6.386871924813056 2.1759554956045166 0.1839578818430134
Mo 0.5038528334753223 4.480151501983663 1.8036595221843872
Mo 2.7431939409453148 2.5643993822715547 2.2222257103329444
Mo 5.52526027929858 6.336077145234268 1.7549737174707611
Mo 8.211129988849251 3.2868352855152847 2.4382603225815473
Mo 4.887559928576653 1.2993234821756732 0.8436134869207675
Mo 7.776089396084207 5.276053786207348 3.068319347801515
Mo 0.29160326182639124 1.4583357926427583 3.183248383011648
Mo 3.0387771699064534 5.199402331203232 2.5789147238996444
Mo 3.7028141089541435 7.747993258415967 3.398240692268708
Mo 1.1463636128095545 6.714531757109392 3.479581273694812
Mo 5.586062453657509 3.522977195887872 2.517717669569224
Mo 6.95799442987457 1.0532037969652488 3.1303506980280322
Mo 4.4215732917990005 8.596291700759531 0.7709267333318177
Mo 4.804641414125823 1.0878897359574593 3.796079571484672
Mo 1.0332948684753251 3.8825563101739253 4.236312908723539
Mo 2.3770185531573294 0.314001773137119 2.5982655291866807
Mo 5.357876293878608 5.715618321156819 4.390584309187368
Mo 6.1185009310841 7.899877802217968 3.6013328498239656
Mo 1.3620436408894732 9.168005613519107 6.0098488559639325
Mo 3.8326976908114316 3.559990236692487 4.559848909591347
Mo 2.428089681879988 1.4304237703894553 4.910044207315417
Mo 6.857775035638554 3.3328967705831136 5.057578567160136
Mo 0.11967162319461352 1.8165516204778729 5.446551436512304
Mo 2.620215519748574 5.94715867032959 5.648390416318498
Mo 9.112624387837949 5.537521183062013 2.8983273700645023
Mo 3.229429381253386 9.153004864894324 5.975865945589893
Mo 7.077072251766601 1.0551008117686471 5.539299494114631
Mo 0.22709771180853358 5.6196974661095735 5.63973322306819
Mo 2.503137498919974 8.355463924165498 5.43595116241023
Mo 4.836725590377817 1.7775122012181537 6.45631940388434
Mo 7.360870162559945 5.9912458172072105 6.430778474175685
Mo 4.762661729817239 7.623989543950359 6.153957163278081
Mo 2.3028440573179276 3.550740150612047 6.842357932285087
Mo 4.916634980565785 4.630159856944673 6.848702598638613
Mo 2.354799135886143 1.3118899533709032 7.686535041630979
Mo 6.749377671159112 3.210784349384749 7.531581875375451
Mo 3.57801012217495 6.519686271274744 7.878596557932558
Mo 4.4123941836574305 1.222985778086669 8.93198417141408
Mo 4.021147319977603 3.282483521378386 8.886529190885904
Mo 6.524880826987882 6.351305210714296 8.057595622342497
