45
Energy = -417.17849713 eV
Mo 11.153814138221987 6.457261115057719 3.667373670143339
Mo 9.452572954621825 7.106160475841966 5.761067754859777
Mo 9.917706555039949 4.479505720626107 5.409630784201311
Mo 9.40497217023089 5.303168748327326 8.019929757434985
Mo 9.731001211277981 3.929211151250639 3.327107546218866
Mo 9.233927897807842 8.369252969146178 8.036498359468688
Mo 10.302265923039679 6.380209670735956 1.9805228769440035
Mo 9.242650253578663 8.741324247054916 3.7071468285506843
Mo 8.16047651665004 3.1325807888292774 7.536018629414522
Mo 8.688237733199312 9.5948002263745 6.563013147390303
Mo 7.41063802614663 5.764583607159117 6.712993359431796
Mo 8.197462835650759 5.963729385816623 3.7193268131887014
Mo 7.608060071158603 3.352288798422438 5.089726951196677
Mo 7.018306662467065 4.073545915473825 9.27556672852797
Mo 7.766101185653137 6.607417514723017 9.40542750655378
Mo 7.199391618895544 9.530674117451694 9.779278320183293
Mo 7.033042774582008 3.5279519974615203 2.6675396637621764
Mo 6.759655785252891 10.34163733076875 4.239228598267889
Mo 5.6846393766032355 1.8303644738140485 8.21137074846852
Mo 7.935956312984491 8.093274863717577 2.274743967113464
Mo 6.251666984330784 5.554463618183568 1.4918546166937368
Mo 6.348850729221081 8.310328304616572 7.638211342584101
Mo 6.224471567062766 8.201546555000833 10.774513385198265
Mo 6.8077610276707485 7.9317141813023575 4.974232235233555
Mo 5.682609337181704 5.395407325812934 10.963275390910553
Mo 5.0978782665530655 6.108246478968609 8.833809917519009
Mo 5.4797717044452785 4.024449029304133 6.806383474350029
Mo 6.04346246732652 10.506356714962354 6.150289800817379
Mo 5.259311286798408 2.8933090289058523 4.068784030146621
Mo 4.5375131281607155 3.007124839744691 9.276040942015955
Mo 5.6460015252760805 5.438942684998384 4.331964351203214
Mo 4.31886454083235 8.943576683315932 8.910950235946013
Mo 5.210645076140953 7.5810459754087764 2.7188089774974356
Mo 3.503937612956217 2.580740048056554 6.262462723206584
Mo 4.517192351671869 6.794521060234857 6.333076205759736
Mo 4.397840791734763 4.763043441830122 2.111644524816427
Mo 3.4650410921545722 6.9932862856748255 10.9694986941572
Mo 4.389085432520468 8.969132861741384 4.571067193821805
Mo 2.9384464386829325 5.222658937095523 10.404223982397346
Mo 3.1950895661306533 4.423502722039636 5.061557970060078
Mo 2.985540724372026 4.758591524598794 7.611946152947528
Mo 3.4847001782546667 9.237170419031784 6.825946140797089
Mo 2.283359758540977 7.197492652000083 8.422117236895767
Mo 3.3000802994177296 6.836329357528054 3.8106595853230045
Mo 1.9218771446225766 7.004579650951307 6.361870335252812
