43
Energy = -396.61508098 eV
Mo 9.345127886494858 9.740990176672621 9.4584082056932
Mo 7.159958411929045 9.947520564902751 8.275333738719842
Mo 7.771522196686109 8.109763563061156 10.38848895712953
Mo 5.667764160903351 6.817369400947617 11.591068754690971
Mo 5.8056879042071285 11.337078668675689 6.423380260338474
Mo 9.227266758480276 6.867759266082656 8.965759600811214
Mo 9.654659450050584 8.892062179366055 7.469315105822627
Mo 4.818917052272029 9.130905021207703 6.918489117848678
Mo 6.754489282341016 5.67997772288387 9.496492066736144
Mo 5.459422848826018 8.1718695234559 9.239414005748621
Mo 7.313526724281426 9.846072287563967 5.763636301973182
Mo 4.163433876571956 6.25881120625802 10.49801012304041
Mo 7.31914414780527 7.407490511242472 7.399204250339964
Mo 4.79095621337494 9.995281709653929 4.214006430300474
Mo 9.773522172583657 6.018823359285914 6.630203661711029
Mo 2.663207942914287 7.644080501189956 8.066300543104457
Mo 9.102273924744987 4.130817435692628 8.785153884087643
Mo 4.762311557835466 4.130196678063697 8.724535638115823
Mo 5.882929983567778 7.4349668471639285 4.838113284542361
Mo 4.782999720005506 6.138844306938397 7.245516720110776
Mo 2.1896732577563287 5.755792853629201 8.464433078736054
Mo 3.285732419983987 8.046427315842255 5.262513847951706
Mo 8.815212220140573 7.929282238134105 4.969686515975412
Mo 7.63550575792344 5.382413497335392 5.319241084968847
Mo 7.092446275519873 8.737725816372029 3.1889408773890207
Mo 3.115804963109879 3.503708335238143 6.857102462131711
Mo 6.759542555245004 4.027040904876488 7.424567155697141
Mo 4.36538573823716 8.729421477452435 2.682489469698613
Mo 10.108615641049704 6.094127163172094 4.132504483991677
Mo 2.4802315896120777 5.7127048325338645 5.952998126093969
Mo 9.434282235764831 3.549829312933048 6.895368555544483
Mo 5.045953253934625 4.536299109188768 4.977259154360634
Mo 3.4008524529778708 6.23965034556513 3.5452013632849857
Mo 4.948174033382091 2.4013008173438375 6.265071960209963
Mo 7.929973986747879 6.282715719421964 2.936491422426402
Mo 5.503692600820325 6.193784491516654 2.4625210214582687
Mo 8.984478413626475 3.6442963098436967 3.9564034183250283
Mo 2.7248867172086557 3.468960523793349 3.9949089648105898
Mo 7.359031255037292 2.567762253240962 5.236661544682615
Mo 3.819318920432979 3.7167965413427866 2.4974282849302973
Mo 6.602377252146376 3.9114627049409063 2.9367788052977875
Mo 5.5490901430223065 1.371406855043541 3.4079327839367286
Mo 7.349074889573943 1.214868440059952 2.961123756362717
