49
Energy = -456.10505469 eV
Mo 10.067304471141917 7.168680468651103 9.401472998289973
Mo 9.067240069598022 8.49423204345439 7.487072439073117
Mo 10.407669523666561 5.803847368657287 7.060036244157885
Mo 11.121675174706747 7.336661043499114 4.884249756325796
Mo 9.28935775090733 4.479840366578198 9.282424068976466
Mo 8.444086003632675 7.959804453467974 10.301783659465515
Mo 7.749220680727258 4.9264947441246845 10.627475835120862
Mo 7.6093611837093516 6.3567308889108896 8.14232714420206
Mo 10.286887371714858 4.452398608888146 5.094745891137727
Mo 6.943035410147275 9.13927119675198 8.515614229993904
Mo 8.399590572736155 3.9105944803749697 6.839996116484968
Mo 8.959303276002917 9.500302836525378 4.9014285660111385
Mo 10.445369703257088 6.26012273282078 3.31680185551736
Mo 8.652574601159435 6.683863941235765 5.498542006371576
Mo 6.573875742457105 3.908681401150425 8.80633597510278
Mo 5.850832968315861 6.80550047234972 10.012852326371522
Mo 6.3820156364398235 5.1974238039115255 5.991709396024496
Mo 8.090633906596898 4.579271491958213 3.8023941028334085
Mo 8.544604796685817 8.35560042093785 3.318645313545593
Mo 6.617144952333368 8.282561769987069 5.810323594100263
Mo 7.102347747492562 10.896222117081505 6.524619772952372
Mo 5.187270887066136 10.600430477946603 6.814971620043884
Mo 4.371107133033938 4.991634283171344 10.399907541924339
Mo 4.4924705164321495 8.87274254943885 9.582333658470501
Mo 6.3525730495141595 6.795321632601704 3.465584543271555
Mo 5.901999944755193 9.6592075497545 3.914959210636569
Mo 4.778096849768339 7.748831116332993 7.48179229744431
Mo 7.428351462027085 2.5270425686260256 4.8302788404828725
Mo 3.090178571821222 6.776201379218629 9.529723059751213
Mo 5.364626934450526 3.958012251864108 3.821902244890186
Mo 5.516382977139725 2.7261373054102225 6.548769473775696
Mo 3.410818092943337 2.9536593879282993 8.550802396839376
Mo 2.048751957544423 4.227530312855368 8.314641752533038
Mo 7.129163092249447 2.8497361850149656 1.909066406688644
Mo 4.579656023874748 5.2594812461697895 7.7819067260827
Mo 2.457247421149284 8.972959737280975 7.4514413191770315
Mo 3.7955891670933997 9.034091980297893 5.204896695621691
Mo 4.248441053526948 6.454544310298902 5.011286746638351
Mo 5.841195910380653 5.2065470400743665 1.4786895722393703
Mo 4.449962611233522 8.125147632309442 2.7381405430982
Mo 4.457560353028519 1.552848112617851 4.89568703520896
Mo 5.7808794587185695 1.5457910213769979 2.5588360387172115
Mo 2.198519745011935 6.890171428588899 6.755972833930967
Mo 3.287541322648316 4.003771058702534 5.762362882578318
Mo 1.7472317863134152 7.478877037124686 4.216022590724203
Mo 4.396646874225533 3.5261328230899367 1.386784460252391
Mo 2.933452456062837 2.986704676603241 3.6545931855906346
Mo 1.536104431970493 5.451010902228981 4.285948698967635
Mo 3.542781071158174 5.7595955063103945 2.6710871838261627
