49
Energy = -456.43899938 eV
Mo 9.65962766475603 4.050494064830669 4.042583282181533
Mo 10.279364565817573 6.483667625553282 2.4528280299952723
Mo 7.715763880514256 4.907711159663073 1.9050132914299729
Mo 10.817477845510988 6.218611664177274 5.152729501921729
Mo 7.269373613457903 3.8484261244800932 4.280261413594922
Mo 9.178627986275812 4.597077897555281 6.233978305787573
Mo 5.673371705969073 3.129980300369197 2.3519890719967957
Mo 7.73345418653385 7.649325644253664 2.153749388296468
Mo 5.924709295833371 1.4180981826991879 4.609915675769078
Mo 8.339721741645189 6.578986945873558 4.476466827979059
Mo 10.291858636708685 8.266488008810752 3.212210473012015
Mo 5.889048369680583 5.7680636072317135 1.0395601590548804
Mo 6.648335071876701 2.935742483612092 7.0526470241426
Mo 3.864826961367876 4.860122649507082 2.205127889051911
Mo 10.540393282652063 6.824901695146935 8.010558212382938
Mo 6.476741544538329 5.298349721881474 6.327751912943152
Mo 5.772497765684539 6.191314371452289 3.616133837106683
Mo 4.171543541114967 1.5260695821459813 3.499609362878967
Mo 4.476689811209989 3.978013072632753 4.609970255858914
Mo 7.785239602052123 9.31200050022097 4.207766721433955
Mo 5.760810094977926 8.70077519514856 2.9373407011074275
Mo 8.343092088704747 5.3178102908582945 8.75598161951113
Mo 9.981227114783508 8.283021242179073 6.013619161425238
Mo 4.074022409063104 1.670547231192015 6.463742376138324
Mo 5.099681798185948 1.6691612839815062 8.490077172954445
Mo 4.054081191468264 4.163886122743054 7.330506029648924
Mo 7.936511471682751 7.260726164486725 7.194954322540214
Mo 3.3486704917942585 7.137418713766144 3.069545367137169
Mo 7.99083132820695 10.12399724399574 6.889000956869972
Mo 2.081205392878478 5.351733298052135 4.233342143554965
Mo 9.432428219183539 8.124542587581901 9.140617664322496
Mo 2.16154838681292 3.141752761933447 5.37806684291073
Mo 6.105750802581433 4.3532684867570905 9.099971886767445
Mo 3.5981004523601823 9.120320942858337 4.7342241176008315
Mo 6.159700365633431 10.657536148508624 6.1686439388892
Mo 3.8887780726236234 6.480860195027217 5.649616373082349
Mo 5.113290883646178 6.635805487260706 8.101315524088703
Mo 2.320332045080321 2.6170346974174477 8.366059801881658
Mo 3.656538402734925 3.1911223480236477 9.997277604068659
Mo 6.04601691566906 8.109592259283772 5.574667429776433
Mo 7.050440641705528 7.092475797632279 9.944067025402262
Mo 6.326630361049727 9.020190392109054 8.516750343081407
Mo 1.7875439972980707 7.942585538256036 5.667254737519075
Mo 1.7751305252622187 5.066828641592997 6.835937771250166
Mo 4.797875622477023 6.163527677139823 10.904438194900836
Mo 2.9390121088989805 5.418136595856708 9.464701595665321
Mo 3.9851915954037893 9.098934948624061 7.15682689344658
Mo 4.287936443043309 8.088790318501735 10.127064867379895
Mo 2.4485330151742644 7.454394630837105 7.965490375992374
