49
Energy = -455.17565575 eV
Mo 10.773438999802764 6.409845699898829 7.880088779476793
Mo 9.623883481449187 6.093161698746466 5.3466948655727595
Mo 10.362136522909319 8.46880943998325 5.765614390861147
Mo 10.12879432472696 3.7832419682035496 6.761736724184878
Mo 8.932671501284373 7.616604026872242 3.3711035228329242
Mo 10.17926701912414 3.452427892662711 4.878915986489097
Mo 9.28298189849758 9.912925997629738 4.024939968090753
Mo 8.869735205219584 8.300459974303052 7.680445810572618
Mo 9.842504445378657 5.436854300207829 9.208811903668764
Mo 8.147107059745737 1.9055260768389317 5.957300338599827
Mo 7.8506004385670485 5.725294819371021 7.3969983274447735
Mo 8.568229523653402 5.0124411643330875 2.8594030802456523
Mo 8.196011581492892 10.481714764974791 6.1374344215575345
Mo 7.807681018418581 3.218938514041942 8.153403354725059
Mo 7.588253541152235 8.16288537425947 5.44744503466522
Mo 7.716780268361893 3.274976990326738 3.4533303793770385
Mo 7.292062785426303 9.58776413283572 2.169156299896861
Mo 5.935522861755727 0.6026197487534317 5.778164904038102
Mo 7.1133734801984385 9.732426753811946 9.029628838625053
Mo 7.198576283405326 7.023940157307351 9.58691019787592
Mo 7.1959479356227645 4.723364956002273 10.029914580968624
Mo 5.326714242771796 6.9254660650345965 7.470551742682744
Mo 5.3917091192672135 4.227662976627092 8.002968982017578
Mo 6.224689403328496 10.096385536103522 4.129386569950602
Mo 3.957339592224785 3.4237363868926822 9.977397031042596
Mo 4.831344616966939 7.939440740655755 5.07793223879152
Mo 6.865648546172987 5.7768175707007625 4.941015347916561
Mo 6.341368086890282 3.475307488258472 5.696801388907487
Mo 5.766716540552535 1.3085630860239532 7.6277437963059835
Mo 4.164781151638211 8.917642459165853 2.896772744246881
Mo 5.598192871746972 4.837987308850969 2.8969441442184642
Mo 4.829844689965643 6.148652938573455 10.011966592989188
Mo 6.463405019295768 7.494044994369344 2.74030503034298
Mo 4.797645414567175 2.3990085432180512 3.419461466463973
Mo 5.951459302608552 9.884882957498704 6.93851258471557
Mo 3.0872533388230563 7.395811594876463 9.22250924227956
Mo 4.137125262019727 5.2675165096952 5.322358283862014
Mo 3.964197754697431 2.6344294098871877 5.985655819052963
Mo 5.093555715162697 8.912211239656203 9.405741124326912
Mo 3.6371454346961514 6.349546288580534 3.122203058009313
Mo 2.991999186281287 5.27776367988346 7.949025344440129
Mo 3.628708084178963 10.576308353512928 5.181762831450348
Mo 3.0579464083412726 2.5913332081194222 8.530058915122659
Mo 2.3510804915984336 6.975527102455266 6.170780790877635
Mo 2.2763641837758852 8.896835103947943 4.446336473749342
Mo 3.480332166214059 9.174832727738405 7.089248974702455
Mo 3.1074280026480956 3.429667445711643 3.4194999922506524
Mo 1.6923672482751062 4.119097311354487 5.971019727132563
Mo 1.388689029072588 5.627907601217785 4.449209132356686
