46
Energy = -426.96222187 eV
Mo 9.768868334859484 3.1482177422790034 8.94890824115506
Mo 8.140744887827402 2.547547944136586 9.665237824783626
Mo 8.384378572336734 1.2905145131652762 7.197316678806216
Mo 9.637583318580443 2.8319980062688344 5.90483724522824
Mo 7.855001230344766 5.364485435259387 9.493697325957479
Mo 5.81054389392689 2.014041943522381 7.65722906103577
Mo 9.837450992309586 5.359405777996559 7.079807491217681
Mo 5.571026939138017 3.8087113248193796 9.27087121966586
Mo 7.626583694398316 3.9759665293461164 7.209098441169238
Mo 7.035970554820937 1.565156010852649 5.38104487332797
Mo 7.958629001004012 3.6418301834963387 4.350999273019838
Mo 7.605465212889941 6.164742049442752 5.328977108387795
Mo 10.0804558905331 5.483184082234559 4.814570700459779
Mo 8.052149861830415 7.1376749966440824 7.79676739596889
Mo 3.7566995604442113 3.311815119371986 7.132655718386826
Mo 4.029849302752378 1.9211498069567794 4.688227519511734
Mo 5.883085055807344 6.568799381750199 9.868281313937723
Mo 5.579444282158053 2.4020692764727833 3.3160074963966486
Mo 3.1710416167643096 5.3484120555995736 8.827558736897211
Mo 8.060973341118888 5.7386384986120325 2.6157558449022926
Mo 5.53198144292998 4.049405381220409 5.515736524925294
Mo 9.77799887135301 7.858051272557937 5.676122358074844
Mo 6.027344067589034 8.47895346913458 7.903391799463591
Mo 5.622131330343804 5.68066459321403 7.586973233554744
Mo 3.104221176806117 5.562264788064228 6.031135764631261
Mo 1.0070311949542337 4.5549660508940395 7.67234732979462
Mo 8.418201285713284 10.017992669571056 7.736696638576171
Mo 5.972741158556909 5.274714657848679 3.0524242036295974
Mo 3.491322752628244 7.450672927759538 7.948368595537719
Mo 5.0891261428106525 7.207030056073505 5.337420630031127
Mo 3.513889459440233 4.170490420567871 3.7295665405289706
Mo 1.4418607077217245 3.4856362103848952 5.037178922993371
Mo 0.8985676634471235 6.491922555243467 7.4095583629477035
Mo 9.44692719373254 10.56915286238453 4.774049042448914
Mo 8.923898802904946 8.03343972748219 3.59838265246932
Mo 7.187038088594261 9.004129014570301 5.55704861073924
Mo 2.280329596972471 7.816400256980328 5.294840978657807
Mo 0.9380917059894804 5.313684869177138 4.490938842771449
Mo 6.6832492685263745 10.954233137189812 7.502199962682664
Mo 3.303784824381566 6.771436162371468 3.4575801033426887
Mo 8.121175351358662 11.799110717563904 5.193500134965368
Mo 6.295536707645125 7.885257279315929 3.0380006575864082
Mo 4.2210567498845375 9.412223015369914 6.294022904347702
Mo 7.0406978015493165 10.140998976731245 3.2178711074023187
Mo 4.260781077726346 9.228559538313755 3.5868790650071936
Mo 5.356755475386837 10.98527984532397 4.685075772894856
