43
Energy = -397.08904049 eV
Mo 8.766264454333937 6.844985798289821 9.572973719273225
Mo 6.624400726305977 4.091185843361108 6.524792147068322
Mo 2.0452336958854866 5.154658342093149 6.463316824731582
Mo 8.263225519057087 5.112828766410796 2.3973207318674934
Mo 9.040839000822324 9.2997332163848 5.292165554559463
Mo 4.119916941107621 6.3385173293862795 9.618205185266481
Mo 2.0472999662744167 7.383391764523386 7.801008576501602
Mo 5.460329635228482 4.484176031889163 2.7438662413171717
Mo 6.80517201977618 5.522544481957113 10.486294232236583
Mo 6.6774829196880505 3.2259035034964794 3.9083149987516403
Mo 4.464580930518805 6.777910898065296 3.552355361457063
Mo 9.143048071440473 4.082472476067455 10.686471983912865
Mo 6.852773623199144 10.45375176499485 5.018226337256631
Mo 6.759280277388379 6.044798148348503 4.715684780631392
Mo 4.262836218573948 8.475960112587096 7.940140337691187
Mo 4.357526969915075 4.223563229711647 7.76290660061457
Mo 2.4909594669589614 5.445570332629276 4.181095141088663
Mo 6.675582509230172 8.675240295976948 3.7498291591300217
Mo 11.076149402572277 7.163433665244493 8.251250975797563
Mo 8.943812885919918 4.466831475095974 5.116037446608092
Mo 11.265971737806613 7.2921746561158916 5.367488244502554
Mo 6.583827080134392 8.450661992189982 6.559358338219561
Mo 4.253591742723917 6.535229707557171 6.171083957851224
Mo 8.892025268122664 7.02485886270206 6.731750825072586
Mo 7.094099879916568 6.586485327527391 1.9217307328189102
Mo 6.309439420257274 8.352055056873189 9.545866774329765
Mo 4.385994587752907 4.143938894869292 5.04409196658244
Mo 2.1313189638509744 7.885187762845283 5.274547093987545
Mo 9.031133414030181 7.144611473821534 3.9729345994911314
Mo 6.413019080157539 6.162519596110422 7.967275689918133
Mo 8.779912643884945 9.074657354822126 8.31930359702545
Mo 10.73747039292719 5.003666627663984 4.074607167406457
Mo 6.851828339919644 3.5070118742394083 9.116186449158093
Mo 8.889194454720242 4.608458212887427 7.914602472927915
Mo 4.263266025788859 8.98119293802841 4.970418225987267
Mo 4.750896662959352 4.037542827803752 10.222243544877596
Mo 2.2530815106163673 5.2699226075438625 9.057069781713091
Mo 10.640499212267086 4.992459440278412 9.886658259108557
Mo 11.110819470787721 5.276141822694614 6.701455997770091
Mo 6.6563799784765765 10.222096509457568 8.357426267098157
Mo 10.970894974529358 9.082935043926357 6.896382827336474
Mo 2.2640166353048525 10.004039868977483 6.605472667192621
Mo 4.2721453730079695 10.715472696943174 6.659492379222576
