49
Energy = -455.928751 eV
Mo 7.598492331688524 1.6516929742358646 9.551526468575801
Mo 8.210281293353686 1.8918413666061815 6.710225080923695
Mo 9.15113003867535 3.805378867917998 9.160331652214651
Mo 9.579012963842409 4.1363237750840565 6.740534879577049
Mo 6.087923316753189 1.8184709813176478 5.936822253630271
Mo 10.205052831063943 6.253778510726476 8.638995208629085
Mo 5.872972132926389 1.3307978518908596 8.571560073794732
Mo 9.86094619246448 4.652396015132298 4.253878235732296
Mo 10.141331611937101 6.584397236703777 5.926240134538383
Mo 7.451845503217035 4.007819583461709 4.998027962331141
Mo 6.104593435909105 3.817423823114087 10.184248261298805
Mo 10.531374499839888 7.361610609183332 3.3445931699580718
Mo 6.940648044664661 3.758102490983118 7.8156203127922215
Mo 8.92633113132352 9.273521042719818 3.024696540176073
Mo 7.8017946755335705 5.824771629346872 9.438294482313395
Mo 5.271552786037711 3.1860101621268053 3.643648404437908
Mo 3.4697873572607745 2.595664632840188 5.110184216947885
Mo 9.34464384455965 8.094717588239988 8.101444397422108
Mo 7.723641815885811 6.23990051775487 6.860777801930893
Mo 7.367116064412805 4.75533767089226 2.502766895398307
Mo 4.210543900141145 3.5532594106921045 8.698908662129947
Mo 8.06678380705398 6.720629619299627 4.008597901505689
Mo 9.77892732362221 5.5435887818074665 2.0115782097191817
Mo 8.701512664084786 8.768852259037745 5.551781148062974
Mo 4.548355857503692 5.86198896953326 10.438288961847968
Mo 8.340980449527324 7.572223436621352 1.5612946596975976
Mo 4.810165499315777 4.2103371290309415 6.324073887671136
Mo 4.438169625098346 4.771653747445373 2.1519201448773675
Mo 5.253032680376532 6.204392147926357 8.274823946679486
Mo 1.8405033531931139 4.1920665141970614 6.782174508347874
Mo 7.014297798394187 10.716848055139083 5.038496908289219
Mo 5.546468515696133 5.979500576494155 4.420912812913219
Mo 6.726406715022721 8.423248917916728 8.93709409352696
Mo 6.1394169071611895 8.14439110155998 6.034982591999786
Mo 6.905555860067115 10.03214413013598 7.723177103918473
Mo 2.497016451829335 5.733616548235862 8.744921375892892
Mo 5.734228327394562 6.86153151852363 2.1465460473557862
Mo 2.9919338732728544 4.998358029129968 4.269854601594247
Mo 3.5765733956741386 8.065188061417683 9.908097049259633
Mo 6.47143291476691 8.979782868000946 3.44924059344536
Mo 3.4070322139516 6.632879001091784 6.377014008301625
Mo 4.319492708907298 8.934767734157989 7.808007132512089
Mo 2.5923452612568605 6.894477538248523 2.154750429605641
Mo 0.8787549201982775 5.856880246931146 6.230346194966676
Mo 4.017233836356954 8.180311240968626 4.032335968813644
Mo 4.859610723232058 10.339043938452338 5.443470970319544
Mo 1.7380791231808592 7.83868155759214 8.355575717533178
Mo 1.5628876498550908 7.246929894921749 3.7321467943069897
Mo 2.5469981457013975 8.902885297753256 6.057714619504844
