44
Energy = -405.72527102 eV
Mo 1.2061704286642483 6.283492741301897 7.589666674620624
Mo 1.7511028304539205 6.373263904882148 4.777287544082731
Mo 2.706886195709478 5.217749146834746 8.623620542638575
Mo 3.035995828178437 7.738597363474745 8.60159060066579
Mo 3.087338736369064 4.8083782670741515 6.113661939608975
Mo 3.9350179399929677 6.474635515602894 11.16811010830569
Mo 3.250085017229933 7.864802209635803 6.029281063976888
Mo 2.6349558724218114 4.784745807368186 3.263212309766849
Mo 3.117352803288591 7.978209322253547 3.0372576641289104
Mo 5.023682690418522 3.4223097574034913 7.0687022494513885
Mo 4.851344951863599 6.2705676678072875 7.191237241121875
Mo 5.0022616231344355 9.302964501982968 7.2196476983516575
Mo 4.759190631518927 3.499693786581403 4.381640318974979
Mo 5.61670522440597 5.040047063350132 9.560355185554945
Mo 5.5534206407473645 7.8283471695569276 9.320633426496595
Mo 4.378531752833384 9.253695901156089 4.106926914700173
Mo 4.7937940268726225 6.304223144721787 4.2293859113595325
Mo 6.754231779951202 1.9432722960685556 5.677664017544995
Mo 4.356711633263105 3.598019152232646 1.718394901148526
Mo 5.634104215586412 6.6469039795727465 11.913453945574524
Mo 4.200675546916366 5.705951412944784 1.5552536191129482
Mo 6.757306908249909 4.931643525635364 5.65761183010589
Mo 7.747580207572073 8.34599477352032 10.210645400684216
Mo 6.412459498446633 10.914604617458753 5.583096304945372
Mo 6.422770862462069 1.9430143942046059 3.4755531679256033
Mo 6.143407149520672 7.8993837049288995 2.6949465917454862
Mo 9.346548105554003 5.795388824024394 5.716931182080075
Mo 7.1220723570508255 3.844645198450223 8.150745877017272
Mo 7.774222912323365 5.95567784952457 10.290529426103895
Mo 7.495278135382825 9.548819632705756 7.895705397960309
Mo 8.919633791478624 3.3006966289369415 6.354126767443373
Mo 7.642740213822106 9.455317473590961 4.084520722483077
Mo 7.546355385622676 6.566812277509944 7.7964656663779195
Mo 6.439070005177738 8.029613710870509 5.625198569878446
Mo 6.431687800437439 4.811784286568644 2.6847707181065688
Mo 8.507100259152894 10.881602104830392 6.314826341589351
Mo 9.689599546805256 7.8611669875702725 8.709601606621778
Mo 11.61221510615999 4.136648021557282 6.310748559941665
Mo 8.238034887104156 3.567235052674055 3.955951436565783
Mo 9.644576831925038 5.147423574282348 8.32022426386207
Mo 10.998424662703798 3.618137906486952 4.650425378779936
Mo 9.157826484982058 8.255095004475663 6.127984317408396
Mo 7.803181632625447 6.610760741447118 3.6341667192743414
Mo 11.110638425879749 6.826181584211623 7.191327211883681
