42
Energy = -387.81328828 eV
Mo 9.650866638482848 4.814264001984378 4.053532966524137
Mo 9.795302720920953 3.500234491067498 6.196081812398808
Mo 10.316520863402609 7.478397442099066 3.529520840598063
Mo 10.810856366499307 5.925313264882523 5.965153918420904
Mo 8.338673752718508 2.3574564584569746 3.830016446508695
Mo 9.51737529514183 8.097828604484095 7.776471028666526
Mo 8.059206500182647 1.8887624824045364 6.051783294835482
Mo 7.721877157010973 4.277674766019142 2.1366959935382797
Mo 10.755776485865871 8.46145109430243 5.2213950838523635
Mo 7.4069747496169285 4.54195718997656 5.171725525193386
Mo 7.882832528463457 3.180913622172518 8.478336306889195
Mo 8.023375596719704 7.262578821849136 9.36171591269573
Mo 7.8080979303822735 6.469820193845373 2.962024687721866
Mo 8.984621065620617 5.36061605585708 7.782813307652814
Mo 8.089153268845184 10.12847813952026 9.068366474142781
Mo 5.943292506241579 2.707366432466468 3.9812558860442695
Mo 8.326646307009964 9.812889294824778 6.136975821994661
Mo 8.046825541691662 8.9727244773554 3.979863288149601
Mo 5.753813084024763 2.9413095146312545 6.8470067937745664
Mo 8.473908267870254 6.976007445510815 5.693168075892105
Mo 7.380332986968599 4.5464651138680985 10.063958622099317
Mo 5.618842150866538 4.833384647734605 2.952774865222813
Mo 6.401917476064941 5.547178510760451 7.538148286194302
Mo 6.230587484971993 11.263528712639328 7.197754382238333
Mo 5.615542392730484 6.70573237416368 9.89197886495227
Mo 5.876142318094474 9.491324012618374 5.171477195405901
Mo 6.52386277322246 8.265718431732255 7.486397535968418
Mo 6.402832146650342 9.743703674408852 9.817473948316447
Mo 5.905159504891784 7.037776990017791 4.753110792657409
Mo 5.188368392493146 3.66792137460141 9.235016608466527
Mo 3.032071895368503 3.137344907915651 7.437092533854443
Mo 4.532021708944256 4.616116653101769 5.571737126584513
Mo 4.085514871577341 7.404690964803014 6.686375246728567
Mo 4.532814319043424 10.355279527132572 7.368388198917916
Mo 3.85271188482638 5.535531866489296 8.549958116384804
Mo 4.0369630988402845 8.27176427506564 9.126999257235425
Mo 3.1711693793670386 8.795335024964217 4.687807754215378
Mo 3.566065985036534 6.179921167862545 4.043576844499714
Mo 2.2376876069090015 4.760582951937659 6.585676699282968
Mo 1.9274772399904858 9.067631008709194 7.400858387262588
Mo 1.661938349962641 7.329236976498184 8.186750951660615
Mo 1.6986228244749562 7.472430457272083 5.2074277343638435
