47
Energy = -436.09163118 eV
Mo 3.4943087709888467 9.623460494016784 4.324515460872374
Mo 3.193637979065299 6.600643540556058 8.541199371775335
Mo 8.070734522362699 2.655279053535458 5.501520370923636
Mo 7.334873893117079 5.454155466448835 5.456123323027101
Mo 7.9153560465013975 6.054504303971245 8.064204293562872
Mo 6.134775379731219 10.267567773190647 3.8599247793434737
Mo 5.089030830299932 10.016960966842696 5.9527791241140156
Mo 5.3555640690210895 8.875815109361232 1.7315739377838761
Mo 8.388783406542043 9.152929005456317 4.522732909244472
Mo 5.564388152212648 3.478516396699602 6.567405512406824
Mo 8.965692020231813 6.641827629708209 3.8958014952870585
Mo 8.482090434225116 8.93902942681575 8.628490353523489
Mo 9.240643935228421 7.498842534624958 6.266080200398234
Mo 4.085613898548212 1.3501689674453141 7.224500626669326
Mo 1.9730857084776834 0.4038968944438082 3.9324966554198646
Mo 8.048698597058372 3.5649482065011147 7.604343383744613
Mo 3.3711549968797034 7.583006441860695 5.662525277219878
Mo 6.059858941322856 2.1516194425246535 9.047920787764154
Mo 2.7923553230766704 4.789140112676059 6.396445937541229
Mo 5.005234095420817 6.19738201936572 1.5815304625808773
Mo 4.613916493772394 1.1013270616791884 3.120530227920052
Mo 6.7895898291146 1.0487698805094738 7.596792318760351
Mo 5.696436502652125 0.9657401107095201 4.908496267151974
Mo 6.726132445631314 9.898803026011628 8.74570445362748
Mo 9.43448479398086 4.269113091980697 3.9276971252459743
Mo 5.790094743146633 7.7439270905534565 4.217076272308369
Mo 3.291373906310833 7.513296306108329 2.8783336218619766
Mo 0.9017489860204487 2.9986523393507074 4.601995338362989
Mo 9.951487808357866 4.889486854967125 5.951434609254115
Mo 6.092679416033973 7.546920334288237 9.281669047423717
Mo 4.303168176729758 3.9257143206698797 2.348197850298778
Mo 6.763005709228135 8.106379887691785 6.651003323261243
Mo 6.984971944648547 5.456860764249984 2.6331468676316825
Mo 4.648483164075962 5.308767846574159 4.375479819370574
Mo 4.0044810532144846 8.442827331071115 8.045916186364831
Mo 7.8985133394161355 10.403765158959295 6.150424011636275
Mo 3.668821094235322 3.7388637019037363 8.405061447956275
Mo 2.039622981759097 2.2966047515538 7.155028694786415
Mo 2.160873303415086 5.354244676436734 3.8027120221442248
Mo 1.6684338867709823 2.9278529791652756 2.7282367982786333
Mo 5.159935251527982 6.052655617172275 7.0157898319969725
Mo 3.505657390087923 2.711777023998737 4.828708495228763
Mo 7.22439385404093 8.156654141882914 1.9185942043830364
Mo 5.959371355365531 4.9534081493220885 9.101825283150982
Mo 6.406860494832214 3.276538598848252 3.7540110330281236
Mo 3.0722017191111854 10.403765158959292 5.27492171099098
Mo 2.385427837775532 5.536284191751095 1.5271473559409974
