49
Energy = -454.795024 eV
Mo 3.716159621309927 5.312815542869672 1.8840780989119459
Mo 1.2417075215030868 3.7487068555504397 2.5005998532229183
Mo 6.161958374900689 6.189984126008963 1.0071438972290845
Mo 6.488317649705711 8.067482124678845 2.9247893151968483
Mo 4.1286480993732 7.598051628424797 2.9076959089298686
Mo 6.069859818181382 4.2309188675261336 1.365584154532195
Mo 8.242327233650029 5.6847815630046945 2.8822488920619467
Mo 2.047057617894858 6.181309954009403 3.5930633670189738
Mo 3.7997575729743462 2.491009948423151 2.2466730364143417
Mo 9.222459114218003 7.541454223043533 3.5113662925375064
Mo 8.081132121665277 9.418239218517895 5.259219400273117
Mo 5.5362145589322145 9.070431283829299 4.990781306540354
Mo 2.337345875345503 1.3954319260535593 3.6075328392539663
Mo 0.7213468788048168 3.9153458036584614 4.326006795495019
Mo 5.632980894162043 5.519730817716904 3.7364673495409924
Mo 7.874878889926178 4.188513490190148 5.0327858188265395
Mo 3.4998791847414625 4.025255901185305 4.28788624609496
Mo 2.6033825839751668 8.812043639516627 5.093693784915152
Mo 7.1245855472811686 6.953429984940877 5.250315715995125
Mo 5.895998479915094 2.8565012379283594 3.871515317232788
Mo 11.402477997075756 7.385594707840984 7.015610417135935
Mo 0.959368213035791 7.075264981965909 5.564194503807784
Mo 4.279209225831287 1.2360062286947744 4.764643348983505
Mo 10.658450660750994 8.772077459060922 5.77439345308203
Mo 9.663564258516864 6.061332768681982 5.38383753214005
Mo 2.7163308909250947 2.567205910658815 6.187907874606499
Mo 3.982075269499019 6.66975479906914 5.507434611764148
Mo 4.514944547516528 1.825567386495943 7.794393461109162
Mo 5.240193119917972 4.326518605088907 6.524480497557299
Mo 8.75195355773204 7.77789885062002 7.4923191222338525
Mo 10.16542848311393 5.299845489059549 8.13262427116597
Mo 6.532242069360113 2.0746633972315864 6.292669228124907
Mo 2.29568948552618 5.174731375146546 6.706106646208912
Mo 8.802738109868521 10.571665776375982 7.277847483092436
Mo 8.60193480127201 2.9905146187366944 7.104811428361644
Mo 10.506536347799301 9.370382038352723 8.899990123314911
Mo 1.6551020447943237 7.841315892433159 7.674512017291479
Mo 6.7807586473547605 9.596801316228595 7.609879760551322
Mo 3.884744068184233 9.091193532684935 6.995167985652642
Mo 7.653270085995479 5.3420829124568945 7.492801726666169
Mo 3.409242135869651 6.561286205984534 8.439535109907368
Mo 9.969517982184147 6.814704719895392 9.752473796048083
Mo 3.637098821906118 3.6994268392491088 8.607918516880966
Mo 6.647716365824925 3.2939426739871283 8.858592158661649
Mo 8.73944267965558 9.43257385190418 9.837047235230083
Mo 8.286825980457973 4.924264894287038 10.030540881177911
Mo 5.691237830382825 7.241968984111561 7.494612596002791
Mo 5.447904506365948 5.2440761298957685 9.407424183679426
Mo 7.261451450227432 7.09934679212787 9.660229914742214
