42
Energy = -388.45486728 eV
Mo 2.23456045933308 2.652524576869413 7.538925858175503
Mo 2.1406781314814167 4.530882461079581 8.190626446855166
Mo 4.274684926514846 3.132252473388663 9.525631340322942
Mo 2.020905764366282 4.715874594203605 5.600646507651794
Mo 3.9720808281020754 2.5344176027862635 4.870109883200654
Mo 5.02255187805681 1.530007112854592 7.105863838801115
Mo 1.4347439107360695 7.284684014410176 6.179479032213467
Mo 3.6313418477574415 8.464200744478049 8.67119996666164
Mo 4.549045983615525 3.8723007628846573 6.770902098364075
Mo 3.7714900672296343 4.938365163385236 3.986796717243682
Mo 4.726116452399182 5.893785878801899 8.998322442268805
Mo 6.3748880918296145 1.6617399515932139 4.484966294486084
Mo 6.134414042809311 3.3679580305577206 9.207398071572214
Mo 5.21198119865309 3.053825653288652 2.217808747383296
Mo 5.182250177477466 7.093565928289399 4.740085223479439
Mo 6.460184657855339 4.189840751922349 4.642546347080329
Mo 3.7423261530748713 6.404197418634259 6.732038100633625
Mo 3.826969183242281 9.115081045093207 6.09795781156701
Mo 7.160285964306385 2.6335746701940566 6.709790702975801
Mo 2.367363383133038 7.37164057565893 4.364941260598827
Mo 6.218499587995277 7.967771149536931 7.257514167457592
Mo 5.297887308574271 8.52789384242382 9.742318260170563
Mo 7.313707333492321 6.55080593174386 9.596664784619946
Mo 8.634659761176508 4.435303128122638 8.248492907006156
Mo 8.604892917886465 2.3522315282954254 4.27641112418137
Mo 7.069194413864166 2.994216927864085 1.9630351741100855
Mo 4.380325941331999 7.018160226301877 2.228372337754867
Mo 4.407945945751987 9.442849437929445 3.6818242706611874
Mo 6.363068140158428 9.638126079791082 4.952123337954879
Mo 6.6638522100589235 5.396159468330649 7.1248426737158965
Mo 7.759321144183396 6.905292572436814 4.858178047653795
Mo 6.09926765003601 5.721805019199248 2.414477592633424
Mo 5.493280548074702 10.298015653133824 7.287997569659143
Mo 9.068176064945018 4.391517185983217 5.880515325548688
Mo 8.095835361263294 8.436572964822135 9.170876526182568
Mo 6.867699565879337 8.413267941287598 2.512228919749446
Mo 9.069901637518328 6.837312098444906 7.297029751480908
Mo 8.760421028147894 4.783079204323338 3.4246292909738414
Mo 9.009909123932621 9.007547264827213 4.28725854547662
Mo 10.17365704594678 6.609479773276876 5.130267297614823
Mo 8.470414690564807 9.212879845775847 6.453056441156751
Mo 8.405348480183623 7.169463370608096 2.171928294206268
