41
Energy = -375.98277343 eV
Mo 10.688626424322216 4.367303319018627 4.143408584695954
Mo 9.643765180071448 6.52606361646016 5.706477660942981
Mo 9.77051962359289 6.255681634370935 8.722967108331416
Mo 9.480826809704368 3.162784580698995 8.180250591641958
Mo 10.579633093355394 3.992237337970274 6.959736505655176
Mo 9.297024560075206 5.011756159442734 3.174701604273568
Mo 6.814426847732679 6.108387064957336 2.2147053168763624
Mo 8.479730196282043 8.947550691199606 4.552277562273129
Mo 6.735423928277752 9.349998480082462 5.607502251969879
Mo 7.34246255591618 6.502691640780801 4.82967952617038
Mo 8.21873147633259 3.6450039968771764 5.437236054662569
Mo 6.261457428254813 8.363944590571268 3.1099579090421607
Mo 7.510065217733421 4.2530423781074225 9.811653991932973
Mo 7.896935194072654 5.305042682730748 7.221966153653345
Mo 7.744607964849618 6.739384666640815 9.525497763125335
Mo 6.442200935505777 4.0388913663299295 3.609622610234293
Mo 8.675479082381402 8.111774770320146 7.2658294179126965
Mo 6.680480171766776 2.9290821598299708 7.470029448247837
Mo 5.376943332556661 5.01810046341673 5.919498497773259
Mo 4.53566000785091 5.783162324296843 3.2068804468286545
Mo 4.921893794806175 7.5830020593600045 0.7501205812425837
Mo 3.4067140180502706 6.692642072623029 7.73015563482975
Mo 4.978232149695372 4.3290957317159044 11.346791984542401
Mo 6.024712660164535 5.822936139651884 11.632885573492063
Mo 4.139634555854518 10.407814350401967 4.425369386682155
Mo 1.9317538224890851 6.645013469689218 3.625843866262665
Mo 4.607731819713383 1.1031964130038947 7.88345276154662
Mo 6.168229042883679 7.372644679696663 7.363396684968128
Mo 5.095770393158135 9.55086264868832 1.2034875005961827
Mo 3.548267169676257 3.505386051885174 4.195745872903822
Mo 4.505829094572257 7.51750012503288 5.037794179774666
Mo 5.138144299073799 1.9842593487142743 9.399908309597176
Mo 5.356843301500449 2.457273419176513 5.332255684636409
Mo 2.71362234613771 5.3252525135149 5.466332316645275
Mo 4.12034882340976 8.870067297386472 7.240243638241219
Mo 4.624982300053814 7.247243221244384 9.561528288380003
Mo 3.431676869100784 8.364077688926734 2.7136750694875476
Mo 5.374688508941079 4.975749115645743 8.796250618134177
Mo 2.2056353703706857 8.260592798419097 5.311281000006426
Mo 2.4030621909700773 10.647783252012017 3.8348589012360232
Mo 3.8000801880120925 3.59857642837751 7.151595889819332
