48
Energy = -444.83637657 eV
Mo 8.541675913955816 5.596199705011629 3.9668526261513906
Mo 5.167729925422926 4.447965277821673 1.7222864306951322
Mo 6.948710516587515 4.838414691668021 1.7361246373734802
Mo 9.62018417899939 1.7862388381667083 4.745945190216136
Mo 8.672600048932583 2.9023295144353374 3.359109960561225
Mo 9.701955343692212 4.102077003756164 5.788091914254749
Mo 3.6910789250141667 5.069991241570486 4.094314416076945
Mo 7.7834783560231 7.9009995107411575 2.981120482078984
Mo 3.5716643900586305 7.224103796584835 2.3635496400114455
Mo 6.264930771377174 3.6773769839374326 4.31562683976554
Mo 1.8179752602295103 6.710308686297594 3.8203232362463586
Mo 10.397887157069887 6.597808002512197 5.355656327083783
Mo 7.419564008519331 2.2066621072330217 5.814161192934661
Mo 5.7026509273408355 6.456081421104516 3.6657894446947075
Mo 11.441520202506567 5.188280915683631 7.62416564420067
Mo 5.0108846578193 8.921210993954073 3.4335456731724094
Mo 4.926341536997033 5.7678772782102925 6.143904318179382
Mo 2.787799596682532 8.902039676474185 4.476673192998182
Mo 9.554366483533306 8.479888460602599 4.084801285107586
Mo 4.8055606075801816 3.254849388167435 6.6660656335470145
Mo 6.273947676700482 2.4985964652991655 8.063037126017925
Mo 9.278525491860663 3.2451366802145905 8.288081450594385
Mo 2.600982027160062 6.809518430730965 6.137802360757686
Mo 7.312286302194673 4.732125469346412 6.528476234401787
Mo 9.144745883316103 6.201138003060988 7.822383009822875
Mo 7.553686776328549 7.261830179485537 5.787324083407611
Mo 3.474506391399289 5.287940203743407 8.359581216155762
Mo 11.732217713368785 7.322427985538417 7.120079953794871
Mo 3.1628283638972268 10.405345654675974 6.588204141961002
Mo 7.361159365390121 4.513653897646178 9.389471862448545
Mo 5.038841054892903 8.358822823759587 5.8583893913108795
Mo 10.02619063737328 4.5303068777217 9.80294209061804
Mo 7.318119571997096 10.046278494849354 4.983405926274519
Mo 1.7128001523787928 9.119572901534868 7.13892583689841
Mo 3.9067270834559102 8.191845605378179 8.140444160321339
Mo 9.20490906841605 8.736610178262813 6.959258335451452
Mo 4.668763388903465 4.1969924783978465 9.492058193155733
Mo 8.394390473936348 6.891970379625895 10.243630691857586
Mo 5.910808051261213 6.052121223388689 11.301356055583643
Mo 10.271383524978686 8.062000281755498 9.444305884562857
Mo 5.77819111413309 10.99197425015047 5.699865949737186
Mo 4.785325543840661 10.650018865836431 9.005594803389787
Mo 8.731993812700729 9.636140751126453 9.57343918547932
Mo 6.100479612210063 6.592415273622119 8.436417496237336
Mo 4.29803922031898 6.895087420015539 10.665716727492804
Mo 6.865906788028203 9.371463729089749 7.629151555427247
Mo 3.7801790329208314 9.746999913151654 10.33018133347268
Mo 6.4447626926957735 8.582217713059382 10.013622482417475
