42
Energy = -387.45135905 eV
Mo 7.025454233380006 2.343915049767009 8.204495006396922
Mo 8.860460417464715 3.3325460200453643 8.022721100193033
Mo 11.382510599698815 4.79621460019405 7.718370353674794
Mo 4.869075051861629 3.744170161015922 8.71234549872465
Mo 2.7065901585325776 2.865952405107093 7.375779689569673
Mo 7.432588766815859 3.95296526244646 5.9367770398138795
Mo 7.183434817788369 4.927755037600739 9.079802259246565
Mo 10.095347596075781 4.423002630744999 5.629425076076366
Mo 9.695908413059296 5.624525772179832 9.72207786064899
Mo 4.814474431807337 6.509852018173145 9.867614196757984
Mo 5.15301735081064 3.016082158633182 6.330770482211028
Mo 8.764918675800033 4.467354473333925 3.6827191350035817
Mo 5.760453092224954 3.8252925534569022 3.6927578093009705
Mo 3.1363451258678765 5.471052234426706 8.274298482947346
Mo 7.257849624496265 5.478577082159099 1.6728145965153915
Mo 5.438261639537616 5.784267594805925 7.019056011752724
Mo 11.274838740588269 6.671120090776521 7.088578273143669
Mo 8.491484488991961 6.659479653436641 10.880348305859984
Mo 1.5078837355313264 4.409052364806211 6.7391842970365605
Mo 8.473916088383257 6.189892696122048 7.063979432600291
Mo 6.745158984217041 7.624149292408936 9.07665667299895
Mo 3.6669520274214724 4.783459783168438 5.44056471310496
Mo 9.325363750032794 8.081124023438582 8.621195427075024
Mo 8.042099958969715 9.553659270882303 10.757278684800433
Mo 4.7401133593351075 5.407893259546365 3.0690265384779964
Mo 7.037590216916187 6.263474832276245 4.549022419023187
Mo 9.676914452532147 6.676577533334247 4.720529626115895
Mo 4.284487390303115 8.05304564231179 7.9207584598750795
Mo 2.704707573245857 7.140792777242545 6.201095259425158
Mo 5.832529776989554 9.605279323668888 10.348161869309441
Mo 6.885880591067007 8.390682120620236 6.484666301704618
Mo 8.55573753915414 6.84427771529531 2.079588330837321
Mo 4.766603083186303 7.633849439727722 5.055015539734644
Mo 9.352369892187713 8.862265420344428 6.208925881081681
Mo 7.9809003488791825 10.25540628367925 8.627225469317139
Mo 6.057911801223403 7.8051384444683425 2.755207630116453
Mo 8.028987510689175 8.72661749543746 4.07835911917623
Mo 5.504505039523067 10.306317393795622 7.968723776046916
Mo 3.401803352683517 10.035769082191484 6.077852817068793
Mo 5.911549304268524 10.122340540794752 4.443668024632129
Mo 7.220794156120586 10.913019166259732 5.937876295065787
Mo 4.258128219446969 11.656762022689255 6.03776218709625
