43
Energy = -395.23340535 eV
Mo 9.143607322364145 9.407310910370922 9.949307837758008
Mo 8.961346670258068 6.276488044115341 8.723040070479454
Mo 7.693179933805375 10.727779861415042 9.40294911499492
Mo 8.801017568890297 8.91531143100384 7.5182881580357614
Mo 7.210248800505977 7.90238439764293 9.750619907069463
Mo 9.15840329324806 6.546765949020327 5.902583273829467
Mo 10.27364387735884 4.738305378614345 7.49774002778145
Mo 9.145502786260879 3.983484374734926 4.773161849484951
Mo 6.631820853730042 5.14931470113342 9.22828350320187
Mo 8.512902225613427 3.3343997320658616 8.515618499183834
Mo 10.226529790463392 2.430855542457861 6.3921724164140405
Mo 4.647128840881634 6.832691350188986 9.462113031782206
Mo 5.372817435514221 9.30957984722366 8.67580824753978
Mo 8.167156840358984 1.9333455557822423 6.450963200002917
Mo 6.797312187086082 10.288703766409343 6.974780196749397
Mo 6.148275325451614 2.8964308606884788 9.817195869544884
Mo 7.515118508735497 4.794666217044355 6.743727381671171
Mo 8.524678833627673 8.867889393633904 5.038822740256657
Mo 2.332940757419068 5.924402338570594 9.976341006920341
Mo 9.185458996363122 6.3052663925712045 3.3736514414411225
Mo 6.692177625942403 7.506816726181851 7.2300273532625985
Mo 6.778898470129328 6.353787439343124 4.569856661861824
Mo 5.727983333520488 2.973699304771942 7.480730035077365
Mo 6.042807644822875 9.016014784751432 4.885662463970104
Mo 4.542023634707043 5.424342821543886 6.863522000112229
Mo 2.9936740880662156 2.8072945006150314 7.126153147030831
Mo 7.379126195583259 4.567885085113258 2.740361177554444
Mo 4.211706089528011 8.704384365527181 6.551283059694131
Mo 7.7171811241991355 8.117905012863297 2.8200243136433576
Mo 6.548835551547879 3.4867232011447653 4.770726580889429
Mo 3.9681336208842417 4.302069248717061 9.149776856880557
Mo 8.10624231338955 6.291577378441792 0.7028741945237543
Mo 4.519589264483235 4.609988116572369 3.5585585221260216
Mo 2.792406856500439 7.630399818766131 8.124381245433757
Mo 3.50864880174624 9.443242896459223 3.752954170332737
Mo 3.902075667158664 2.681811726708349 5.395072198853901
Mo 1.9178893511601298 5.300226811433595 7.688675819535708
Mo 2.318156517443856 5.014841139637805 5.235996173827578
Mo 1.9872554603244403 7.20436919896597 5.576417598277811
Mo 4.787663265453491 8.922237622552704 2.5031190037409283
Mo 5.608292951119206 6.139419572482462 2.084876684929502
Mo 6.789617797343483 7.636200159689528 0.3316670839353394
Mo 4.191256841792521 6.8951343654273805 4.441332787342096
