45
Energy = -416.32721669 eV
Mo 8.715943741469138 10.818187482889867 5.429059179958229
Mo 6.702552970439493 10.40600158395187 3.2704227999470143
Mo 9.572615498534331 8.225163485017715 6.393159303784842
Mo 8.483402994009792 8.518576356434087 3.9998630470515635
Mo 7.159225656599453 11.396925577565893 6.56541687614606
Mo 9.792373869549145 7.569225057775598 9.309182072552382
Mo 8.316337096834857 9.641408880129063 8.053448669960046
Mo 10.578547972857884 5.589781044218958 9.836150737122358
Mo 9.673382611894779 5.799741859744711 7.305137389982001
Mo 9.588831361297284 3.5400160936245237 8.273731041662339
Mo 9.901814735425797 6.559619389891516 4.569418109859853
Mo 7.0267003219792645 8.779569885862399 1.849865765705294
Mo 6.804852219888128 8.814241084846577 5.908376862254854
Mo 7.978144319548193 6.48318044503403 10.565529860108834
Mo 5.3291569766541524 9.0803432679538 8.15473255730905
Mo 8.797238564207648 3.86107917021369 5.527917981267441
Mo 8.720676091429274 4.010957892013396 10.599876890425312
Mo 7.888603644934977 6.091822206869149 2.779114578414551
Mo 7.476407931533891 7.183680480496924 7.971672923623639
Mo 4.8814262213175015 10.406358929707825 4.999578184556772
Mo 6.867140873125093 8.569929475037254 10.07717718224668
Mo 6.160873669269374 4.848482573914906 11.449717753967478
Mo 3.1417266740911645 6.746665983107645 4.359133753423632
Mo 3.5864027095917126 6.503422631137697 2.2424273413944618
Mo 3.451688931997809 4.501843485643313 5.832353863834334
Mo 5.312578687574494 5.089074921738278 4.039256159469999
Mo 3.501952237738453 9.280765830121046 3.06680141270964
Mo 2.756662565828984 5.557749105743057 8.4479356754684
Mo 2.075635126734383 6.582985640629443 6.978618006289718
Mo 4.603842082175695 4.035731958698414 10.403382106920821
Mo 4.718998288407862 3.7299778849912086 7.832660210930215
Mo 7.549821643549231 2.191452438360624 7.5402101456019635
Mo 7.529302516703391 6.109976618411063 5.424014535400831
Mo 6.054922827508596 6.0411176520160605 1.651897076353693
Mo 5.629496737413214 7.79078596059236 3.777664488870115
Mo 5.1840859478795345 6.468265395447914 9.48433951678047
Mo 3.8660603457683016 8.642647730435801 6.0027665161984665
Mo 6.244394027138211 3.636214758673294 5.9660010555852345
Mo 6.774469152089989 2.369212471518494 9.931038035831419
Mo 7.513591292314156 3.7421213071567463 3.660615811222989
Mo 5.0140043546538315 6.3009716181377415 6.744017673808882
Mo 4.481623103483299 8.763444439144653 1.3571966402396192
Mo 3.4735004487956878 8.272276988685427 8.906207505502758
Mo 7.0872989613634 4.6721367599668575 8.572189554035111
Mo 8.819140858067405 1.564315060116857 9.678172009886667
