46
Energy = -426.34922073 eV
Mo 10.335651102435 9.112071914223545 5.558120646579947
Mo 10.617887855890631 9.67468927903414 8.201788994406812
Mo 9.899458672063618 7.268372897502084 6.885232740559554
Mo 9.004290757857238 6.61336792854213 4.455492490888714
Mo 9.032704657003222 10.91616177744298 4.210031429871007
Mo 8.448129537651907 8.820575515731914 3.1676615915099458
Mo 7.293055998790439 6.726956655906531 2.2048636770502066
Mo 8.16857525563681 4.617850119385523 3.0852979459879575
Mo 8.931182486710469 4.5478290889061235 5.971661224047752
Mo 6.083961729849409 4.8997338142426905 1.251671169082916
Mo 10.093858694801737 4.982424772574181 8.368009904596894
Mo 7.744475351815999 8.633814245772719 5.736796588231703
Mo 9.883036793920493 8.02287146683902 9.288970453735459
Mo 8.748434810255242 10.83456970061373 6.780395206146629
Mo 6.7845068314661825 10.950423183124967 4.537523935389665
Mo 6.4142229340271415 6.118268919911313 4.859496420978741
Mo 6.7142768649243365 0.9491355306234733 6.35333213506792
Mo 5.922205136559588 8.531533978025077 3.820362985361323
Mo 8.199069078702808 2.955576651356768 7.8433409434998085
Mo 7.533808569964164 6.138553433170699 7.412501625901943
Mo 9.316043134474043 3.5242049014404024 9.793714563049415
Mo 4.743364553751764 6.0572482610524 2.6356992560671197
Mo 7.871990784799757 2.5752983916281416 4.766338654036819
Mo 5.87389321651578 3.65326439645021 3.428529130231543
Mo 6.210862480132685 3.781465917737053 6.232373066773239
Mo 8.21945707975638 5.897781888288464 10.07121497814422
Mo 4.210332448187632 10.106789809740228 5.258773530437476
Mo 7.877511035516486 9.028008600892448 8.328126262082597
Mo 5.301293443958607 8.159483273032999 6.819216406652288
Mo 5.072700376093942 1.5770759615906897 5.271080671919628
Mo 6.61902142076053 4.351323223632347 9.386179050840617
Mo 4.04515178510792 4.6586597523702125 4.968126269353331
Mo 6.118548923510291 10.658163461965602 6.961672185709362
Mo 3.811915968538376 7.35688745802569 4.652106015674148
Mo 6.248491091502031 7.330347851037843 9.46678301418941
Mo 4.770842951264705 5.469358266964818 7.691277410495776
Mo 2.529260541471057 8.866105664184325 6.154539990116924
Mo 5.268854993700874 2.369787600569259 8.035900731181071
Mo 3.412525551736872 3.2624997251996164 6.897305398920817
Mo 4.613532249132517 6.014870764877746 10.436224768332776
Mo 3.662000684506929 10.350424388908968 8.095215806107992
Mo 5.155059175957668 9.825515741973804 9.32632440663926
Mo 2.6732396543817205 6.269339935242238 6.749736033007092
Mo 3.633305859101246 3.774440573478645 9.739436004942508
Mo 3.5565867313886277 7.638945157275321 8.775424669909514
Mo 2.2442415661650226 5.040748981252056 8.978950438030452
