40
Energy = -368.85090049 eV
Mo 7.971916328080987 4.088137170270006 2.5168927634029243
Mo 2.059870232048828 5.455283511064334 5.73373009853818
Mo 3.8067743866814254 4.028201326813706 5.55777225741558
Mo 5.388142415840383 2.789228696076134 3.5046533687463866
Mo 2.115844786711938 7.939785431282891 7.005008969972468
Mo 2.6499397179320296 9.246213678862686 5.756722846001851
Mo 3.3648365044920108 8.259302406200133 3.0971970460950975
Mo 4.435704815729619 3.171044068370639 8.167681092114094
Mo 3.596147311594601 5.862435088185116 7.874062815896874
Mo 5.798365997272038 2.328892774746624 5.552145066903861
Mo 6.465344462470942 4.8984025669346725 4.4678414114289895
Mo 3.8325080859347285 5.184295661711715 3.4243060088267354
Mo 4.348702221085475 6.954864271506516 5.294713022898329
Mo 4.10734023463219 9.936621469872946 8.303746788549226
Mo 5.942988343698182 5.008655782890532 6.889719432765116
Mo 4.2683789896842415 7.557395581125662 9.466112738489354
Mo 9.191572797117072 5.265860273480676 4.887197665592798
Mo 6.408129106767307 2.925684628974829 8.641268003070168
Mo 5.884989927869121 5.350960678903567 9.469227194396643
Mo 8.290603507141348 2.7643608935012414 3.9102051605321013
Mo 8.080399909494611 3.5585704579997817 6.569416379874162
Mo 8.16188081904119 4.750300490461009 10.250729528472505
Mo 5.339238371661571 9.534101237456017 5.888334710252641
Mo 5.830153295360275 6.707426800704824 2.807842967269277
Mo 5.802599731661404 7.6796368462183775 7.695412563159452
Mo 7.206761203684686 7.3433983238881675 5.444184178841852
Mo 8.235539567747564 5.972538947980915 7.944400505584419
Mo 7.318524382201127 7.582212338089616 10.120984857422561
Mo 6.194384614643616 8.962992823783893 3.6461455666500475
Mo 8.325899835615722 6.892337653341635 3.1845148326326833
Mo 6.019197776561081 10.137337808326526 8.602557093881373
Mo 10.677911697637185 5.141193118027239 7.103911549620545
Mo 9.271240215618542 3.46883330320631 8.609146871797202
Mo 9.281018327519675 7.021022447596271 10.392445711098727
Mo 7.788028898596291 9.876463182404754 6.002937811948465
Mo 8.76226496160722 9.209750796912166 3.9048154731071603
Mo 9.749110726346938 7.631204063962284 5.787983924872637
Mo 8.555064887079117 8.485099115349538 7.902065040707502
Mo 10.796884900136641 7.010704607664101 8.053461658996135
Mo 1.9149250212993472 7.258378992150715 3.8076343384718787
