43
Energy = -397.32836161 eV
Mo 6.244867678373862 11.09796960314614 6.806573265839006
Mo 4.230577663455135 9.927860241438198 5.45413542470077
Mo 8.201735959662255 9.386528123278401 8.196981730934727
Mo 6.094245706156413 10.65078729999418 8.870633374560507
Mo 8.39886324433311 9.193319964666426 5.671680298204173
Mo 2.295899068275561 9.67478023067481 3.7899719515607617
Mo 6.252842572206669 9.039699125680036 4.259257886150017
Mo 3.867806454886863 8.804103721221848 2.8940924589598542
Mo 10.654927885731167 8.287098038325613 4.6658140312205045
Mo 4.1142083397222855 9.46477094989556 7.993853587314191
Mo 8.625095737282113 7.610713374632853 3.4664554482948358
Mo 7.344047093122575 8.046640419242426 10.790784906963554
Mo 6.085554246639176 8.417701310796875 7.125123233677551
Mo 2.18103473406766 8.255969106678716 6.286835181417302
Mo 8.037231398852144 6.983497797387937 8.76443033644131
Mo 4.488081821681471 7.219398435181102 5.2407200254961985
Mo 9.871542948945345 7.564192755258495 6.8367060982346874
Mo 6.126275692058294 6.767273371452847 2.978263420254615
Mo 1.7669978235286354 7.14302402243924 4.366401775695923
Mo 5.249019846855305 7.419904392859217 9.567846876404644
Mo 7.383136988615721 6.599829532103949 5.472351956517621
Mo 3.5495678460537263 6.680266679296062 7.7059322475242515
Mo 7.078008410324324 5.969617349121965 11.25048891879545
Mo 5.992782106051445 5.611213165372369 7.554586622621287
Mo 9.995768914975837 5.9358862468060964 4.547476480282935
Mo 3.8420947449640335 5.92733404049956 3.132370863314736
Mo 5.186651332509536 4.6487739906036305 4.802773200237863
Mo 2.5605317485294172 5.388832465195364 5.8312120602209525
Mo 8.972853716617092 5.10052568423057 6.787163513299822
Mo 7.818085214425114 4.56352142715123 3.6405845855215624
Mo 5.062414384723337 5.101849515088827 9.853084633659481
Mo 7.6803993947409985 4.4740585101188355 9.13086690686416
Mo 4.142561989837976 3.8228910883867298 7.3217720523790435
Mo 5.981810956900367 4.368252090483958 2.154948966218653
Mo 7.043376054668552 3.439238092370167 6.220592576379731
Mo 3.296206508501371 3.0532286765990833 4.55411940127978
Mo 9.752197221882223 3.100281385754745 5.2122429739286
Mo 8.894694612273076 2.1826848433927357 7.956374904892389
Mo 6.053932643002177 2.776545572167269 8.506115120922344
Mo 8.33907610435041 1.9681969423829213 4.391165320956251
Mo 4.684122322099581 1.9175275862266818 5.894169547967485
Mo 5.83163968073722 2.4435431339395564 3.6873913330712207
Mo 7.636570010239505 0.9747709031015807 7.195829253785522
