41
Energy = -376.79638314 eV
Mo 2.7368473958081974 3.4357395627507348 10.108355663005387
Mo 5.91719842999513 3.5286119458462064 9.579141014947846
Mo 6.415769753438642 2.393175792639221 8.122957297903636
Mo 8.725882724570594 4.7077838713833104 10.097232511295296
Mo 3.3094090360044595 3.0432059530082265 8.403847771720866
Mo 4.089685781720413 5.740012761802545 9.90463725286504
Mo 6.523394503291837 6.327545895393143 9.660702487882922
Mo 5.046452990638933 5.1870347130766055 7.471290206871293
Mo 10.274111320154246 5.1414081018758235 8.960889767483934
Mo 3.2686389258408104 4.211125628176911 5.625585504409418
Mo 5.07459821398276 8.419514841535229 9.428253490874605
Mo 7.989019739735098 3.112109173550835 5.3865433977613755
Mo 8.690267717327405 7.042790890661362 8.556634904346035
Mo 2.5394870812865524 5.736694486540101 7.831818135497072
Mo 5.923340399891313 3.4523213849048187 5.553154736739459
Mo 7.791444014542401 4.652212015158613 7.660025055893364
Mo 9.766800424197852 5.551836436247084 6.269705710489363
Mo 6.32572643711596 7.444767210850461 7.35260877242793
Mo 9.50571777508347 4.7475250324441545 3.869821550688875
Mo 4.035417545356503 4.18357869077836 3.226927592565929
Mo 11.218651032904324 7.81175447604625 7.444110251534646
Mo 9.555936828452094 7.019707795138162 3.6880252977082972
Mo 4.786147810122639 6.308770665145681 4.666275755930385
Mo 6.8009203021992 4.589727673272085 3.2767360120155726
Mo 8.126121814689844 5.756061200380174 1.6390398982115353
Mo 2.9095063674299317 7.817070899909388 9.319409535761622
Mo 1.6762283173939254 4.594949362960711 3.7220149656327703
Mo 7.396606396835591 5.976585364949942 5.36426883039921
Mo 6.149132129783712 8.864295141668293 5.170488562598824
Mo 11.562324106590046 7.743863958189281 5.662557873929448
Mo 7.322313267240643 9.856491114727234 7.584577104297056
Mo 2.134476685295274 6.464983166956207 5.315137981768862
Mo 5.287706220911581 5.941081587839525 1.5814278625426776
Mo 3.806125400631067 7.7347566617636705 6.894226045587943
Mo 6.483936656183404 7.360672824879773 0.6725235370692764
Mo 2.782102896849911 6.455451052790756 2.838410635622985
Mo 3.625869222908988 8.899440116477171 4.401174101610645
Mo 8.760133271848002 8.056506421679028 5.924418223326322
Mo 5.395181420538872 10.188598860844804 7.240399086107015
Mo 7.121874023006451 7.435881240545928 3.257868781362776
Mo 4.621750663177772 8.536611070187552 2.7390318762875197
