44
Energy = -406.60620687 eV
Mo 8.648560015760088 3.960153344262341 4.696048964444422
Mo 6.170111856287204 8.061664171791458 3.339689137883448
Mo 1.4675580543970945 6.773915964583261 4.670007085884492
Mo 7.5955453711351675 10.795136914136306 6.866848757352169
Mo 8.857779160277177 6.253933128553261 9.424959320896207
Mo 3.999732040578668 3.9239736005558727 5.023881720100968
Mo 1.7088233650589542 4.531743055774692 6.531039300994499
Mo 4.714718022422888 10.419589070239587 5.97889939342178
Mo 6.201933325259105 3.1721854876035813 3.3827728446937493
Mo 6.349544219996786 10.187620417161561 4.30242596489469
Mo 4.065518580778031 8.772828300644376 8.013236401901725
Mo 8.569787855175706 3.902018955769293 2.6049217386864765
Mo 6.372962488139388 5.316234572443417 10.554245661106771
Mo 6.20527952440684 8.252468358205013 6.435971559005673
Mo 4.362995153562769 4.0839676408933965 7.6361403553720235
Mo 4.046594435750954 6.165864323145194 3.5656536977598603
Mo 2.1939973265679664 8.918199685354185 6.547087071249301
Mo 6.2296880157389944 7.6769428738848156 9.28948440738348
Mo 11.140815792165535 4.5487519009533965 6.500123054239485
Mo 8.373681590984823 8.661192371531463 5.009480464959098
Mo 10.846400501851406 7.09146873726529 7.6667254161496645
Mo 6.438575690496364 5.84122781756717 7.67642575366382
Mo 3.809609978001631 6.487724620334764 6.4598716624898875
Mo 8.855215244571472 6.499301910674641 6.327117892734736
Mo 6.290013700929827 10.48287477187569 8.267059393999347
Mo 6.3637996946293915 3.3753131990077567 5.971959274239425
Mo 4.091478255075349 8.43438118079172 4.713680022156226
Mo 1.6787510299850001 7.218802700685282 7.716729197371585
Mo 9.002967079213272 4.450413676752673 10.165969909176164
Mo 8.38124147144094 8.573150646126928 8.013605049553625
Mo 6.264920657387622 5.640954246714955 5.0585484018056945
Mo 8.447772890064035 4.007986953544931 7.527946839752217
Mo 10.254813062098105 9.082606540472668 6.619933563097343
Mo 6.244511662140965 5.415201998727901 2.369604213419534
Mo 8.358551789712546 6.492427355685587 3.4970209236828365
Mo 4.0693015218800355 6.449718611496302 9.288637499329218
Mo 3.989760631907112 3.752258833785492 2.700390694853437
Mo 1.564310153580807 5.226715575525271 3.675212735773034
Mo 10.717257858221698 5.530019062074968 3.764183022554971
Mo 10.968601294048838 7.181502411503753 4.728030952068661
Mo 6.606502728114399 3.4039469995543117 8.903502787352005
Mo 11.154650843650419 4.3534893808131905 8.325736232782598
Mo 2.0926268032255657 4.648508507565023 8.504553446648702
Mo 4.395014293768577 4.311920280237607 10.318291794672467
