43
Energy = -397.2628103 eV
Mo 9.674252899550478 4.418723331731474 4.781960083000908
Mo 9.931307089622551 2.6772600972381753 7.0130764771937955
Mo 7.457728876109295 3.434271093618032 3.4126756977908355
Mo 11.082013023702736 5.326412966971433 6.316797940011503
Mo 7.307094973433171 3.2428295302831103 5.8939630382284305
Mo 8.746329073836144 6.2571834886819335 2.7280042220001635
Mo 5.133947812409739 2.8868511265017656 2.786356831118538
Mo 6.93364927949578 5.29384293806374 2.0305006763527467
Mo 5.277922624951703 1.9860452419250063 4.755119801950089
Mo 10.567066611001389 3.571652585324536 8.540914726938498
Mo 9.680738249445655 7.23235713783463 5.4562726101264305
Mo 7.465619947574783 5.896040156778081 4.843599525257027
Mo 7.635585406790369 2.9454907759417863 8.725893293236796
Mo 8.805963491149084 5.307337804473393 7.340253140734876
Mo 5.270070985237414 2.415468248324 7.6431032283156854
Mo 10.22273411762496 7.826648340997219 7.80476888441775
Mo 5.112122698976337 4.6294072264331625 4.728254266156934
Mo 2.716412581453432 3.451192276137768 3.992284399622536
Mo 7.816430600948417 8.924944074797478 4.575543822228197
Mo 6.413617066791866 7.715544719730543 2.8601403874577804
Mo 4.101703082258483 6.241788272460268 2.5763142279886924
Mo 4.651330083412594 3.938963457159755 8.90603189446211
Mo 5.250059325132018 7.458096397904462 5.095669097499797
Mo 5.963642251464322 10.001076537067254 4.041693781276761
Mo 2.6961308108501236 5.685522789379394 4.663464430495198
Mo 3.2289311922292674 3.3047743061860264 6.201102476055055
Mo 7.381717427613908 7.621762568327756 7.043308192365378
Mo 7.8788023459135434 4.58439521207567 9.724013784592852
Mo 3.515391792794351 8.05279946304644 3.11619782499767
Mo 9.198416737628117 9.482333445345969 7.338547559666123
Mo 3.560802512931361 5.615437913459786 7.064867898534383
Mo 6.113818131785812 5.219659490973067 7.233115212447739
Mo 6.437078450330946 10.217280579723356 6.665367749464504
Mo 8.120057334765196 7.342243981119519 9.480400837354473
Mo 4.695097747113925 8.096868721842444 7.564081103299309
Mo 3.78432863999382 9.639129015478062 5.455960473897458
Mo 2.209156267318022 7.949358704888032 6.282575779501085
Mo 5.883439543393023 6.678570568832066 9.478801438793614
Mo 6.587110191822038 9.329827032411375 8.971260031100472
Mo 2.9015429951745744 7.1040663170576055 9.39358017719803
Mo 4.470558662740236 10.6889712689245 7.632979448056643
Mo 2.2185792210799997 9.313916521851725 7.840962982910889
Mo 4.009629294600126 8.488357961359963 10.179974467228556
