43
Energy = -397.48950095 eV
Mo 7.7775076890165655 8.163586888420834 10.710273554177812
Mo 10.120774960066008 7.310777687503566 5.61645711236773
Mo 10.228743223716393 5.4243892569489764 7.165488056691975
Mo 9.290909157213573 8.098857132981282 8.105979772304096
Mo 9.096139982052858 5.7848677142620595 9.342713529599456
Mo 9.998239565399965 2.8070146348883265 7.489846414761248
Mo 8.476353348075703 3.0392843330266346 10.038604445432615
Mo 6.271349454150323 7.703411124369184 11.699346909458718
Mo 6.945728074500982 5.385850832391709 10.339101823608416
Mo 7.467581431831895 9.561375726696586 8.009337087313915
Mo 8.616818383743757 9.30148702559465 5.583533459873375
Mo 9.431028981345934 6.246918830061379 3.3947694849802503
Mo 9.272685666965133 8.791494924129982 3.2501343915158745
Mo 5.267784604448707 9.017149459740475 9.489518425073534
Mo 9.491188146004466 4.391440360804291 5.157807897896347
Mo 7.728402525955825 6.440601730868855 5.767922997777969
Mo 6.854077529139579 7.057610322675054 8.125790750118112
Mo 7.713244266978923 4.260521257853069 7.660480339887445
Mo 7.612977967329899 1.6965375946073025 8.904721196772211
Mo 5.708362076455497 3.538722782793128 9.091923261176525
Mo 8.615048634751798 1.8747810369376134 6.349808346355407
Mo 5.496718046217053 2.5010073847496628 6.756779747491951
Mo 5.238113059752417 5.066259560494572 6.753192257812718
Mo 4.7476155131067905 6.327963949784386 9.476297679329425
Mo 6.743633717523609 11.517336830881979 5.843518992324079
Mo 7.173835639578059 8.03066792514774 3.4114288011112524
Mo 7.121492144301331 10.843078738143777 4.033617875712249
Mo 6.042943144116169 8.798671449594009 5.840145289850114
Mo 4.623373097231797 10.018818051219846 7.679885781312742
Mo 7.062743190685403 3.4784570614741774 5.103852878494913
Mo 7.105428450629717 5.457890742319619 3.5171671483194404
Mo 4.070041395803848 7.572211760529 7.436488327997332
Mo 4.8458793370785855 6.774433411186065 4.575748031553395
Mo 4.718272351398199 6.255620452751697 2.2200892338310596
Mo 2.817883133275189 5.849750593563487 5.605768147929581
Mo 3.499738282981808 4.569830988457397 8.244461428022507
Mo 4.37437632371871 10.816987087737314 4.880316761468034
Mo 4.7243214693278475 9.331335059491119 3.3828040357664446
Mo 2.8344842105003356 8.70349397738988 5.431832211469208
Mo 3.191455522343089 3.274975773182818 5.933657957051067
Mo 4.6179166552439295 3.9914944966649415 4.270746413250622
Mo 2.8978557359347907 5.351246084195293 3.089018665712795
Mo 2.4069416466037077 7.965616525872216 3.569746692219679
