40
Energy = -368.28133283 eV
Mo 2.302391732985529 5.833105285046606 1.943997098234306
Mo 3.6940104607137627 3.3209392715896398 1.4556698177144978
Mo 7.782588448111992 6.385470104759977 2.1237089350826612
Mo 5.344945807799969 5.5910886222592975 2.004315399880911
Mo 6.721772941073041 8.174640527898708 2.5253750014304788
Mo 3.980624194874832 7.7467126203136605 3.06332936969837
Mo 8.63140877412895 6.988973750581545 4.411900866407976
Mo 5.383060311200481 2.6938885442256217 2.2001426828413955
Mo 6.936655758611827 4.3608138129516085 3.8285246551925702
Mo 1.6106760024271938 6.04747719081289 3.616123890846636
Mo 9.62520346918451 4.431052828287532 4.637243255580076
Mo 4.765419026486089 8.990446193497103 4.607202697138421
Mo 6.098592472788165 6.589382478591884 4.528232528516064
Mo 7.44690863116235 8.965695983447803 5.44253829181399
Mo 4.016134073194684 4.741466089395371 3.9500358529367383
Mo 3.529338320502753 6.974295868996117 5.599505741404131
Mo 5.331483648820797 2.377699347413859 4.859411720936948
Mo 7.5943721586346005 2.8199873400437334 6.210035273068992
Mo 3.0689485334529985 2.5806680564374544 3.9421479261253247
Mo 10.616630959206166 5.703142722554689 5.695657605067324
Mo 10.136984615994296 3.565425922787769 7.440405342994869
Mo 5.2119185826172805 4.519806438719219 6.341346847984609
Mo 5.412312255614853 10.10032334122499 6.917668049326422
Mo 5.929532238066428 7.436240003795133 7.118646097553915
Mo 2.5352226579242783 4.564525227166758 6.24138886032815
Mo 3.355936942562292 2.3231842465002592 6.717393367535085
Mo 7.833941782031882 5.398206278693752 6.6504603865635845
Mo 6.0179180594530735 2.2608128514833714 7.753351959398944
Mo 3.6508182863821586 8.745631496421764 7.570692885470414
Mo 8.726743058170781 7.804618718260095 6.985267091552546
Mo 10.116373660826001 5.23645655735911 8.406157028327028
Mo 7.80686283694377 3.693896859740226 8.78830173925343
Mo 3.5025340218241716 5.991911307835339 8.000176844862228
Mo 7.141534645146489 8.821262720573516 8.967597780313568
Mo 5.873364800650042 5.007458581668822 8.8908499562362
Mo 3.707902530047209 3.3417508213669476 8.540213898195853
Mo 4.679334050820137 10.0884949879429 9.624343237356587
Mo 5.093227275740919 7.549820293587216 9.556202765441842
Mo 7.803761776414223 6.472556870044158 9.24977421938476
Mo 6.357043324389683 11.135102962703526 8.969096158982296
