45
Energy = -416.02345384 eV
Mo 9.558416789776759 4.6467527287151 8.547754319922653
Mo 7.29219576739015 3.1945069650638462 7.885614194761515
Mo 8.073943038938623 5.35586282442165 10.048192054351386
Mo 6.470299793447393 1.8335759108958352 2.821226782528889
Mo 7.0882830035329745 3.0087959906048187 5.049247157141931
Mo 5.418013593149396 3.7656729261466846 9.483856913550946
Mo 10.543525946227154 6.884950642601996 9.120896055950675
Mo 5.313460523385998 0.8660395437592643 4.135372150925065
Mo 8.89074237392689 4.408932601889534 3.8976109346795464
Mo 5.551027096276696 1.9695395324769038 6.840402082784338
Mo 9.948804938795742 7.097735889488346 6.998337614593114
Mo 6.835997162436325 5.852128977796155 7.9768544794479785
Mo 8.284077042567374 7.891602051424185 9.271878584035383
Mo 3.8705557608954613 2.290771880061064 1.8370858508143495
Mo 6.068055570885086 7.13006192326237 10.470678695580485
Mo 8.619651605743472 4.985944746310057 6.200385967172095
Mo 3.1183325528470376 2.0730273650044273 5.952131405426723
Mo 4.875234043242093 4.394696913972152 6.677290507992205
Mo 6.844633860252564 4.733507347214102 2.583960284712369
Mo 6.471806102341583 5.763944703663413 4.979047013383535
Mo 9.616153259009655 9.399260790737781 7.772050678165154
Mo 2.5478516476508823 1.8912428558039303 3.192644465039521
Mo 8.523139119021014 6.979165380075393 4.144753238985567
Mo 4.396107359098481 5.930872162696464 9.15657310969622
Mo 9.415383224922405 9.421539820030791 5.022500571187376
Mo 7.4381662185232935 8.151516708266705 6.523424056216155
Mo 4.650208927784119 3.4425685512056226 4.1860050162201645
Mo 2.170279056978794 3.977860613708192 5.501401313643618
Mo 6.618035532890567 7.076270512950971 2.430793120124424
Mo 5.6530484794763876 8.53561900109621 8.653348443958725
Mo 4.439372630895317 7.2895898495057425 6.78821674203108
Mo 3.39363127117494 3.329206433250409 8.380247948176585
Mo 2.42954257558383 4.67435983182993 2.7676434798632714
Mo 3.6281830602148584 6.116101217607397 4.56807677094285
Mo 7.471579880965893 10.444972043588002 8.516769212445725
Mo 7.687968074968245 9.542566467538284 4.006331726681443
Mo 7.695286257113718 11.12572366607292 6.4070338626105245
Mo 4.481694076303355 4.972352427742393 1.8954117013689533
Mo 5.438549274535748 8.056501662736045 4.329707292340625
Mo 2.5340477423288412 5.563870879195273 7.47294030811523
Mo 1.767312384380815 7.37802879545644 5.712650245739808
Mo 5.691489655234194 9.953055266613962 6.36143940231528
Mo 3.4269504346989184 7.4763893976074725 2.284520412164067
Mo 3.162131029936424 8.919793678542527 5.176913538537189
Mo 1.6115137643884532 7.228202025508424 2.9954617978142877
