43
Energy = -395.55565652 eV
Mo 7.827240520020481 2.706135850275382 2.944051336665757
Mo 5.883502175278402 1.5850037680586777 4.7879803483226535
Mo 9.388636342237751 3.7689998965690585 3.930648783827213
Mo 5.784153574436495 4.068740688826814 4.292103639073506
Mo 3.7774761287144405 0.8793568908920157 5.690012744845572
Mo 8.021303493327123 3.1242916544994603 5.759129563160286
Mo 3.3823357791641957 2.79926452156823 4.892180984570524
Mo 5.487958836947221 2.8276204821288573 6.885197600016018
Mo 9.608840676184444 4.733207610786668 6.968135583812326
Mo 10.655108711288527 6.159617666677642 5.407191057516749
Mo 7.276751699790352 5.176941618554625 2.569188423329781
Mo 7.578970979222829 3.518781341148332 8.771712624811627
Mo 5.067578012495774 6.257727364558353 2.2021380603651535
Mo 3.32928910434849 5.126450692953176 3.643231533963934
Mo 6.69895192958943 5.133450625751949 6.690057193400887
Mo 5.554508969151755 6.815020734712122 4.538126441795411
Mo 3.189449539726487 3.050728621804128 7.39701483852292
Mo 10.987549303387192 6.8918632862396025 8.173091992038351
Mo 8.166674438772452 6.073429373467224 4.686669534490427
Mo 8.829369875156278 4.909230513642501 9.424533526145844
Mo 7.0126476335130254 8.158059502077553 2.8990179937966096
Mo 4.71918647872049 4.800228883831355 8.543769041020182
Mo 8.371938395182013 7.088374052922851 7.354636629877882
Mo 3.7642860580221136 5.54155212473441 6.0857912806544645
Mo 11.930523690125002 7.961053739271977 6.74648699642286
Mo 5.722065829901305 9.54236985042732 3.725458594421212
Mo 9.545328457581125 8.478464141394403 5.081813623797441
Mo 1.8219601497761533 5.448820689575865 8.017092934270316
Mo 6.560817328511446 6.252505583187248 9.375838919646236
Mo 3.2566466583155425 7.887393626725373 3.116157002892534
Mo 1.7525291830124754 6.713693179687969 4.375394620769507
Mo 8.490469434384025 7.903895805043304 9.627376439166555
Mo 5.52696325109124 7.578656465378266 7.320766863459668
Mo 9.84784679749938 9.320471879929125 7.183502279469391
Mo 7.2050659228800145 8.935098949397778 5.684423265028066
Mo 3.732141727793931 8.416674083919967 5.41832283913648
Mo 3.5204440164141215 6.7486037248452275 9.34106596961216
Mo 1.7680972003239468 7.223895153199132 7.111594591940787
Mo 5.709644593317972 8.613533961797176 9.816406389304328
Mo 7.375822714724586 9.623635694833778 8.248615418537023
Mo 5.238758227049798 10.527440953300756 6.683296823070472
Mo 3.6537208511444366 8.920569161731441 8.162968180097627
Mo 5.190256099719574 10.97333434947438 8.728668479754148
