44
Energy = -406.80154191 eV
Mo 9.825620631615609 8.107780853312088 9.836895073213007
Mo 8.100672352935858 9.176759046866529 10.19211269936135
Mo 3.5312917617012314 7.276756279448121 10.787788823516983
Mo 5.266432285950595 8.083375197853963 10.747653627933198
Mo 3.6237308247512727 4.6147890212483125 8.968567560965171
Mo 7.356580801316717 7.07955596370588 8.93654061668619
Mo 9.581482747367005 5.718390234156331 8.601341593177006
Mo 5.785192700776836 5.4732158596149985 9.828257187635813
Mo 7.549010508615587 4.273535541620199 8.322071583856534
Mo 5.386405763275411 2.837110539505031 8.557909725136183
Mo 9.494093823810436 3.6636371365180023 6.503854563180087
Mo 6.643222002153773 2.5512780507117276 6.414212145103867
Mo 3.255621480660389 9.497895884144592 8.83909081928508
Mo 2.012228730128628 6.679471408223022 8.573022780809666
Mo 10.268308915146676 7.98567995771955 7.229121716826824
Mo 5.7694924635406775 9.714569419465478 8.48096719789913
Mo 8.523645426768311 9.311411663374043 7.611930327520034
Mo 1.6977439500874252 4.188943812003942 7.537576600331667
Mo 4.442206517715845 7.245198310038326 8.186629182579727
Mo 6.286762983020111 8.142184571563275 6.530201780663492
Mo 4.067986838810335 3.388512842839702 6.4964609065680134
Mo 8.39352348241772 6.348742134196225 6.409629011802944
Mo 5.643345667686392 5.298185623148367 6.83637445342569
Mo 6.701825209650207 10.669304454026175 5.631305895196768
Mo 2.6477629988662783 5.814664424849646 6.360395397483221
Mo 8.277626695996041 1.7489959606331047 4.414442662255735
Mo 10.828682931816626 5.27533124443852 6.260750780009679
Mo 2.3225009312483107 8.76272953569545 7.018948381492398
Mo 5.472644715849596 2.5496974740005243 4.147784008320358
Mo 7.325912307890701 4.353648190631673 4.813658846706741
Mo 4.552487192593547 10.166442557592244 6.321150410917256
Mo 8.413153024717772 8.933906823265003 5.1671025100920405
Mo 7.1959193593165445 2.6296737397367718 2.5941921400714922
Mo 5.725090314092612 9.125238052241901 3.8117532337136897
Mo 4.447340054771522 4.9667726161196075 4.3913806875632675
Mo 6.6731497080955515 6.816994403935612 4.1425911221077465
Mo 4.160546439687058 7.62398116823365 5.326622832824919
Mo 9.659570842347874 3.6341732830882423 4.021365273900733
Mo 5.549176269483629 5.109763812258924 2.1830177155750126
Mo 9.252775252705149 6.612119891415415 3.7838820405906994
Mo 8.33739013231673 5.087046392222629 2.380783966627769
Mo 8.22164492560073 8.93560689105342 2.6380298631106833
Mo 4.5523039864912604 6.939975441100626 2.4502200486638057
Mo 7.226062092099149 7.52481136988182 1.625384844333669
