45
Energy = -417.51066502 eV
Mo 8.029050282927207 8.253114853357951 2.743386737362853
Mo 8.667052492190516 6.136009443773047 3.6391864971391965
Mo 9.913159474791057 3.3256527622185446 3.8214963934768513
Mo 6.401406290587103 6.307196321162256 1.8866968821882595
Mo 7.911562476831103 4.266435928856512 2.1503169293969995
Mo 8.664674222444273 8.393654410429452 5.2214166504609665
Mo 10.228453139010652 5.372517324102644 5.6713653845060055
Mo 6.952490873489535 9.88881512198956 5.1309593010478185
Mo 5.666761771711447 8.98338931257519 2.9321757216026203
Mo 4.143832608009203 7.2051070102107575 2.7567772131029273
Mo 3.926780105176304 4.76934276750294 1.0555976006356067
Mo 6.333530740431534 7.032729055971015 4.739337316273524
Mo 7.617354662776599 4.110017284656859 5.021879255292081
Mo 9.18036026423871 1.6818386319821204 4.802814960100526
Mo 7.088624706688579 2.354735516549374 3.216626534699521
Mo 5.405333745446959 4.80655837508693 3.5767464094584023
Mo 6.593001580740531 8.668700144903683 7.106244153801321
Mo 4.525210444682117 9.747967926867215 7.578388175733973
Mo 2.066775806048881 8.410085088228737 4.190244656383616
Mo 8.224831591102221 6.159475393937756 6.734248171197759
Mo 1.8791378963651788 5.7101472464972085 2.9489582891863244
Mo 9.490141021282955 3.501449899652892 6.7392572299275075
Mo 4.378926977288047 8.776417605699997 5.186381096872663
Mo 3.0666070554655267 3.753823059597443 3.45963445839416
Mo 8.683193089501449 7.526331723791569 8.945620974615798
Mo 3.317161604926908 5.97595693967097 5.033322616220866
Mo 6.890301972723146 1.7924937078442686 6.256129560569301
Mo 5.272092440392325 3.5079270247312486 1.165886364050716
Mo 1.9229995520373906 8.156808124647746 6.2454117441702
Mo 7.197112407168967 3.89907686892487 7.877069875928861
Mo 0.3998083667053596 6.097729668201212 5.116679862162379
Mo 5.405724058879571 8.468151999205373 9.655579335810522
Mo 8.732419011133683 5.680659501999892 9.517566605589117
Mo 5.1437049134173884 2.38588089076685 4.86486180489477
Mo 5.310084832324199 4.831553392918676 6.420192268697348
Mo 0.9537209443953535 4.2116300116694125 5.187561219913518
Mo 6.233598110810925 6.3049256162458205 8.648409585988638
Mo 3.302432039333933 3.3402622181806483 6.3459113514859355
Mo 4.125987138085025 7.2430148958736185 7.460966197878652
Mo 5.130484344943033 2.372090789146574 7.894351210595439
Mo 6.5310652098003645 6.549919430439141 11.393535990869
Mo 2.328606485661125 5.344507406680309 7.380092675500358
Mo 6.216184038916517 4.762128682802303 10.827141083597988
Mo 3.9224001104877617 6.785565546866299 10.054878557863574
Mo 4.160828410126795 4.573838501466684 8.902864554525406
