44
Energy = -407.92174494 eV
Mo 1.240612296918984 6.884970633836923 7.118566596012219
Mo 2.1986483431312243 4.717594688180905 5.007512882853489
Mo 2.125752025989048 8.667738914323065 6.82936539571056
Mo 3.402504790678089 7.107573647706483 8.683020516848837
Mo 4.82864048988015 9.284427640407317 8.479370972146592
Mo 2.9566656629369454 4.610119434281428 7.475861421405906
Mo 5.4531166875379204 7.6519681539496585 10.570366116331032
Mo 4.730635155121857 5.121885428683968 9.24334657826592
Mo 4.719820027529902 2.3226222911256516 8.432302659486
Mo 6.885339177792104 5.962566683831105 10.193456578867863
Mo 1.8018762256709064 7.084796014397551 4.349313660873244
Mo 6.659334353138208 3.418875490824148 8.948140979016427
Mo 3.814001444953427 2.754866725693241 6.178540096226693
Mo 9.445440700074752 4.673907257439715 9.419376909546335
Mo 3.844650361245478 6.5965313802016 5.973497622556962
Mo 3.197971609926904 9.228110791587131 4.500592594281347
Mo 5.191606598822137 8.981400823919634 5.9957293011952775
Mo 6.894781351744549 10.38125461077259 7.743656636626935
Mo 5.84066179693908 6.985280707780645 7.753147726858913
Mo 2.898585516596918 5.740603040521777 2.6651018051416453
Mo 7.456499580033196 8.389983291221098 9.065032146795039
Mo 5.6568150113070566 4.386246442285538 6.714967253154547
Mo 9.51687183203714 6.541390611065189 9.884236140825154
Mo 4.455895828468425 7.473937072068489 3.4427743117500484
Mo 4.5770405523397235 4.62976499283217 4.183710571556393
Mo 6.490638872325478 1.537132820972745 6.612517629553658
Mo 6.836763733224702 10.872296964334488 4.9526099283964795
Mo 6.610255486370863 6.8010671923341235 4.890332058025296
Mo 8.15400847468364 5.7509513482893695 7.405631485524151
Mo 7.9788703780330055 8.553288356967103 6.468641193219854
Mo 5.845688069213482 10.207156672014868 3.4769780423339594
Mo 10.094177497760418 7.044649859844453 7.273984959238824
Mo 6.094869770647041 5.316350655562338 2.125503442661201
Mo 5.863605354734357 2.158257965799409 4.665371877206921
Mo 7.509360921279414 4.474907084583393 4.770984841441604
Mo 8.361503242343403 8.83919060573941 3.8452439718530096
Mo 9.4726777879722 6.721211225217511 4.990082262978048
Mo 6.995844940889186 7.968299202557658 2.3669309578994584
Mo 8.42328101375443 3.075602346724293 7.01602789275032
Mo 6.798166993467991 3.5066039488508953 2.3725469679884776
Mo 9.973653818822632 4.374342736388056 5.773921156773858
Mo 8.532455201058776 6.067848695808958 2.8713855839886744
Mo 8.73731610906971 2.0474463918103547 4.473094475715665
Mo 9.649843169368937 3.403157153789521 3.386156300249402
