45
Energy = -416.85649662 eV
Mo 3.787156982784067 6.3858165851841475 10.66668445208839
Mo 5.767891288152467 7.9261895679940615 9.245723397157256
Mo 6.673867094722866 6.1175304229909075 10.875049058239306
Mo 5.254236077143897 3.9243460123101617 11.689513848045333
Mo 3.63454016020663 10.249605887311665 4.659610407532227
Mo 8.019673641540173 7.646068260897907 8.777133406458429
Mo 4.8363627593901475 8.91068639132722 6.903679918376896
Mo 7.283342214025975 9.223469639848009 6.957242645520414
Mo 3.651417962063023 6.553682477652127 8.096721138977966
Mo 3.0893984677812756 4.606838437821391 10.12380535804519
Mo 6.3899109597655706 9.856390665866394 4.5971098181855385
Mo 2.661216382722863 7.798514073917819 5.756363137140824
Mo 5.682963321744906 5.080587562367681 8.955511629863008
Mo 6.210190273192121 6.752272190403623 6.755727046238682
Mo 9.388185121408307 9.721553406663153 4.812020155899885
Mo 8.500726387274074 5.145199276261018 9.565911714960619
Mo 5.462836952626297 9.646868781251419 2.349184392737993
Mo 2.727174960717798 9.260754647167072 3.2695297091544684
Mo 6.859153223345582 3.2675045869143062 10.914888789205468
Mo 2.184829192800968 3.8086754325242054 4.7287922809753145
Mo 4.718070930958847 2.3019787658405813 9.080610871221262
Mo 9.237780400296918 7.524826870104896 6.5048173711441395
Mo 2.2868496736234647 6.431877812068277 3.753444987737046
Mo 3.299842733711463 3.9670115460861903 7.4454962654726495
Mo 4.889536296777478 7.678205070742251 4.36394763492595
Mo 4.007804116293103 5.593374095431149 5.72437460762175
Mo 7.7814067346757545 9.028198776091262 2.4651041718218227
Mo 7.609077921033896 7.480810561133409 4.619179610971148
Mo 10.236431810614203 8.314078272802872 3.9192163318250373
Mo 5.868510450291164 3.790264926370085 6.600606996618173
Mo 8.200475606129448 5.22300788247178 7.234878597826913
Mo 6.560574819494743 6.970862802356563 2.1212374540352683
Mo 4.237606931200811 7.555501479241107 1.846354637676253
Mo 7.29821599600194 2.87719022609442 8.24011827351521
Mo 6.5721312259310904 4.9293589301351375 4.2881929991862435
Mo 4.6614669030169935 1.4739621292852005 7.319472962941862
Mo 3.9013712618221037 2.9076983665195044 4.701022209633056
Mo 9.666580454388392 5.497198988632133 4.706455805630752
Mo 4.147960194494603 5.192582379382322 3.005939091043199
Mo 8.849194075708573 5.811139771727045 2.752304826353971
Mo 8.610499155084305 3.0484308422317112 5.545617758202499
Mo 6.42293369598311 4.407963577318819 1.4270818867073516
Mo 6.633552236172326 2.011022466554579 5.072196909706848
Mo 5.919303716176796 2.869192084802929 2.472781104081653
Mo 8.418622463921196 3.3682842290773203 3.2651383173130295
