44
Energy = -406.97810344 eV
Mo 2.7384344781188834 5.151958217231662 0.6850908779470244
Mo 2.542928704511303 5.633803115090756 5.869041253605126
Mo 4.3876082180454254 3.590834644255578 2.530580911249974
Mo 2.5150005291736033 4.4218929257213295 3.3567220989297777
Mo 2.9220944334933603 9.208836931831316 7.872548490216986
Mo 4.542156283502575 5.159633860515423 0.15104927001079296
Mo 2.426434883736656 6.897421904993359 2.8400688535774865
Mo 3.20532380786289 6.285845323672731 8.126524669631188
Mo 4.142148531312511 3.1463198335870377 5.030703438299536
Mo 4.690370849882111 5.973608600355314 4.10287590519883
Mo 2.3408579390177473 7.916314077717918 5.428355080749751
Mo 2.6134297725813274 3.3275339756718645 7.3722329990653375
Mo 6.734964469345818 4.141370088868754 4.353342160435279
Mo 5.0207697584306095 8.045284072577578 9.315614808463328
Mo 5.838028477098757 6.219469211584727 10.972229877242288
Mo 6.283516947190043 5.577163244325181 2.1362644178100507
Mo 4.165010372339862 7.4345245652958685 1.6702530689351405
Mo 4.068050068990958 2.1878832961391357 7.894098777410572
Mo 4.690366180002915 7.5154066797542045 6.43915301843495
Mo 4.4329885081362255 10.135124101691309 7.23828064749321
Mo 5.0724031190640915 4.671527605691583 6.721644886951126
Mo 4.485045496040646 4.48377743955102 9.463144922663423
Mo 4.269656172833151 8.683124592727976 4.045079767811121
Mo 6.515402973330444 7.9015867787105005 3.2769006052536205
Mo 6.382351807821341 6.100351567658683 8.33282631564574
Mo 6.22198269271856 2.449197514987504 6.2394988228929975
Mo 6.437176963865197 3.4561579482739524 9.008613351115686
Mo 7.416877334179206 8.359267158598094 10.846424439750642
Mo 7.112006896076845 6.684959448378607 5.603441727656443
Mo 6.900654102875943 8.708935323067141 7.986134752812516
Mo 8.04309403187249 4.248815690529873 6.915281781057335
Mo 8.002076145328328 5.587037409654834 10.185502995102228
Mo 6.523650612385588 9.246152180943737 5.401425598696668
Mo 8.373233861694885 5.936133366886639 3.45799419250966
Mo 8.903340829645224 6.737797758743411 7.797552732957523
Mo 9.137721086486188 8.464628006574358 4.283502775671053
Mo 9.138457945211341 3.7197135173773312 4.969057789105335
Mo 9.19411162296757 3.2555184755402777 9.28735219795996
Mo 9.052623462290418 8.194274219775258 9.921602213398518
Mo 10.289965799356422 4.4483983772718485 8.322451932488157
Mo 11.801182804501925 8.271560791675984 5.641198825189272
Mo 9.114814622809986 8.960508795065229 6.269851452566224
Mo 11.595254747831149 7.482006345964326 7.256838359947701
Mo 9.84760719363092 6.10951655306375 5.51282247368152
