45
Energy = -417.59801938 eV
Mo 10.646988764811608 4.215168789252152 5.968865264134635
Mo 9.078046931822186 2.5083336408351724 7.371085968967076
Mo 8.886800144118723 2.4024778029151883 4.349262996356439
Mo 8.095400192908432 4.092521466723982 8.953011655091016
Mo 10.121707509530152 5.3097890440469975 7.590791980364983
Mo 6.780442164224422 2.0633560155005033 8.640891586016066
Mo 8.89801352092947 4.1930415349141015 3.551746503533337
Mo 9.289198905782072 6.497777851925382 5.322748335416557
Mo 6.448638508271807 2.0239867663821407 6.128313131179481
Mo 7.428906151173153 7.134509720082929 10.027822613080493
Mo 7.8722288210302365 4.21442028811013 6.151217761554904
Mo 7.426333460321182 6.579720963252902 7.691446245348836
Mo 9.284422197347329 9.277280264916824 4.877292111278012
Mo 6.043297595579935 5.210283168046644 10.085317070167775
Mo 6.319068348217545 3.26792936244788 3.885536724973283
Mo 9.485571463082694 8.406655584232995 6.826362607654941
Mo 4.494086354577538 2.7026233101981356 9.396640617086163
Mo 8.198789829672418 7.280752506638577 3.127512313655872
Mo 6.5262070742507525 5.770433996690573 4.586731327625409
Mo 5.6757220713137775 4.32593040529216 7.67580785901469
Mo 4.284009790863901 1.8098789355682516 7.247640177743608
Mo 6.705720038010231 5.272825691459334 1.8414406845983624
Mo 7.43307659089638 10.666116399363577 6.10263958452895
Mo 4.83419652527239 5.086507578343928 2.3812840501007346
Mo 3.8541528016235937 2.019170612041712 4.37367557866388
Mo 4.321394034708729 4.375053237807952 5.475888439955355
Mo 5.306889497734036 7.8740053751157655 9.296702628714367
Mo 7.244173302856488 9.523927554509283 2.9736946698849014
Mo 2.886848085674753 3.9559579391952777 7.808415912023124
Mo 6.890420056401098 8.210873596167827 5.449244448445932
Mo 7.218547399757019 9.426456668548143 7.975511969397449
Mo 5.662133237632183 7.893949085248999 2.4729264585609614
Mo 3.754160286632531 5.8539790663226166 9.046060610262703
Mo 2.364508811685996 5.124198326032844 3.854323372893994
Mo 4.874347090697702 6.8626783736981825 6.921751424921999
Mo 4.198225309553792 7.062159524902928 4.370460148101074
Mo 2.7837117810754437 7.326523396746012 1.9043082277363501
Mo 2.298806855418608 2.6212201732757308 5.3775615119655455
Mo 2.4605095367779097 7.84078587531935 8.130738839055486
Mo 2.262529882465038 6.067303509603142 6.488712731189239
Mo 5.2725997131293685 9.801594040283591 4.585303720722532
Mo 4.948885671447994 9.424314730434327 7.153063814391405
Mo 3.0994004495833543 9.010347739721857 2.6805786040436947
Mo 1.384218872954592 7.073979120708876 4.285293123090941
Mo 2.8985653698434484 8.636785279637484 5.811688868275701
