44
Energy = -407.37769981 eV
Mo 3.5930772041712755 5.069283009407417 2.1839166117761963
Mo 2.646662242888537 2.1335777570825623 2.5954788296386266
Mo 5.068858332505012 2.761484561509409 2.225893436587409
Mo 6.097999041462939 4.916634875523372 2.7786588428866854
Mo 1.337700299066886 4.582064686120664 3.0418695069082737
Mo 5.229420345829085 7.378692117151078 1.6794759955855734
Mo 7.205463205778555 7.062336094025416 3.750140902224273
Mo 2.3608962101039954 7.584312041622476 2.548413460927785
Mo 8.252450663793711 4.11316274430933 3.691474266433319
Mo 3.7817719458581456 4.089189901509691 4.4150617948723525
Mo 6.071888991845012 2.5231539854960072 4.423360587755272
Mo 7.330561465029134 9.366649034613046 4.761096294091882
Mo 5.463609377495156 8.974803192736363 2.7685313029476495
Mo 1.4820068091898206 3.145144567611847 5.0431642065465905
Mo 9.786227930980695 7.785842991831965 4.429794815268272
Mo 3.4754214565278594 1.3956850382543526 4.299371793614146
Mo 2.439598050391358 8.850542615374398 3.8940072236506644
Mo 6.206931334468269 4.794717934137633 5.486611550195927
Mo 1.8978805974869948 6.048827255153014 4.83709080055095
Mo 6.502960829323347 7.544987562095776 6.364268109521764
Mo 10.8283458837491 4.887235169858888 4.684022788162182
Mo 4.485645964615679 6.931228891609986 4.362972391947908
Mo 10.718841579801833 7.475948798701638 6.0997932204319385
Mo 8.538761624725181 5.805108977483062 5.934088505242121
Mo 4.187942089894698 2.9297101706446766 6.8507817011667465
Mo 10.955492558894644 4.550456487298634 6.5438939220801435
Mo 8.628362634165926 9.174688997531694 6.821166248408262
Mo 4.740721443854947 9.178090916907777 5.564375618235308
Mo 8.650823113870375 3.14112646889255 5.726818643868369
Mo 4.200939940489714 5.7305857747089615 6.824089779689407
Mo 6.69302400891219 10.089467350564206 7.589765902566551
Mo 2.097660795312785 4.479965702797365 6.87894742313176
Mo 2.8635269191768495 7.818456403122757 6.607604926483183
Mo 6.437481667376833 5.767701902408393 8.340205443056833
Mo 9.057768660730638 6.891446100418579 8.279647232436346
Mo 7.018997786250842 8.285822892157851 9.08730997723074
Mo 6.850584820791248 3.1618779697276955 7.448754625735618
Mo 4.606684622744038 8.132922608586659 8.273161244642365
Mo 8.809249861662112 4.415750995120567 8.428706366920126
Mo 4.706766708610461 3.7717617757466466 8.826704268970401
Mo 3.4950464259448455 6.21900810335346 9.444128063459095
Mo 5.21786666924558 6.323588848315617 10.537360806615249
Mo 8.074280371199599 5.999705685855376 10.63366751250644
Mo 7.317513511793567 4.13096704062908 10.408069053037051
