40
Energy = -369.04657767 eV
Mo 8.059489659728563 10.770377078790007 5.479341644713391
Mo 5.483632648810235 11.648938696324297 5.089122895034103
Mo 6.975760414799952 9.601239789519271 3.3871100859908907
Mo 8.946040553727794 8.548191987518933 6.663089904008841
Mo 8.600392776625796 7.973659276460891 4.235200936366549
Mo 4.397498633182193 10.404736812708991 4.2021729975901305
Mo 7.23721855781601 10.582999391616283 7.2990882659482486
Mo 6.286255769494829 8.47082283431652 5.680385398379648
Mo 7.466620561936687 6.946869664215162 2.3581257294828664
Mo 4.540140660009637 9.866024956410728 6.9911877440303405
Mo 9.930550194885008 6.6031739687794895 8.65677994547989
Mo 9.190111001714767 5.202916093027637 3.3282923645571296
Mo 9.396327568750023 6.026756297156801 5.863690876748779
Mo 5.287585185726012 7.744759792800639 3.3454338996019084
Mo 8.835212382630747 8.575547001335881 9.126374466625439
Mo 3.5801281308558734 8.078794361552747 5.482098043834079
Mo 5.910667957521506 8.218955196137442 8.590590922667982
Mo 7.001564028255809 4.050670314621801 1.995192268082084
Mo 6.729413411848502 5.944993251456157 4.694296144458275
Mo 7.534307902089155 6.465404635993946 7.465669496618208
Mo 4.730781993960161 6.301661222952138 6.995342576264961
Mo 7.582186141038648 7.06143848569163 10.328720738249778
Mo 5.434018252256332 5.109228266432978 2.044412511864745
Mo 4.289114698196807 6.933367151470793 9.858772641348217
Mo 3.124979107120633 8.008577484182453 8.049474728266471
Mo 8.399812620791371 3.6935693881955025 4.54284763324996
Mo 4.085889790385762 5.719172822849907 4.474360672699264
Mo 8.84805740183299 3.9072144601459144 7.187925507523309
Mo 8.349529395972752 4.896883923622995 9.416575057028927
Mo 1.8932550242515742 5.883855355567968 6.594758604529662
Mo 6.378841626205323 4.025205754093589 6.780068433770158
Mo 5.773946625407132 5.126613655064011 9.257894333545016
Mo 2.458929811834169 5.262447354051377 8.437031756043359
Mo 5.672952796814159 3.4586528361547675 4.3783490974034
Mo 3.5355493386902417 3.9751538301961706 6.172263762736391
Mo 7.020711535082059 1.554553882971658 5.978334802777096
Mo 7.031819562758653 2.352519309421755 9.101201736079267
Mo 4.441136413844876 3.2543785043805045 8.38627754753176
Mo 5.005464331932367 1.569176440935208 6.0238440673523925
Mo 5.861635853162425 0.9828911171857594 8.595119057528306
