43
Energy = -397.27511864 eV
Mo 2.3661254492637003 7.204168287446391 4.289239514142236
Mo 3.6686878400114695 8.527560722699942 6.002257396742484
Mo 3.549124637860941 9.22378950457514 3.0325127534422323
Mo 3.559052586076434 6.573677822979876 8.203620601767168
Mo 5.61204321819257 10.264096706516087 7.3730904618676805
Mo 3.2194864853550103 6.443783163133224 1.8072923989508793
Mo 3.684733638222794 5.732879246387226 5.660935474171339
Mo 4.761331355583354 9.029583722096152 8.567875100670449
Mo 2.171549902644749 4.934297015145082 7.390744367761669
Mo 3.398873592827686 4.894436792210582 3.006286164957963
Mo 2.521346744862712 4.594017420158446 10.013954014175662
Mo 5.965959062172497 7.629668777416619 6.384468037939391
Mo 4.291928214506467 5.318208460992802 10.563288982599639
Mo 5.397080736381915 9.628306746240415 4.52094854800298
Mo 5.186297604041839 7.017647772682363 3.7089722964252716
Mo 7.696704904964942 8.613043404352542 8.504387794083856
Mo 2.6146026437943366 2.1566801040266323 8.021832426548993
Mo 5.109572440290054 8.62843266479969 1.7245066910495364
Mo 6.274911637140677 6.248036236165842 8.670888609992987
Mo 5.714814256332728 5.489931249961911 1.3595766038156876
Mo 7.808830240416944 9.262870446347002 5.759486021284901
Mo 4.134920791454427 3.0891245134871625 5.431505896243273
Mo 6.223508815391359 5.067432130700084 6.158528723790893
Mo 8.62293634677911 6.566080732486775 6.7966178307696286
Mo 4.6429012259462965 3.99608051593889 8.072969139528745
Mo 7.565971160312423 8.89936315181447 3.236955023902559
Mo 7.267293924865664 6.8512886733871055 1.493518804097356
Mo 9.604652522212241 8.712184378147253 7.6494146366681495
Mo 4.251767857676322 1.1528810454958889 7.618321153875162
Mo 7.727270937614364 6.528588042653553 4.2719765554680595
Mo 6.073076849215457 4.241283085095399 3.647845891576696
Mo 8.5153131985733 5.962902599572058 9.313709718186821
Mo 6.193400599711097 2.6122481859427045 6.053156335777884
Mo 4.224584055140161 2.514748552790474 9.99532355381713
Mo 8.226307722716582 4.0017098348376425 7.761255873918972
Mo 6.750415444226753 3.8740794905075644 10.16421084993036
Mo 9.973320303355939 8.200515488533952 4.757735144986296
Mo 9.709798634610593 7.676106308412768 2.7789649605437163
Mo 6.565634621072717 2.1920215949825193 9.012267665197415
Mo 10.467596422031287 4.924301090484024 7.0293766144515555
Mo 8.558772644083747 3.9083646832412624 5.189161312883396
Mo 8.23910610602233 4.701438943666139 2.7329196989878284
Mo 10.324363399282587 5.416482742983547 4.843706757785792
