48
Energy = -445.01694238 eV
Mo 9.917133038202198 2.983741718032595 8.865061414061818
Mo 9.551081372413114 4.871697929871906 10.433818925593716
Mo 9.948729636590924 5.816419624657304 8.555775374415898
Mo 9.597016050386541 3.91330218994793 6.63364755440551
Mo 7.6016293582821275 2.0703704593186396 10.15531260396844
Mo 8.40191682117658 1.4746814053995907 7.347039432658085
Mo 10.059106170483625 7.009834749959183 5.812418893269001
Mo 7.6381388010988465 4.1107734779291825 8.59964232188785
Mo 7.461640538135749 6.537675443346365 9.705217188675404
Mo 6.844426462600531 4.091071162777657 11.177490377992315
Mo 8.462046168706507 8.416068387091512 7.8320989255194
Mo 6.269689904331474 1.7474666526655722 8.147956223845055
Mo 7.955094144648205 6.206856313134507 6.7067749080353805
Mo 8.66066834836383 2.107701153047746 5.007931685876728
Mo 8.96237733309534 4.996904265523499 4.0907510875443265
Mo 5.158412683742709 3.674908389002121 9.753398469135261
Mo 8.60865935234931 8.61747519281131 5.288539203338994
Mo 6.3732528292884645 1.6463151215004135 5.179180532276056
Mo 8.674910938937579 6.702194893999446 3.21516691352054
Mo 6.819743129569077 3.8294100450986877 6.048853065080392
Mo 6.141365182209281 8.437709455024969 8.735456555519459
Mo 5.550347023412752 5.727643401850445 7.92162400598767
Mo 6.145689149257303 7.914224230137213 6.0967734469933355
Mo 7.041947343644337 10.519548395006847 6.928890050185945
Mo 6.376591025543161 8.433206498310428 3.391504674501007
Mo 6.537336026473982 3.440653353880444 3.3396841763035092
Mo 4.330935483472797 3.4518475136494877 6.964377941235626
Mo 4.984116922317415 6.141890364843978 10.181419764828858
Mo 6.271817766524699 5.70784638179684 4.1778227132863455
Mo 5.9938363049661545 10.35716433776923 4.663117310792258
Mo 4.158672258030222 5.939162906834093 5.603112893630834
Mo 2.8872795366518984 5.495360895529867 8.358948440716736
Mo 3.8479619751981664 8.826950160385904 5.215100107949874
Mo 4.295700762636687 3.4992894219780193 4.566134460497799
Mo 4.9702056347914345 10.112298923253256 7.42302460734063
Mo 6.242361943936715 6.185403965973055 1.5318619316845385
Mo 3.5738535347961404 7.659168103240017 7.740218009860357
Mo 4.11492821409369 4.505438270185926 1.9213535958671497
Mo 1.9625509985537843 4.416218269032224 6.423002184504457
Mo 4.033015791356148 9.870191612335447 2.560760936790476
Mo 4.009749581238917 7.107723287997807 3.150294499576409
Mo 5.3769345919165925 7.864894405734763 0.8833497796578585
Mo 1.8116955257209482 8.96969630619199 3.98473195180321
Mo 2.2647970436656326 5.100667809718827 3.7909079929989944
Mo 1.8783993995237278 6.852595314301106 5.808120417345877
Mo 3.1801658098703465 5.871996915951775 0.9215521261707021
Mo 2.833086759226098 8.904810796091198 1.3805926548044254
Mo 1.2385619835408483 7.064444226672652 3.0155648630186547
