42
Energy = -387.59817124 eV
Mo 8.819480626440495 3.117686592781466 5.847386322217147
Mo 9.55935248759005 3.5211634300787376 3.6228578891798517
Mo 7.477226083314478 2.7787962780510997 8.27148988318452
Mo 9.114204566972 5.01473203428134 8.240942328631299
Mo 9.649442822412656 5.372572952262535 6.0401250568137375
Mo 7.179442390829005 1.9897330973910548 4.041931110589767
Mo 8.64385743390338 6.564428204812156 10.611345471387969
Mo 5.502809535027611 2.3482169528196617 6.514502969693648
Mo 9.192345679900853 7.451440889935674 7.898328531664186
Mo 6.6586256525551475 4.2575735409026345 9.628770933641183
Mo 9.73570019534352 6.282130756202203 3.362186785718828
Mo 7.3867258892547785 2.9978181080540063 2.1905140064401603
Mo 6.720000460238254 4.790565942861553 6.658732719254211
Mo 7.594449580681239 4.924148354384298 4.148904211778773
Mo 7.710624141388468 7.41714011154445 5.704831854696955
Mo 4.528602199385159 3.311476062707441 8.594077142827468
Mo 6.923760945982523 6.652354855784194 8.449724368234383
Mo 8.69469485701742 5.7192744708319525 1.7740141109152516
Mo 5.243140108412529 3.5327695923012876 4.076156748700289
Mo 8.213662119616744 8.412378793590388 10.12852503615062
Mo 5.7494965923636165 6.853636833785847 11.004444215301891
Mo 4.27978947201972 5.666086007486569 9.074404104278557
Mo 5.717350253735011 5.102264669819299 2.2936592730420777
Mo 5.177452012902369 8.287945928558557 9.863465840686674
Mo 4.787029825893294 7.3069853913148535 7.040516224682284
Mo 7.655861419627397 9.892686430008036 4.855290014462419
Mo 4.054592573739883 4.799110496088472 6.356739217925637
Mo 7.224227357308112 7.637910040215192 3.0630212630885367
Mo 6.734910696428902 9.268338134724269 7.584444405821412
Mo 3.342835787922064 2.61604212763488 5.631767748838726
Mo 2.780426687053068 4.910032568348074 3.7007827474357944
Mo 2.022180138148376 4.273825314573975 8.052630126798322
Mo 5.2820363939040975 6.379791048865478 4.36585340593604
Mo 5.413800420968043 9.090879812986298 4.979659380733927
Mo 2.0611493603373416 6.228125017386211 7.7474975537206525
Mo 6.650839794332032 9.713368116430985 2.5708842317766414
Mo 6.238659905936536 11.083133538136382 6.790207143867609
Mo 3.891172262836645 9.730221464703746 6.677920113850347
Mo 1.5455655822434236 4.823602361687477 5.118033938856625
Mo 4.411358783558846 8.342806753140293 2.951830069456166
Mo 2.8999673481171087 7.375318088594722 5.19950909451792
Mo 2.6743828338855646 9.480692174474685 4.535299832618853
