44
Energy = -406.98362904 eV
Mo 5.1778842456710095 5.305611389172564 10.26092098466747
Mo 1.0041820829413857 5.1458054990511615 0.4285944186042689
Mo 2.9802173953502744 7.1639074937723946 0.7479496083166763
Mo 6.368145381036228 2.413354275987272 0.12935794944929926
Mo 7.170684090722426 5.307664586958724 10.688903535305327
Mo 4.528657714221731 2.4608362633277787 0.6242001281833733
Mo 5.339010842409673 6.986207017837386 1.3261969486935585
Mo 3.444121489308315 5.0023367356861295 1.6821608700476784
Mo 0.6718704606041523 5.747506888110781 2.1702106669554597
Mo 7.745634788188067 6.392528649631796 2.980807235835653
Mo 1.7567940891987597 2.8831668473489063 2.2179937912747336
Mo 6.078796090198456 4.407081963856653 1.9384862350612027
Mo 6.6511589897592875 1.923392479547245 2.9271130037863644
Mo 3.0693113557321166 1.1176952211484519 2.7831366865502476
Mo 5.6302784759853175 8.654449510605625 3.5327869347225898
Mo 3.133839247885033 7.386900233532994 3.2190652580417334
Mo 8.415144302619574 3.3430210501943356 2.624438246191827
Mo 4.304813321044787 3.08271056227667 3.4416048616493686
Mo 0.3064663972716028 3.4407953806141585 4.437358920569633
Mo 5.010420030635506 5.983765510362991 3.9497674337356163
Mo 9.361977016082585 3.9183083668280587 4.764828325954496
Mo 2.2836683081109173 4.927353140963673 4.222669901490512
Mo 6.6987136122803435 4.101882782474243 4.680522638453781
Mo 8.16071013261082 2.1482256766105228 5.291851242618436
Mo 7.685359224031696 6.743154304107527 4.831377997082284
Mo 2.0767344601215303 2.1942273048944103 4.941142329894395
Mo 0.8752029602542403 6.128110702893038 5.785040924593577
Mo 4.158764805077712 4.04797544434976 5.8798061998071605
Mo 5.06024078221023 1.402988641026625 5.385715860170017
Mo 5.133204097266357 8.415311678679519 5.352202804564436
Mo 1.802372254205293 4.132500130448871 7.057170520142244
Mo 8.064331089488753 4.6377718733169955 7.070512643888564
Mo 3.7142666537778957 1.7646340056776815 7.0800577488262455
Mo 3.1242196868493277 6.573932839369774 6.25144017940353
Mo 5.938363769480815 5.988462602074061 6.803157755281757
Mo 6.233604710988349 2.990027267547682 7.1272519926649744
Mo 4.16875843644249 4.751938405801905 8.456925066199105
Mo 7.0213198012908835 6.972185770089358 8.79858137208532
Mo 2.147568648393195 6.162499243112011 8.511902392581796
Mo 2.8590767107198793 2.702079122906546 9.507335326896483
Mo 4.355736974527775 7.6014331491142535 8.611125784865953
Mo 6.863882755474889 4.866488074247139 9.26789216090258
Mo 4.717341697516116 2.377111739921448 9.615971455013204
Mo 4.769385308348162 6.364894860854636 10.260920984667466
