40
Energy = -368.83613744 eV
Mo 8.37771712715629 6.622676168709895 10.523945710384325
Mo 10.518921712006817 5.214759369412297 6.2773402655023745
Mo 10.013254982348693 7.430820836659392 7.941794387445002
Mo 9.004543442945378 10.072529750938045 7.480102422389972
Mo 9.230056277684657 9.217323200628183 9.579334423891197
Mo 9.711389354557683 8.197379949767031 5.803489883079307
Mo 8.990276630076647 6.125949030527053 4.309603435602978
Mo 8.39437930410318 3.701876542693788 5.887262166609331
Mo 9.390431357690796 4.983307424886557 8.213071733930594
Mo 6.961634441568814 4.370660865773564 3.880493264065427
Mo 6.315062391849471 10.84021456822715 7.938186625905104
Mo 6.710136827266158 7.599685436329298 10.950712894311529
Mo 7.894813773772961 6.285509935506829 6.565083233661996
Mo 7.242928655327107 8.197783327564771 8.467770156984367
Mo 7.2179442631207245 9.020186755746016 5.811722603882814
Mo 8.153738998898476 8.394704828061318 3.5170907999640515
Mo 7.104990781569685 10.729284323616364 9.675404681481268
Mo 7.668392992566027 6.1011566666953305 1.9251683568915101
Mo 7.3739758477791435 3.123885132509506 8.195540537752162
Mo 6.627862639726417 5.475429272078067 8.984626341479899
Mo 5.311808741896174 7.285758335076758 6.9327206660215
Mo 4.435653000300565 6.631146223701523 9.406452551425042
Mo 6.176000615779779 6.8284816206332435 4.306126912559685
Mo 6.631359338170617 2.0216141478591063 5.540626541122263
Mo 4.50618157727336 9.034302547387092 9.032756639426117
Mo 6.566182450818653 7.82435303298241 1.7010836810713912
Mo 5.717671146413572 4.44093761444796 6.3835827354279475
Mo 4.530337085364377 4.019980058474733 8.600230180405271
Mo 4.668348130630681 9.745195776559472 5.853712338178829
Mo 5.307275829833643 9.440046578519262 3.8520073688864382
Mo 4.902148116728711 5.3295556392255055 2.2611587867761087
Mo 5.428106165786354 1.907335345244724 7.683824041501117
Mo 2.9256125768225667 8.462967617859464 7.777212873041309
Mo 4.910503318576261 2.8189284776277534 4.04191346942348
Mo 3.5398525072393756 7.530988447134807 5.071916444058435
Mo 4.017957126196095 7.232500157558308 2.5993997194087446
Mo 3.7747157458841984 1.3088520730787174 5.692655107052697
Mo 3.9284286368864882 5.081928252250243 4.500161074069736
Mo 3.3554042202735306 5.769524552502751 7.199461882267933
Mo 3.0804574817842427 3.0578721311935793 6.27102845962052
