42
Energy = -386.61826546 eV
Mo 3.440261150217406 6.835145548059452 0.3187118364761329
Mo 5.167085081781247 3.439052747258521 0.0843210529618657
Mo 4.101248176568273 1.8617204949161836 10.760949705252871
Mo 2.3123131722481074 4.1362406601684585 0.794540136195544
Mo 5.952027439054423 1.0967096632474975 1.872264646660108
Mo 6.953408559617265 5.433113778354657 1.693076929616559
Mo 4.508539852847826 5.141873079138661 2.128050284002492
Mo 2.1276203542006167 6.708874735109486 1.9401549088376042
Mo 3.950328006513185 2.462262739024275 2.464702651849522
Mo 1.4716656018394756 2.5292873995311003 2.015514917586714
Mo 6.572133118245476 3.3948951205207054 2.9085877775331936
Mo 4.938768973438635 7.600252099032301 2.2719113944729155
Mo 10.640274551886248 5.043467456822622 2.625292750961305
Mo 3.743592711581497 10.81714274954064 3.2796101675308904
Mo 2.186819132929822 4.475639415246201 3.5865423050478134
Mo 6.9530776758862 8.48915331550412 3.6666796965148896
Mo 10.263946756955963 6.969558971515429 2.9268995363073205
Mo 8.974409746048087 4.541052335557836 3.8321120100944936
Mo 6.672424714152757 6.082360605192111 4.059285792879883
Mo 8.350408825330865 1.7026809698454408 4.450482248857002
Mo 5.57911708541156 1.4401831436801176 4.7607154171515225
Mo 5.6396677029932425 10.080405625016905 3.556727608236516
Mo 1.0645305411918708 6.499927872997281 4.7876865948906975
Mo 2.5868446285418023 1.9435686624882642 4.971664545101794
Mo 0.3765794170951896 3.600568205414182 5.203465461037904
Mo 3.723453532319799 6.80040339409478 4.309585831734017
Mo 9.236110830308526 2.467523927060153 5.940888404485551
Mo 9.236110830308524 5.626848089647409 5.21087367296061
Mo 3.9267261453356617 0.366114167773454 6.2255849991809775
Mo 2.6435895674589815 4.900164303688173 6.426720914640499
Mo 6.8406655075489144 3.789065263901489 5.7370547188150995
Mo 8.819667651358422 5.494917793868032 5.5535990209702915
Mo 5.559501965920129 8.456047716189987 5.150672668741963
Mo 4.49013661591231 4.119418651306625 4.696263431387697
Mo 3.121402806235823 7.193818044417727 6.697769087076609
Mo 6.667950215581239 1.7078901116134741 6.938402339290523
Mo 1.4706323182222856 2.5206039441263153 6.943201694562394
Mo 10.478017830998278 5.487581285582812 6.709082018710493
Mo 5.335906339393738 6.007037970256465 6.498019372215032
Mo 6.057730380702724 4.1471099818309485 8.514263522629873
Mo 4.332675753242979 2.726429764004384 6.9939568968316035
Mo 4.36665256454472 4.973179404505106 8.74103592430159
