48
Energy = -445.23262844 eV
Mo 6.397933423128545 10.90155344318717 4.293937559108905
Mo 5.343515112310567 9.023316780354836 3.2559565169994498
Mo 2.1330977259872204 8.78468348159945 7.17211157501329
Mo 4.2951602223455465 9.378972789499809 5.579122620900765
Mo 5.0204811375035545 6.516806675935318 1.7889356443777296
Mo 4.590364400526319 9.13811869014245 8.415756184332992
Mo 2.1339950653767463 8.101445139850048 5.232060680111733
Mo 8.028703425540444 9.792712110749687 3.3245521376953833
Mo 8.672707506061162 9.902443281266333 5.739501498814589
Mo 6.521254048497081 10.220400338670014 6.988909133623465
Mo 1.4737039151690985 6.1921663812823295 7.644071224425754
Mo 7.377241336528795 7.221867322650313 2.4237285291832045
Mo 6.768924576715931 8.142899365003748 5.294075038074464
Mo 3.0513732032778904 7.624627445156947 9.735008107932558
Mo 2.5555303469097606 5.857620537074205 3.150726010769486
Mo 4.087020001043084 6.8430441082153655 7.00673229900305
Mo 4.488329785519539 8.482241633109027 11.190342003249027
Mo 4.5005163951891225 6.815175817156623 4.501218084803385
Mo 8.653546636926665 4.837463276453794 2.5925808819853744
Mo 2.34072360533806 5.230689709335042 5.416107563839359
Mo 9.062529796293422 7.306068448049785 4.1675493970838975
Mo 6.12863332416681 4.813334380850511 1.3187773426454055
Mo 8.814100023316596 9.741520522199961 8.200925854814122
Mo 6.319034942946632 9.813621022093809 9.977698116573281
Mo 7.030158518821119 7.884889891463075 8.264774011267509
Mo 4.2408915844948805 4.2297871007680765 3.3280183424238463
Mo 6.607547151263609 5.413509474133774 4.027997715496265
Mo 8.749058025864572 8.985846350881502 10.46636767370435
Mo 9.230083588533216 7.548369837472678 6.657451012459572
Mo 6.818147833379528 2.9028182028178087 3.0977476162516346
Mo 2.8614997972264407 4.879152520013503 8.327823592887468
Mo 9.255874624074153 4.955329387523398 4.90614108049017
Mo 6.804504231940478 5.773631268533639 6.825007162153372
Mo 5.127367083935723 6.37643291778773 9.428091608195345
Mo 9.434696780779177 7.070003352028556 9.40422502104117
Mo 6.841899047887213 7.381457982314777 10.910811190925441
Mo 4.477647518719335 4.14601572559044 5.8772311984855765
Mo 8.945533615949634 2.4656768513968403 4.267920219172797
Mo 7.148929695165838 3.38298271810508 5.8075829683944695
Mo 5.225364871466103 1.658094130278251 4.764679781956458
Mo 9.23764791835385 5.017406049543583 7.544909715910032
Mo 7.73398428455612 5.255502058835404 9.381594867590167
Mo 5.508330848032593 4.081574102068773 8.225402116604922
Mo 7.314257908700256 0.4482463993919606 3.80318585611639
Mo 9.533983445676116 2.4940866571106466 7.008277351610999
Mo 7.959271487842439 2.5341645725867785 8.27752790666181
Mo 5.468050849062908 1.7199803243251752 6.979770363175358
Mo 7.595349611010509 0.6207497044963612 5.915577901018777
