47
Energy = -435.50478912 eV
Mo 6.812930699428431 6.760832479668996 7.162072620412428
Mo 4.462460732651589 0.35814888334340517 6.5080544240936975
Mo 7.326111758793315 4.838569521508012 5.7979504961380846
Mo 1.1054469419956143 5.400068915058909 2.7982785640660297
Mo 5.507461685990547 4.331472567958215 7.978468378014939
Mo 5.2436427309015246 6.8963153388643645 0.41339897369666684
Mo 4.160456521868104 5.841269254490547 6.427918686492726
Mo 3.329509060000527 3.1941118129212422 2.745728862230509
Mo 4.908759029142206 8.57535452272152 6.511656158735485
Mo 8.051031541790799 5.906396706797537 0.8256317974827742
Mo 9.224509046859394 2.639948275373489 5.644391051083695
Mo 2.1325470583059394 4.019247013726054 5.253693898979595
Mo 2.389852825286624 1.2693891316887806 5.107647327452729
Mo 1.4558454779546786 6.323453711671446 5.5909724131686405
Mo 0.6800379161026634 0.1482871276192585 3.8233997840317837
Mo 3.6368293755935563 3.282279809786226 0.22961139528983635
Mo 4.1887665991595835 7.155667087236782 8.889316728560384
Mo 3.8523245546827183 2.588169288737881 7.014531968465193
Mo 8.13218019470918 5.853670486315541 3.381545324472084
Mo 6.485463488873474 2.099654373811653 6.320811543809309
Mo 5.05372493562339 1.2475289181557898 4.224821175344045
Mo 3.4782311217831072 5.827635963057029 3.730132744139849
Mo 3.236264562326438 0.8377377179458667 2.6283101383353147
Mo 3.280126329243736 5.59399738767601 0.9641922293240502
Mo 6.1008615630108585 9.338073689650289 3.8433426996016866
Mo 7.7422830207162265 0.8687814878817514 4.154313126900613
Mo 8.17582510740514 3.9657029131120343 1.1813767318695307
Mo 1.5562886656924857 7.412328938188556 2.7485745171241946
Mo 7.473372042334105 3.08169466525075 3.67614778578956
Mo 0.3052653684388781 4.898781453183751 7.3145756495552785
Mo 8.684816253757601 0.9424604263970003 6.646532997616601
Mo 3.3613373590017885 8.292617159881893 5.11503357708766
Mo 5.631923610274132 4.365522082224887 9.575594855232419
Mo 2.4995767005792886 4.846516236550908 8.02182266171134
Mo 7.789480187711239 3.6384901715903943 7.833136496520413
Mo 5.6605731441798595 2.6066366771715805 1.8830442719807103
Mo 4.2923190723712175 7.834126913251603 2.374392104803782
Mo 9.224509046859394 1.1849316952114837 5.268852748865156
Mo 5.789512487689816 6.785629368188795 4.559029789307328
Mo 5.009953913542356 3.7891785811392906 4.8714561548940445
Mo 0.7691235532825894 2.6156647716576584 3.139072098030263
Mo 9.334240757027846 3.695583970912315 4.83050557494773
Mo 1.0547038519557945 2.5652604883975547 6.951513492828719
Mo 7.872005642628416 7.763769523679616 5.35783789622717
Mo 5.814431342687887 5.19566491794248 2.377062051990329
Mo 7.020756804487887 8.189450793149225 2.4814209663310263
Mo 2.566420060253073 7.603156222220835 7.989486660926132
