46
Energy = -426.3329026 eV
Mo 8.780465433318032 4.307162921562822 2.212080819780793
Mo 6.5842124771446375 3.198730308067756 3.3298022366554374
Mo 9.176055250650611 4.120896510188536 4.257034225131595
Mo 8.095518255346851 1.9293017763380784 5.631693727955627
Mo 9.820676506716227 6.617086906275028 3.692857276037679
Mo 8.471607863029753 6.867194312803297 1.8590236819126715
Mo 4.894716201318485 4.173335791127698 2.6795429914802193
Mo 4.459469823128479 3.18729667405734 5.0895160217022255
Mo 8.16850954825516 2.120172586231287 7.691779330447988
Mo 4.651817981133833 6.867208193188666 2.797002978047237
Mo 9.51365284398495 4.399721682433279 6.887886827867625
Mo 6.9831673009836654 5.864095820997854 3.639438917643634
Mo 2.1376712620236207 4.692259332479214 4.401684740418396
Mo 5.5834217745089765 2.1347372098595967 7.558422299423341
Mo 10.870530881857768 6.331860103592916 7.183840538961759
Mo 4.596182965604347 5.732936852993473 5.202338279205333
Mo 8.508734399286105 8.666793901849037 4.126710758761132
Mo 6.496141647208633 8.551528708411876 2.484777111796371
Mo 6.776187936656944 4.037894049100313 5.990214516090824
Mo 8.355476445457354 6.456850126464822 5.9166671517748
Mo 2.1410383615849584 6.623571335943928 4.174651486496975
Mo 5.78026113635565 2.8287322430091812 9.713712370763814
Mo 2.5108333422168703 3.2219910600837847 6.891251687767604
Mo 4.49040532589589 4.444226913454941 7.698120425880485
Mo 8.939348681661407 6.591955016472829 8.609991606037473
Mo 6.141394945397476 8.008895365578518 5.141359328737194
Mo 6.036854247744228 10.457050021960361 3.9569878502043014
Mo 3.979031127011853 8.707848909132409 4.092072839119927
Mo 3.030756731297731 2.8344070967580683 9.49975121965927
Mo 7.283496134244151 4.5796572680609176 8.476974343199934
Mo 3.6315463525467857 8.046362211568281 6.557313032918521
Mo 9.791887951524306 8.462988622201904 6.385072991988497
Mo 6.040407769099503 6.6053752493620665 7.588954973616408
Mo 2.3731609148099806 5.707387106976625 6.796160813225043
Mo 2.3156874475769014 4.670987391915726 9.44916679458737
Mo 5.17398534184591 9.97977109180283 6.6005640984230505
Mo 4.9689582175726565 5.138493304321004 10.091151255365594
Mo 7.773384739004792 10.510402749394041 5.541908217090969
Mo 7.55291026494816 8.794665386288264 7.590730162204704
Mo 9.412181165319472 8.833995067448809 9.64624265038464
Mo 6.84620308864055 7.384927210938496 9.96669661715802
Mo 3.8463550871154735 7.064620709583787 8.826218863307927
Mo 8.933362785248464 11.152065412317997 8.080657529406462
Mo 5.24070102412311 9.119814395348293 8.888561457760117
Mo 7.0669911510725845 11.585255735582066 7.995704436004963
Mo 7.668188257679069 9.793009775130598 10.239978075494742
