40
Energy = -369.16015283 eV
Mo 5.077479287986721 7.303790733788523 10.069279424878943
Mo 3.1796956910713696 6.612675385301337 9.734389498606532
Mo 3.6272294185083718 9.145431768996913 8.274192910552118
Mo 7.322133721490401 5.45184941762994 10.440906079497026
Mo 8.078935896096677 7.160040290114668 10.03810722965405
Mo 5.0458683539339795 4.769858562332283 9.135685642015819
Mo 6.145630990618088 8.801747149337709 8.025785958353602
Mo 2.340151867300229 7.505798326684913 7.275409548156935
Mo 4.648938351736092 6.6785683913327185 7.379355108512088
Mo 6.73333580584445 2.6767287569759617 8.810207264803203
Mo 2.9249760446432282 4.379196707759851 7.7339104288210105
Mo 9.278844125815242 4.961994053200379 8.452496149763356
Mo 5.943442400233038 10.620514810649851 6.040375765233069
Mo 7.888894862403147 10.387031410122548 6.253739906211498
Mo 7.273433720147602 5.930566169977128 7.66564365024541
Mo 3.994340040069253 8.791920531634842 5.832663315345371
Mo 8.64407783340272 8.046685370717231 7.510840464548143
Mo 4.906043618910381 2.141442444153075 8.422246762832087
Mo 6.644712162743855 7.926254292481073 5.633659895949174
Mo 5.459574555182213 4.14290475328548 6.4122852650563935
Mo 3.3888296825333204 2.5123102721683948 5.947242263787164
Mo 2.8137451606965316 5.268339476237374 5.6411492095259925
Mo 4.919002647900348 6.253170045560551 4.545411688679508
Mo 7.633869399898736 9.502052534267005 3.714491203263761
Mo 2.732709547770273 7.4116764051089845 3.621430502530981
Mo 5.273257805091229 8.852991503887422 3.4574826356773047
Mo 9.19627556567732 7.873988019498975 5.032786132597458
Mo 9.798828313747006 5.723866953047147 6.204307867956139
Mo 2.947116340763136 5.717276247442507 2.639079936782088
Mo 8.16059106617028 3.4147157773783774 6.6682803200412675
Mo 6.174502012092829 1.8193428483495075 6.037548057766394
Mo 4.218409284160298 3.504900221895578 4.16699494420307
Mo 7.458748132238466 7.169592766400754 2.9070212474396078
Mo 7.499698802641185 5.446690652055634 4.8958740914661485
Mo 5.0336731005109225 7.012554798072471 1.8624821719207398
Mo 6.013658741688666 4.878556326128073 2.5930197344802375
Mo 9.894738482977678 6.005566108714111 3.229682529531921
Mo 9.51473686399691 3.6721046697388187 4.680695317048554
Mo 6.945877522785007 3.0075143813400294 4.113240971974263
Mo 8.678303245506523 4.682087523127563 2.2892953456086333
