48
Energy = -446.03368142 eV
Mo 8.952132806574017 11.151500757145143 6.3495958476881835
Mo 10.139877905620269 8.844586717992732 5.406208257649236
Mo 6.463699745749312 10.756900081487366 7.446130156702208
Mo 11.965184713649801 7.403040358451543 6.769427419957503
Mo 6.59402294585935 10.909798507887942 4.679884756849586
Mo 8.186159767844655 10.100063782676203 3.8140845618328214
Mo 8.98326743166365 11.212426111475047 8.45016866215674
Mo 2.111801336580336 9.055045146400554 5.236549438622868
Mo 8.70811764044826 7.348296478431841 4.029081603063978
Mo 9.8118741668898 8.93991019058202 7.878961959936844
Mo 3.477198127658827 9.126926570133032 3.8200016239666366
Mo 4.844446241204455 9.231231804078579 6.313009043441595
Mo 7.446805130700076 9.09561156060596 9.096580697803024
Mo 11.179645459810493 6.808523807697177 8.59920065244861
Mo 5.021159128667026 9.318135795420702 9.117852479514134
Mo 7.0288269627202205 5.859106793725125 2.749787073262227
Mo 5.3025673059735405 4.635974026316358 1.975528631270586
Mo 7.560935066511524 8.673558034916914 6.364108424711152
Mo 6.111848984992131 8.354908548196123 3.890724443914973
Mo 11.730256290705663 4.685690047742374 6.690770649580504
Mo 4.377822408720701 6.635691697741142 2.9905079094909652
Mo 8.199688340665114 6.525576711652296 9.044223436996358
Mo 10.618342764306359 5.848243175074047 4.64374591206302
Mo 3.7293365487341 6.836769865748504 5.927654290179544
Mo 2.0598140999859362 6.629149900021661 4.232247560320157
Mo 5.771707075868091 7.147827621090957 7.926973306434311
Mo 6.34989180864263 6.988785939003272 10.77004925606708
Mo 9.30687752746633 6.442403942083991 6.61771257980715
Mo 4.188760597094832 7.322780085820042 10.364359490452829
Mo 7.337341801352472 4.710282903079102 7.16834281613113
Mo 10.000957050720647 4.353662388436949 8.24963625386059
Mo 8.639484694025185 4.427506175525725 4.807320626977654
Mo 2.9410007561413605 8.292648354576631 7.873699108942768
Mo 1.1324217610535827 6.463348180341448 6.7934877717415585
Mo 3.9486818326843864 4.471186332258768 4.302067619416468
Mo 6.3490345272829405 6.283231988793334 5.234056942130776
Mo 10.566520810020865 2.992679217715026 5.726422340444257
Mo 4.7622446303095725 4.487495657691439 6.811342867732211
Mo 3.1830019862277124 5.870455309435093 8.572825854892647
Mo 6.107006281643813 3.7323023479383637 4.3522429757313414
Mo 7.798570136520502 4.036000799718967 9.741625860997436
Mo 5.638931298751982 4.971191052336083 9.510039784225208
Mo 1.878470392072999 4.649996838201871 6.3866887887560075
Mo 8.602409363043684 2.6271289985964694 7.2303421454687475
Mo 5.882847376913297 2.38787752001819 8.450671246394753
Mo 3.545688057421648 2.246033153795748 6.636165244799905
Mo 6.240304311086369 2.0079912248151 6.444139221729231
Mo 3.197973501956646 3.075476397664916 8.488711303980342
