45
Energy = -415.86704959 eV
Mo 7.699602430033654 10.654785532446079 7.581634636587896
Mo 10.013220570650843 9.00790592987394 7.439347036752496
Mo 7.093100865300392 9.67315694875295 10.004145204337508
Mo 10.817287514418664 6.62308307317885 5.258750774374466
Mo 9.064513795124787 8.458451065159606 9.611635498715513
Mo 8.465808032607516 8.262230579192106 5.496012369297639
Mo 6.049446657596628 11.586646263615014 7.777913815152072
Mo 10.005766715163693 6.707261147369961 7.59101923264156
Mo 5.915600518495477 9.552400068979948 5.8972349467701415
Mo 7.397195003914468 7.757499848558695 7.84021526107428
Mo 7.206008064400964 9.667948718427205 3.850434441147886
Mo 8.873657640505433 7.024896271727341 3.2751386703390573
Mo 9.39977394689578 4.543547570982944 3.8018404491192506
Mo 8.394104267245845 5.773218623529863 9.831752638409256
Mo 8.249605287563867 5.459636764157104 5.800475128322191
Mo 5.184370451060402 9.05744118040295 8.49013398211239
Mo 6.547544111739632 7.358520027217411 10.537363950588638
Mo 10.89832794503204 4.565446819215145 5.806968580838337
Mo 3.2641056005629854 10.10126527541554 7.324466714905298
Mo 9.389842896545664 4.281116086778466 8.066924191695257
Mo 7.656044416116342 2.7784042383255763 9.831747032204186
Mo 6.331803536744972 7.064840210016306 4.581472936981857
Mo 5.125341763984918 8.570976927317515 3.1220134376733544
Mo 6.1335188129697515 4.838167666050321 10.893520706582372
Mo 6.817909158100003 7.141651625170809 1.9504275187674194
Mo 6.620373887463315 5.064775257126902 8.248349063790325
Mo 3.6500255599144635 8.48854503544231 5.325345281020883
Mo 4.907487218607915 6.706287711009445 6.648669283184052
Mo 2.6411436025269657 8.141235227268108 7.774758005399625
Mo 6.925798602338179 4.93593226319247 3.100791130778976
Mo 4.559105892759112 6.691926034965192 9.180027419545725
Mo 7.843313417409772 2.9104274678437445 6.782379270546401
Mo 4.2333964619750715 5.64429579225342 3.6651957911872484
Mo 5.75166433549729 4.138423734909887 5.600286519621367
Mo 5.582281069092362 2.7369154418128767 8.004428228477005
Mo 6.014772834891336 2.2260779111589857 10.643171327709798
Mo 3.9804220869411204 6.82302515723296 1.2716855753286616
Mo 7.597667845687359 2.8445377787605604 4.4220909711342
Mo 4.139009481040116 4.198254039239104 9.573312262313117
Mo 2.1013125795000303 7.199016404942318 3.5885973673281812
Mo 4.93823110933707 5.157020895972103 1.1653457980838673
Mo 2.222330288114986 6.22350795845425 5.281461000984638
Mo 3.69169653749081 4.595556512266787 7.320991050516231
Mo 4.628031783955843 3.0216594104294514 3.3914125018659633
Mo 3.3440237188226885 3.3474153630592047 4.782111738691772
