41
Energy = -378.33125855 eV
Mo 3.3141396428920316 5.057826725294338 9.446978471497784
Mo 2.704390866066502 3.2671015792283176 7.140713897700616
Mo 6.265049759695689 4.6217595503758755 10.310847183564023
Mo 5.147305384390174 3.497993817738001 8.122534236315461
Mo 7.509884377327814 2.9816203134186923 9.36413189061203
Mo 1.6788871978849367 5.383750405873923 8.403774645184098
Mo 4.9066061189093775 1.7404953935971013 6.5213964468054675
Mo 9.104128433055196 5.079627778801122 9.906164899900059
Mo 5.472081008234597 6.655656089484108 8.524201389579506
Mo 1.3946810127139875 5.313269342330597 5.391393579459542
Mo 3.522211753473514 3.42876645700999 4.77089051161025
Mo 3.324566826394383 7.7443183003601535 8.290054518187697
Mo 3.8929764590675475 5.44343994220944 6.728188737439921
Mo 7.182843793539782 2.1397027150942898 6.414752577246848
Mo 7.583630169618518 6.73754921407143 10.180174006818005
Mo 7.575739105059241 4.932897773534622 7.717590813742775
Mo 9.702993979589206 3.1609329502685055 7.660139859617001
Mo 5.6732661048743855 1.7642735810719348 3.7734576688092183
Mo 5.863405509003067 4.110950900992976 5.425150652454723
Mo 1.7319742642045477 7.089341647628487 5.987432746283397
Mo 3.7187890095937006 6.088437868938246 4.204645161365654
Mo 4.428274674144966 8.268899797773873 6.167750415923203
Mo 10.255367130699156 5.276012988550163 7.675667251694837
Mo 5.214240364506799 4.520248802667991 2.8796815306941594
Mo 8.84955186869845 3.9522825383234252 5.530051483630893
Mo 7.349003464422619 2.621183790842108 3.4974032158728967
Mo 6.386720798555681 6.6161554093228885 5.959596412429475
Mo 3.163086899203197 8.82082689574386 3.727825649759852
Mo 6.375077911238049 8.827183990699716 7.64130015893757
Mo 8.41664755949856 7.42057032386272 7.991207388546314
Mo 7.485857724890262 5.494590594064229 3.695871860326955
Mo 4.109087727690685 6.84601918704395 1.8695940384024368
Mo 5.855831060926817 7.672992041977832 3.5405482887964097
Mo 8.95284196744294 6.421654608228689 5.482214061402963
Mo 5.674382815691356 10.141394952315695 4.620604019476094
Mo 6.710836150321476 6.3462679587690785 1.200844701824102
Mo 7.641858468083828 8.862407257989362 5.407763870246244
Mo 4.199900090857229 9.511845008576683 2.2428314065699393
Mo 8.479870709795412 8.155483612644554 3.1778039538209657
Mo 6.348064863038823 8.150119376021696 0.774179352889373
Mo 7.16692769745566 9.926180331763083 2.801408511490784
