46
Energy = -425.23902439 eV
Mo 2.5994181740729765 2.321671398192491 0.17285535931599774
Mo 1.7184254152360927 3.697947382968473 1.0965057239213845
Mo 5.249766246915366 1.059410467515236 1.2553520468044832
Mo 6.288163129413095 5.585636592671408 0.9609431183917261
Mo 3.314356277156529 6.234026343334763 1.858233620167229
Mo 7.16137677434293 3.0145052542700204 2.0778283087553207
Mo 4.5422379568778295 3.841228516824828 1.4188640164371258
Mo 2.802084357608506 1.6625418174010904 2.912540860255536
Mo 0.9169117273207901 5.896849307321748 3.4264893835850856
Mo 3.830305522357989 10.51987739911068 1.1146943485038914
Mo 7.779144779296821 7.569566559411869 1.4692039478483592
Mo 5.3575600682759275 7.629415020650705 2.181411848158966
Mo 8.42721799034946 5.638235356164305 2.6240198717947267
Mo 5.909992570025668 5.177551961258719 3.515391554575902
Mo 7.156351049779062 1.302996964223728 3.7145464274845805
Mo 2.354390360305722 7.771116234948326 3.2898528997131895
Mo 3.007779272702379 4.365999491561699 3.6378051779159764
Mo 7.285781702755938 7.602189567132931 3.9113939095286687
Mo 4.412422177887412 7.051218042776212 4.658028033846564
Mo 2.985301761942074 1.807990892013061 5.407545814773717
Mo 5.147022954676808 2.6002387858429348 3.8226165517968647
Mo 0.8886146088645706 3.0918552613454757 3.7879024969033233
Mo 8.162752816843074 3.925664001171788 4.424669028956433
Mo 6.835056973990207 5.8765513145173 6.139945305679863
Mo 4.149471776326577 4.47533675692567 5.889538462087825
Mo 6.433202666344529 3.1181705380048443 5.971958142621091
Mo 9.02405394262185 6.080661915775364 5.250025047415233
Mo 6.0293959006462154 8.633451136656031 6.425342468255537
Mo 5.17615510826953 0.6247821139987468 5.893383290542329
Mo 2.742999863808852 8.704893881559366 6.195863534393928
Mo 5.335913174393469 9.339239583951217 4.394566451454808
Mo 7.824799093667529 1.0997686384168455 6.973367100300423
Mo 1.8575832536342805 6.210294729683471 5.617998480049532
Mo 4.671565437350525 10.623892568219116 3.9288800135328783
Mo 4.564140450847562 10.51987739911068 7.026713460882701
Mo 1.5196793767276686 3.7176031466823805 6.032605554908089
Mo 7.90056402355849 4.403075788458356 7.6339613688399135
Mo 4.32941063493546 6.720786403553694 7.272851048083218
Mo 3.6584293883547288 2.6905519036101837 7.793293079298094
Mo 6.358648061764562 6.809201770877307 9.049691985394732
Mo 4.270356596350887 9.205322556956526 8.573579632160117
Mo 6.65842677523035 1.6410817717054098 8.297644889584694
Mo 2.172298398781057 7.630508786127944 8.038405430232201
Mo 2.7512651229060574 4.606776825170511 8.271059331629992
Mo 5.597960874717192 4.443479024046737 8.40097704829761
Mo 4.542013611585891 6.460169925704815 9.890422726739814
