45
Energy = -415.76592107 eV
Mo 6.878824023614316 6.013711064480865 0.3866775287934617
Mo 6.456342271982515 7.844992177139156 0.9541729638888218
Mo 4.731396556228051 6.468421820969348 2.0904999636354065
Mo 6.09168117694612 4.107460723396669 2.3957435155807447
Mo 7.598404857388395 5.987256875306604 2.871057826849098
Mo 6.049934987102849 8.268614516839746 3.695750584233223
Mo 11.175216546965618 7.916608666435541 5.6275644081441545
Mo 8.455860244207717 7.879923391143784 4.633353480105112
Mo 5.558176744160459 5.771332562432406 4.506966471152745
Mo 3.592129723894157 8.48604450942516 2.8025842681520032
Mo 6.99244732331361 10.344066586014938 4.7836527406144755
Mo 10.363618610677772 8.842878325133993 8.197394056868434
Mo 10.726345932601143 6.282305228056718 4.846388438591404
Mo 8.263392690700595 4.92688984618396 5.347569589312026
Mo 10.43403659133596 4.356682179564166 6.957391015609426
Mo 3.2767070934296147 7.0878259120784675 4.393910438383174
Mo 4.220442990401344 9.26589143297142 5.5394671486582405
Mo 7.950509407946853 3.3261385068344897 3.520362248915514
Mo 6.060976704462074 10.354941214686775 6.927742326332037
Mo 8.922260228813222 6.896902446717295 7.102475630801592
Mo 8.91215818239845 9.698839589436034 6.197092653949403
Mo 3.753271765711324 4.423632927249737 6.263948892586929
Mo 5.988625654469716 3.2858301426031367 4.957832645347536
Mo 9.92589066138712 8.951052786205631 10.59424003357093
Mo 6.508527230708096 8.006607616090513 6.433948924917219
Mo 7.929799675817898 9.075243174790748 8.66979138288371
Mo 4.265955472227111 6.944709503654134 7.137504851340069
Mo 9.314839062026 6.830136122063849 9.84449989938446
Mo 6.36253896917538 5.111344098487534 7.116324308629497
Mo 11.223270082042891 5.986578799438086 7.9615401612974805
Mo 7.315832872082021 10.618015506921473 10.673567799665719
Mo 3.299130912597958 9.211965051415318 7.6392916162155515
Mo 8.643225240770976 4.64930641645821 8.694361893595321
Mo 7.850452042867149 2.8185468744622737 7.072330546548986
Mo 5.285870973463967 9.08979477633746 9.098263161247681
Mo 3.878744204350214 4.337673894534388 8.215082303082314
Mo 5.751322044275201 2.496314928981527 7.441765353120505
Mo 7.2796631071078455 5.556972063299608 11.188794653189857
Mo 6.454017069501123 6.748151763536745 9.168164181291612
Mo 7.5487156635275205 8.363424989707344 11.362747532823809
Mo 3.4940682848907487 6.821771743887214 9.700800948770564
Mo 6.593725242965257 3.8763968448407065 9.725547410735068
Mo 5.369245928509479 10.096143429061964 11.482866668138422
Mo 5.189508704623893 7.706377540722492 11.506618977427761
Mo 4.480587176219027 5.283972359891177 10.690039485507073
