47
Energy = -435.5951413 eV
Mo 2.2656904387958883 5.135714843320935 9.721290562891722
Mo 5.235590268231647 4.16911312589809 9.565199617176475
Mo 6.1253041153165615 6.6137141732886695 0.39852200513917174
Mo 0.9531724229256285 7.138563431034734 1.1251302027663401
Mo 3.57538279856245 3.1118750528333603 0.3847836006148649
Mo 3.9424118237197323 7.057749408146617 0.6322603393432893
Mo 7.962614964509868 4.099423547331972 0.9593470866305461
Mo 5.95292114182262 2.35282584789528 1.1429941332773343
Mo 5.346582963709569 4.861381045946876 1.825418876935133
Mo 0.8109283967442792 4.261737892281088 0.7315755534971187
Mo 4.771699900424528 7.434614573464762 3.0302845262645834
Mo 4.148505917197808 0.5513943999709019 2.302489559763147
Mo 7.506916096891529 6.215919259976363 3.1177543922019826
Mo 2.507851730428068 8.014813246783465 3.220731333798879
Mo 2.8569140055745748 5.306727634855628 2.140193925528352
Mo 6.868216492824209 3.3433101062872237 3.556022589676211
Mo 1.7650331246117026 2.152900435039577 2.129254572203428
Mo 3.850606370301485 2.9650428959910635 3.298399760406785
Mo 8.621401787054724 2.5955032808227982 1.9977563806555083
Mo 0.31863468814181295 6.378291250126599 2.79406938942209
Mo 5.743243085635386 0.705248621597545 3.413487648421198
Mo 1.1083458576171838 3.7795879996045425 3.7010533148547715
Mo 6.600698083163409 6.991566891909683 5.687269493838561
Mo 4.998621724214443 5.180144532407581 4.527871634363846
Mo 4.2165539658978535 0.04429517280339872 5.961262445895387
Mo 2.5608917381301177 5.9997328281878515 4.687850598421674
Mo 2.8180496493894505 3.634503181371171 6.081377683172075
Mo 2.4499059136006305 1.4098414714911045 4.873246883229938
Mo 7.518429365744416 1.8148310845193414 5.5220835376384185
Mo 5.7401137419274075 7.324807859057542 7.887547696660222
Mo 8.59473804827872 5.221897026521062 4.363834606961153
Mo 0.6606963478883432 4.810592142507584 6.3319515976844185
Mo 1.4544283069281725 8.005786964090419 6.0736633552181285
Mo 0.22798235726479063 2.740116584807382 5.701408633528289
Mo 4.3516173944714875 7.848144346018151 5.5387458249212065
Mo 5.128361287912236 2.3088717101209353 5.63981689787452
Mo 6.961730317979867 4.195228426180315 6.337546995888051
Mo 3.153106894052991 1.4590370145736837 7.476413804253779
Mo 4.532606584736506 5.477791544364037 7.045090609711958
Mo 6.395641492832569 1.0791799963564581 7.768620497847999
Mo 7.853043612828113 2.7055520835700015 8.127436430294027
Mo 2.2706789763608737 7.061365469643987 7.46535947650539
Mo 2.4287423375545045 4.337695114040438 8.717919104443357
Mo 8.263334923256322 5.828858098542958 7.861850554921849
Mo 5.060351529709286 3.0528830857086433 8.182676419041796
Mo 6.857090749178537 5.188711130869562 9.058942071253023
Mo 3.8963709441008443 5.264868846281773 9.565199617176475
