45
Energy = -416.84586606 eV
Mo 7.640730613280429 6.769499989698494 4.9766024890816905
Mo 8.948589125762485 6.9807744653433845 2.8159798855387055
Mo 3.5564065170416077 7.423211637129537 8.895660465366259
Mo 8.806548283508889 6.895923348473055 9.614454021625734
Mo 8.625765062525426 2.334560491933428 7.8139815853191275
Mo 4.363754161895642 2.2940118756874424 4.357234347467894
Mo 10.012716872318231 6.433659141956603 6.745449185024649
Mo 5.958690422178068 8.898375502668731 3.1446624518310258
Mo 4.393103905528405 9.234296188704384 7.209617213861862
Mo 1.8950584637029417 6.802847960255894 5.390612342386526
Mo 3.0699810244741794 4.935647906586517 4.203785541749798
Mo 6.076446775344137 6.479421267577851 2.5878475476200826
Mo 4.506103469777989 7.400656421023737 4.746109218879037
Mo 6.820764514943487 1.4118444301934487 8.305067093176373
Mo 4.724043668102166 8.240473713836943 1.129742864397921
Mo 7.760232876666637 5.172022704608296 7.583274873025187
Mo 9.576099376426399 8.807545983793105 5.243403514431223
Mo 3.2746973232136587 8.777678861616343 2.7403450985776328
Mo 6.279300866938128 8.82621632728311 9.17515986652167
Mo 3.4596968776165467 6.3297878057064105 2.3430045469098078
Mo 5.350279028235912 3.977182289076806 8.036067028094209
Mo 7.750748050178611 5.558067191204037 11.23982246170535
Mo 3.380039683329814 4.616531874260744 9.479187747073631
Mo 9.65250321217511 4.733531321299107 9.46588647645108
Mo 2.6432521624003984 9.403338312662326 5.310665687927829
Mo 6.469052741457746 2.601755990444947 6.149412361296965
Mo 8.542751506132046 9.491369093024671 3.7795230335300047
Mo 6.067470149753803 6.133119540829743 9.67011805356099
Mo 8.016742518819687 8.153031902726934 7.546885282451073
Mo 7.870113774838459 4.377907847945156 2.8768280393758876
Mo 1.9623255831030626 7.917856679387151 7.778010449035225
Mo 5.077069943574003 4.244058884463804 2.598237041449711
Mo 7.267748617796135 3.5845318752664923 9.687295951003039
Mo 7.2149983248624 2.662085367479454 3.5359394272734
Mo 3.4202949598518413 5.693837730173602 6.828551600173088
Mo 5.678824242918903 4.846765095792289 4.995280566892806
Mo 6.723451229598366 9.246106648110246 5.766941544436683
Mo 4.405364552496124 10.378757203655404 4.7547216822512555
Mo 4.785071455652776 4.2345853528071755 10.808354466013911
Mo 6.486736937407891 10.538038334797854 7.904741284983192
Mo 5.6712031670329015 6.92551872636523 7.057871516284911
Mo 3.6770123527586382 2.931128895951108 6.059498445825464
Mo 10.543108115496834 4.41085088170902 7.147080528289626
Mo 10.174776110012122 5.923429141122409 4.148229170043098
Mo 8.561515001984851 4.109341418479439 5.494039624898846
