45
Energy = -415.48220335 eV
Mo 3.968779001855458 2.0479142713456366 5.916167067533421
Mo 5.05186218435937 2.0801267096239004 4.214400427459099
Mo 4.73496588027381 2.67323493024733 8.659319213664716
Mo 6.782559732904317 1.3598200746467874 6.268621310002582
Mo 4.045844231452445 4.379754294278586 4.269016242062767
Mo 5.430319141158139 4.57909709803817 2.2173595091407754
Mo 7.07298178198165 3.8434383275067243 4.083740916807813
Mo 4.5183412416936255 6.60552160599567 1.056037446014847
Mo 3.2109163544675265 4.727668021125465 6.931619616478813
Mo 3.3792112116131245 6.586886455890741 2.7783393941754304
Mo 5.741625020022428 6.151401132162451 4.589024142669064
Mo 2.8240467896451826 6.341365835369797 5.819710096027743
Mo 5.6091505471589125 2.989709082564317 10.354972587923129
Mo 7.111897636486619 6.44517213266912 2.542778297426855
Mo 7.256779083249813 8.22789651736396 4.913391443625287
Mo 8.59093359123059 3.69964850302591 6.319826000174612
Mo 7.028196967330167 4.499273948251686 8.793031144030952
Mo 2.7459968107371044 6.836256642454952 8.738717916075899
Mo 5.891084874084163 4.016367471932668 6.432809949616323
Mo 4.316038559947587 8.4523938233928 4.682030597200223
Mo 5.559093634837751 8.362396797249351 2.516938679301551
Mo 3.9597405849787015 10.783074064089746 5.394180637790556
Mo 7.36288444067126 1.9220296430681456 7.976239036405498
Mo 9.53122918438584 8.13439598207706 3.0996812556089623
Mo 7.902866120261301 6.284935609512563 6.98451914331081
Mo 5.2057254829585835 7.070389872772467 7.1723450478469575
Mo 8.83097185927423 5.749515628161839 4.582087771113303
Mo 6.176858673910792 10.47115339412931 4.056417503933144
Mo 4.575453925127841 7.483296862777851 10.78395362535351
Mo 8.553637063540402 10.196535070841193 5.013508704718568
Mo 3.1082166536549978 8.809109791370638 10.052634208438445
Mo 4.631863754905776 5.4437123302242725 9.198883144110637
Mo 9.458102498422608 4.026054044654176 8.430272980288322
Mo 11.162603052540943 6.385429777392829 4.726007081292538
Mo 3.5937913014278045 8.89135360055536 7.323319732209966
Mo 8.219772115471443 9.222073086040526 2.3303962392466766
Mo 7.014602834096949 5.60041884640775 11.332459254556982
Mo 5.457948521419844 9.383417663931118 8.880171348855994
Mo 5.926153790633216 10.15422528487464 6.487159164860531
Mo 9.90926334932515 8.01839650135578 5.905146474277806
Mo 8.023544461321917 9.090857036167876 7.538361684319207
Mo 10.399248689417426 5.903271796263778 7.1277841868000555
Mo 9.474715310346207 7.8476202207214625 8.695583917095878
Mo 8.750540965868781 5.771811750404868 10.577833604955158
Mo 6.852354590087816 7.341916846045467 9.314790530819636
