42
Energy = -387.48139468 eV
Mo 9.251314498055413 2.9994330823219912 1.9121617142176175
Mo 6.523103595658597 3.5917756225269155 1.8457413407577747
Mo 4.6882507405249445 4.017332296592098 2.001715439172642
Mo 1.3184991423769228 4.486384985877497 2.28410312935343
Mo 6.338288123103481 6.211902735685572 2.6666215959644672
Mo 8.982264922358155 5.696382291385536 2.0281532798656383
Mo 3.3044323299655787 6.22464147625776 3.21704751112465
Mo 10.549978914457856 3.5814756854102 3.354645837097179
Mo 8.311255384287646 1.7300631799425774 3.9983240055139353
Mo 0.7797856860412596 6.681778560831483 3.7622406803329693
Mo 5.672266383185208 2.691896097812381 4.257251554308523
Mo 3.04859893300244 3.7549130445716963 4.303637654280861
Mo 0.29268168631864006 3.8032275166405123 3.7167481447130806
Mo 8.078170722212553 4.3560893345939835 4.139182128106807
Mo 4.993810596686428 7.8406453419253985 4.368448942045707
Mo 7.870061078071599 7.029250362509477 4.423271380379676
Mo 5.496090872002208 5.173489739187034 4.7662683114962165
Mo 2.7631071211997806 6.198916702513272 5.676756400027294
Mo 2.1956791882137243 8.68877151113662 4.210999569944241
Mo 10.260752752541551 6.228540850949665 3.685629911684143
Mo 9.376299466313805 2.4272180343362306 5.721664883417599
Mo 6.935997552267202 2.989152059643984 6.319600689888994
Mo 0.00598531130259928 5.688020773373075 5.74287665742715
Mo 6.526849677729545 8.431073085249263 6.04019809746467
Mo 9.333285244562584 7.778299904605407 6.697462044142476
Mo 4.183481757037355 3.776592040638559 6.462554026892897
Mo 3.6939286075604185 8.786836328847654 6.482938377271619
Mo 1.265459661850338 8.294390149155992 6.113174119083933
Mo 9.907654035583102 5.084014880498585 5.959968257992009
Mo 1.432521404230358 3.970841482246893 6.312659865284746
Mo 7.447258077997084 5.674842604485421 6.699766653650771
Mo 5.033155304940651 6.615181755451738 7.152059080322567
Mo 1.3270863908315818 6.260165240078263 8.206359822936383
Mo 8.781422597598153 3.787922040605789 8.001101773406159
Mo 5.789217003243433 4.300544860237008 8.485917158105975
Mo 2.822156053733375 5.1866458805415565 8.518967169986233
Mo 3.3811494156742943 8.140682254824286 9.033462764567503
Mo 5.15009647733329 9.159322136973504 8.682177297383802
Mo 7.25827199282508 7.60944704759719 8.505410092886732
Mo 9.815579340712834 6.50491975265815 8.200001362440622
Mo 5.215014830541235 6.485678590329701 9.659604915321337
Mo 7.714568575946059 5.176130129028414 9.497957809817741
