45
Energy = -417.9530486 eV
Mo 7.770733221973328 3.003455729750217 3.8614964836637022
Mo 5.180601751602655 3.9564804403496656 2.8530283111089014
Mo 6.677694615769349 4.555085199263784 1.7427969445666
Mo 10.252907554789362 2.522689362672507 5.120466437843629
Mo 3.1371559765574832 3.364661721010762 5.579269239526597
Mo 9.415522127330146 5.044943068391414 3.026363550535164
Mo 6.193890281269422 3.143322826502316 5.378691633160743
Mo 8.00750260823394 2.603403667798387 7.208708226151294
Mo 4.975428848818525 2.841820658434265 7.808519670059908
Mo 10.933122447959263 3.2443095213772644 6.734489372007471
Mo 2.116187002338608 3.2007986783842104 8.427222809656508
Mo 4.78879628332698 6.681531093530235 2.696470823753488
Mo 4.669483248193477 5.520488966869478 5.2689600237365655
Mo 7.069782216330584 5.603668405464082 4.202999945155037
Mo 11.042616582688588 5.0836228909481305 4.435200784843897
Mo 7.397029553755522 7.686194723378185 2.6269368187594164
Mo 3.1225637337680565 3.5616240682178844 9.912206682486707
Mo 2.8771996328383387 5.9925604143144815 3.5785741812457865
Mo 8.759621995699785 3.8887094685479493 8.619565408202796
Mo 1.9018509850930385 4.833726879422135 5.967506233043536
Mo 8.962802272973287 4.8618493672035585 5.849015473780441
Mo 4.02924728785358 5.22968717442842 7.778715596245117
Mo 9.357204920269927 7.300800393714989 4.195037703646266
Mo 5.5390513229588825 8.072887774041174 4.81709770760408
Mo 1.8924167498015056 6.320310120725536 8.657784188895814
Mo 6.0234569025742974 3.9179092521370187 9.484923114830258
Mo 5.298890967617114 9.683011665817245 2.4775789824848946
Mo 6.695562463990547 5.143291947900141 7.258894668768837
Mo 10.61116103547314 7.251355645679107 6.45443893787858
Mo 7.6919355901862785 7.4485798254278555 6.25186064363663
Mo 3.004148722326006 7.402558073503692 6.0946792578205615
Mo 3.209463737675223 8.625508621043448 4.060433078941723
Mo 7.6635014835997755 9.440558306051654 4.16058049163056
Mo 5.4156613236571625 7.619842615924436 7.6828540527741955
Mo 4.210419959896419 9.767923638680909 6.473150983725682
Mo 8.895663594389978 6.566953725787186 8.302759391410223
Mo 4.346406330077719 6.254842803081668 10.011734631871116
Mo 2.9429973272649854 8.102412750344412 8.773993782596268
Mo 6.8219347894437385 6.322799062299103 9.710745299311867
Mo 9.712421929593242 9.028900141778923 6.714244141378289
Mo 5.211380991671452 10.790904060190412 4.007842934569899
Mo 6.644349475568802 9.965993434669901 6.55386531918636
Mo 7.519800510120696 8.676228400928682 8.712315274936461
Mo 5.126038362057516 10.134658889530568 9.09389974127832
Mo 5.3718131381367344 8.794276559432324 10.418975989559183
