40
Energy = -368.79023738 eV
Mo 1.7458283160036867 3.487043320842155 6.1889254207324464
Mo 3.6756101486903128 1.4944564720024618 7.384808809854776
Mo 2.1733601703447816 2.177363696877465 4.830995417246869
Mo 2.8003072784820313 4.538438368817102 3.444302593254888
Mo 3.463982953850378 4.7384291052284215 8.348389759386249
Mo 3.1035902605882377 7.535407665135408 7.323502459202069
Mo 3.0746205428163904 5.78982445541867 5.546427015723925
Mo 3.336094979722345 7.358489773774736 3.2847905111383446
Mo 6.339829828423681 2.0547399015615384 7.1776230481742465
Mo 2.7137834467039066 8.75457025014474 5.292307993281213
Mo 4.38270903006418 0.6295904934622057 5.734135703714091
Mo 4.510782870641737 3.4836273851854216 5.860169332870934
Mo 4.594231989547832 2.6596577982695147 3.598903675204336
Mo 4.416341051577524 5.367360309019217 1.8462517662129898
Mo 5.280649775308679 7.170327864811193 9.314504386810164
Mo 4.779816705250561 9.569459128473255 3.0478246983084945
Mo 4.603289040728306 9.365557610409633 7.631595165845495
Mo 5.735595548390893 5.696296299938851 6.949610001993378
Mo 4.969862259285494 3.934170188938507 9.068434742651684
Mo 5.323696312170726 5.5036758498946785 3.989763428627354
Mo 6.046922833576544 7.844257396100256 2.738212268679351
Mo 6.6369629038059745 3.6618834358081593 2.489386861010285
Mo 7.254465918343779 4.162402557119849 5.266353473550925
Mo 5.062172568024032 7.858813302074757 5.300312259567135
Mo 6.789174071234786 1.7542036150846163 4.8892363976042
Mo 7.659767450197657 4.038210691430769 7.9887064905962815
Mo 4.76221440550118 10.451600227808067 5.470720175460945
Mo 7.015223039937232 6.366680781942647 9.43683106511714
Mo 7.012333769572257 9.783045888731817 9.070688838541871
Mo 6.916117583339903 8.029669950783621 7.1345710398782005
Mo 7.917985472358683 5.346807718918515 2.735424914772008
Mo 7.685897377490155 6.847227378818733 4.825615382627863
Mo 9.266481840756583 3.0127161266521494 3.70968278241792
Mo 7.0398550824427435 10.735974247015404 7.398906603307621
Mo 7.0418344271354805 9.496566738613865 4.831377347188518
Mo 8.992442598749127 2.868810191690793 6.458459243519905
Mo 9.48230566630054 8.359370414061958 8.061983429175319
Mo 8.740465765249173 6.094542048143572 7.0078525360536545
Mo 9.39014304167936 8.789288212355753 6.180387822316834
Mo 9.841382695070134 4.707050338793754 4.620484611320892
