43
Energy = -396.14674298 eV
Mo 6.853528471109121 1.6169834054336736 4.282228298242406
Mo 9.087933845315494 3.384259749465402 4.819950862079548
Mo 8.875614537150108 5.604427836926295 3.0624252467827517
Mo 10.456846903682377 4.849072523863113 4.964347016563838
Mo 6.575449225924947 6.090093043616691 1.9254658661051731
Mo 6.529739493620066 4.326949912343393 3.5843421769291877
Mo 6.160468648121485 0.7257036189519613 5.920959208953934
Mo 6.950471780664462 3.3281255885863623 6.455247581788107
Mo 9.812310202735139 7.520555407823426 5.441069351023038
Mo 8.026307607273408 3.5543073064057045 8.873456002533969
Mo 8.163160792950903 7.863540953590761 3.405486461023767
Mo 4.553076136444785 2.752398936670158 4.617656008600311
Mo 7.66525610963504 5.861138745813086 5.454560033712733
Mo 4.085392102117205 5.082749316774434 3.128674034709384
Mo 9.530276131844065 9.642325045381813 5.61920419982836
Mo 5.475161432441765 6.943214015398463 4.2757894150178855
Mo 5.8559216127775775 8.810452674749245 2.6579304401588812
Mo 9.200507455923153 4.917938220114523 7.25439437304886
Mo 4.383718438942947 2.165942385839848 6.907384671474657
Mo 4.798207432125341 4.808147036283318 5.959014497144201
Mo 5.922466243881896 1.68523563517821 8.983127526660041
Mo 7.544655276675223 10.78306416178933 3.776328130135689
Mo 4.395641421491245 6.9803914451679825 1.6099697007586293
Mo 5.581197456356192 4.401884214406211 8.738056397291901
Mo 8.689852685077106 7.477310684097912 7.651549803109417
Mo 2.8710617738782407 4.117675691723426 7.75179839973823
Mo 4.207830203579002 2.256580470040032 9.656412433294841
Mo 7.008171563124785 8.716643037910595 5.674928849929666
Mo 7.201081718072333 11.577672295890928 5.462794893775194
Mo 7.676616398953665 5.704132662315241 9.579853456907673
Mo 6.065520801057179 6.77051379176976 7.497767808533645
Mo 3.107778344096423 7.8395375819384325 3.6639097002390604
Mo 2.7609968485666982 6.193029066372011 5.174248153940773
Mo 3.6521536280619804 4.883745182032945 10.623093244701677
Mo 4.964037969194281 9.913235771275454 4.625087658508155
Mo 7.768017012069118 9.86594063792598 7.709462371430103
Mo 4.111111164268661 8.032532439150819 6.377404018583465
Mo 6.839811449085306 8.21578546396664 9.593032788300256
Mo 3.2561467247509848 6.09918796811259 8.139234892749574
Mo 4.934711474066861 6.293968145463986 10.521281595847448
Mo 5.252840209017735 10.420458030803184 7.154667891914284
Mo 4.312533565496071 8.509310486600077 8.885943675455318
Mo 5.703023426305027 10.355484689915478 9.41002463002165
