46
Energy = -426.15991651 eV
Mo 7.17594466998862 3.0438984701687226 0.14380707453321445
Mo 1.354943266771734 8.179398645719466 5.267375904767027
Mo 10.111015511640176 3.853048157331081 4.340760706871888
Mo 1.5344682889482972 1.493683736487762 4.936229998239405
Mo 3.0027758302339063 0.6712656105559359 6.688135967086882
Mo 6.588230747083389 4.48939210761449 8.703055826226791
Mo 9.508926668461225 5.765709012441991 4.465495825665638
Mo 5.224359007322898 6.777225051594499 7.946135059788342
Mo 6.161063434475159 1.268089974851479 0.2937535377513044
Mo 5.715629890641552 0.7005263026505094 2.95951671028142
Mo 8.034592143942337 3.538527283804168 6.380569112973996
Mo 4.491727716278562 2.1833674829121974 4.887197662857227
Mo 3.362458537612282 5.191084225575796 1.6670084482032752
Mo 7.543812735955298 5.936971379391955 7.473675380729173
Mo 7.986333050644622 4.960630923237631 2.3989514068383166
Mo 3.638294251628486 1.6004377933298723 1.3359039542817037
Mo 2.966577874715061 5.254041756032145 8.618851070146347
Mo 5.14531659336446 9.970579256404825 5.689717703210131
Mo 1.901408414529768 6.8988972458833535 8.36912343566384
Mo 7.256025662313191 1.5273579468263743 4.9579123519014185
Mo 5.637531855782898 5.418459999830305 0.4044445683280489
Mo 2.2983639433477157 3.5531608460269535 6.081751929627734
Mo 5.979823239533731 6.634919293803504 5.266601546518298
Mo 4.516939166009729 8.368063345655994 6.122549086888204
Mo 8.713501438694655 5.707569435037936 4.615015829088429
Mo 5.278984778427839 3.258893282044774 2.1912597875490163
Mo 0.5793484793990139 8.238923611515519 3.5231017364437287
Mo 3.483315695871593 7.582696707256403 3.679648386875075
Mo 6.671890994289958 3.997920364323516 4.37671972465859
Mo 9.508926668461223 3.64708422372636 4.426380103530628
Mo 2.08830659369274 7.189781497425889 1.5903277614816396
Mo 3.280198283931318 6.333824456461357 6.1935996541782705
Mo 3.3977313201272428 0.31369675293093996 3.6585959727357196
Mo 2.3531616783712996 4.933154784952103 9.720984858392452
Mo 4.341327189432328 3.4904444967800257 9.97912664812922
Mo 2.3301794677394336 2.996125075372939 3.084902026335245
Mo 7.713413940699888 2.3036729209084195 2.4881722878798773
Mo 4.150406977056465 4.798343630959035 4.204414524034197
Mo 5.894487033183369 6.2123751004576615 2.641853008031661
Mo 1.7716047710639962 5.71026639488506 4.039063942092218
Mo 0.7117868765927573 5.5372000961134695 6.574677751090034
Mo 3.86691069668882 2.587028954641829 7.82336092620017
Mo 5.989690121986303 1.248880061634727 6.977772303337479
Mo 5.203171237829527 4.335449257446196 6.723855165600321
Mo 1.4098893861615867 3.2836998690882315 0.6233426449370131
Mo 0.5390597138684845 5.112854495265401 1.8791565328143593
