44
Energy = -407.41480237 eV
Mo 3.9124314506808764 0.9291511894768661 6.106201960942814
Mo 2.7090743835806808 3.1424621822647163 6.056297089491235
Mo 3.0674912652517636 4.134428629269183 9.889737550015198
Mo 3.2828178094066818 1.757472366942772 3.517904313463949
Mo 2.016559343210152 4.609570813827996 8.14086222112712
Mo 3.721297051231133 2.3125498621577334 8.305697755156672
Mo 3.730803103420589 6.54672727758736 8.943562657683827
Mo 5.753323082311078 5.171573480949802 10.21721476287731
Mo 2.4290835719578374 7.4370196334563285 6.99069034805333
Mo 6.18222318392152 0.7306933436343287 4.347063391949745
Mo 3.2226964459673684 7.143435489690418 3.301060361686488
Mo 6.293118443002179 3.392906922619607 9.542097643801386
Mo 5.879339474095211 1.5392533634833405 7.088986705094621
Mo 2.883683487808154 3.7274426304793766 3.3919304825785623
Mo 5.113498018905084 3.165416021932399 5.080173442182297
Mo 4.833907518370601 4.425974264688434 7.585298100086909
Mo 5.291824963598687 7.155662267186417 6.957023316634147
Mo 5.521671019327201 2.759645389256187 2.6078897930120566
Mo 5.869933269982167 7.842357851909147 9.40243466679421
Mo 3.450305175528626 9.175497876222256 7.788379853902439
Mo 7.459419267168934 3.491135912591312 6.983790863158862
Mo 3.677218900935011 5.752033603586401 5.451336795637626
Mo 7.585108447357423 2.1074629342853317 4.494859068152048
Mo 6.614321282207917 5.269597900261859 5.360500871536718
Mo 5.076950337329031 5.188742095433804 2.9265870516379575
Mo 4.118720808476109 8.916266672767803 5.219390789516021
Mo 7.3259867607174805 5.8560839598411345 8.19548058036246
Mo 6.04558158061514 9.535984130677951 7.471865279158436
Mo 5.884399579783649 7.402539344619906 4.113102019797097
Mo 7.633210172934225 4.530381463285789 3.0441819578586045
Mo 4.654166212573137 9.635571195535421 2.884515264320063
Mo 4.524964127886007 7.7654533726230595 1.6152836918952111
Mo 9.058374118967976 5.0457350107858225 5.833786773840476
Mo 8.079568397891455 8.492488571228241 8.716807916039594
Mo 7.890782296936597 7.785344572719706 6.212662931996698
Mo 6.972530701238207 6.353041435784392 1.7264902361509948
Mo 9.923326826387507 6.534879148097304 7.781416746720517
Mo 6.66165131096454 9.826718671370172 4.88590512079675
Mo 8.557304424030344 10.585665176953574 6.795964108760494
Mo 8.603322016756678 6.769011447265329 3.721789168767877
Mo 7.273314010959086 9.083829529600113 2.6853143352403785
Mo 10.625043393753058 7.158966652498448 5.914514537280545
Mo 10.056558711277908 9.502151848746974 7.170805358536655
Mo 9.181163543242622 9.005292801312848 4.277959982278436
