49
Energy = -456.18757568 eV
Mo 10.310666297153265 9.572063396631098 5.358425507098011
Mo 11.373398470353628 6.656673417723348 5.601970532437148
Mo 11.263795987175957 5.9494298282538045 3.902586057479276
Mo 9.42604764207092 11.250186151055711 5.159022880956197
Mo 10.307228459680267 5.4063292286478495 7.930965257170249
Mo 8.907586252353804 7.282280931474453 4.450763261459537
Mo 10.283081908733863 3.9317520282521627 5.698189187962967
Mo 9.376210990451497 7.916670999241138 7.516875777695984
Mo 7.872025214214348 9.561881620226075 3.8482510311380196
Mo 8.34540118153278 10.27479149641312 7.270002637941947
Mo 9.245362521382201 6.557066046820371 9.799860553827576
Mo 9.37283588531261 2.8955116898721704 7.468495132057147
Mo 9.099623945984671 5.776667010675841 2.1745066816978413
Mo 8.340230767658607 4.478945943558704 4.036559632595923
Mo 8.029965352315982 9.317274841605391 9.492806253708105
Mo 8.300597705440426 5.645185293824461 6.504077963515839
Mo 7.338840393396837 7.357148779316731 2.427284619363542
Mo 6.102880320651482 6.283956150496206 4.557094733572944
Mo 6.90801356002905 8.286404081983733 6.100658134958789
Mo 6.255513658589337 11.010845246197784 5.68099470309632
Mo 7.840295465679739 4.5577517308987066 8.948720505434085
Mo 7.535619841778888 7.735121016616732 11.358232292139771
Mo 7.492074331471482 3.053235602659206 6.0460232048032605
Mo 6.971283287932969 7.078516277909919 8.63633916383858
Mo 5.604483839833703 8.813756373424535 3.7936168043443086
Mo 6.433442763704091 5.010865821019572 2.223186468304669
Mo 4.4942316114088525 6.896136655718432 1.9942370225799138
Mo 6.668349482375081 5.671416772003303 11.01942293069955
Mo 5.5740592238451745 3.608611860581148 3.924007736249294
Mo 3.9026481753389466 4.9072866180114625 5.597878810208985
Mo 5.786840442082246 4.697612786470168 7.320122351951228
Mo 6.290806858433519 2.065649530536628 8.27466770810614
Mo 3.6588094032692666 5.323171037791475 2.8135956805380182
Mo 5.249789005932263 8.111084474964107 10.174745494862869
Mo 5.9079464681668155 9.636368581573294 8.234634691121936
Mo 4.4979986139464305 7.260423690963053 7.1601082228610435
Mo 4.545569620618603 9.944088789361107 5.855460107443169
Mo 3.499580668306527 7.4286406023016 4.676270819290352
Mo 5.760814503375383 3.0808896199483966 9.877828300924678
Mo 4.709869069856288 2.3296683208015483 5.953727816011583
Mo 2.466130523855536 3.0144822703278744 4.143903009517816
Mo 4.6779473179010935 5.682321563513327 9.462094593143128
Mo 1.6534224733823275 5.830310183647203 5.014539453434895
Mo 2.64079446166275 7.567576628407931 9.464939398842453
Mo 3.779981486626958 3.249423745578943 7.878476417420102
Mo 1.8887412184050585 7.658367453207289 6.68494310686898
Mo 3.1565458396885653 9.24157936154558 8.500804879566713
Mo 2.4141797045363482 5.512502907040547 7.60265243635128
Mo 1.7279271353127998 3.0468140497048948 5.852373829565125
