46
Energy = -426.25631642 eV
Mo 10.121090655863116 4.094945205591347 7.921079894687218
Mo 10.756780301872487 6.8270614905433735 7.8977562241209105
Mo 9.691804652481164 5.486142139035403 5.839250649648491
Mo 8.630408662460283 5.8722272085832286 9.376472522672415
Mo 8.160678449133945 3.1970587015184333 9.397069013515653
Mo 10.893759713845311 8.898538248518275 7.325450563311091
Mo 8.950954203471477 2.68870449394523 6.692743094216088
Mo 10.341273720423954 7.863751357964488 5.2279543339080075
Mo 9.153406068295824 8.61869837235516 9.637109128251026
Mo 7.0138365931749815 4.889192503820861 11.426297844349797
Mo 8.929351304723726 6.151036741889952 3.257403217312163
Mo 7.4348709658994245 4.96465600680733 7.264493237376047
Mo 7.867466724505352 3.860502625800672 4.565237134086219
Mo 6.561214029527974 2.695928440600267 7.673740885037225
Mo 7.970958851681385 8.054999681736344 10.999545615525836
Mo 6.611070561263508 1.8262414396817486 4.953642394470092
Mo 8.510047534453625 9.909523680139756 6.704443039367198
Mo 8.30036995385392 7.603136477744793 7.090502406025076
Mo 5.876125755112162 3.575578516601038 10.546362649530371
Mo 8.1045303571643 8.74466500248564 4.291918826880722
Mo 6.979046542566169 6.640538340187628 4.968292953027881
Mo 6.10778557942269 6.2351692910190595 9.476689432911805
Mo 9.782139801564588 8.052447245112607 2.617475292198678
Mo 7.11442580092644 7.588906963933272 1.8006816930020064
Mo 6.524859338810563 8.982487790120889 8.688404741996074
Mo 6.429115072244603 5.005142432837195 2.875401365656562
Mo 5.015153835763444 8.274449542869569 10.650862782691517
Mo 5.533269561571776 2.6290707835888734 3.423498136695624
Mo 6.084900012916944 9.316877912398258 6.141049208897203
Mo 4.70455113571773 4.315533053263209 8.166600524471043
Mo 5.136053214801595 6.98592699528917 7.048884246370207
Mo 5.549757366684109 8.742769060130714 3.6003653468905843
Mo 3.5840177748557362 6.218485058978014 9.441608379552278
Mo 5.342715464540539 4.21782270797831 5.567910156786162
Mo 4.291084056336434 9.61699453517748 8.278485747536424
Mo 5.105257233207901 6.9149782670641144 1.7380255683498071
Mo 2.9658732620786727 8.612915512923871 10.092907116193494
Mo 4.392057796921798 6.423906245476706 4.354741700029267
Mo 3.6578052047665737 4.43086986405024 2.2783305140311114
Mo 3.7059429430710775 8.733497445672374 5.555630874876744
Mo 2.9751456534115914 5.34163393067261 6.636975974554058
Mo 2.579480501711906 7.517257427999806 7.591576841842911
Mo 2.853126579919731 8.484031451118787 2.8362314140391005
Mo 2.8796332513323204 4.142284124042767 3.979914045155782
Mo 2.154489854553617 6.792893235091156 2.3461270627465773
Mo 1.962082214525343 6.906410563235616 5.005496155996557
