44
Energy = -406.13206156 eV
Mo 5.172851840523652 3.0113488469157503 9.273832303050547
Mo 3.936112633486737 7.140142988226008 0.9945584196289308
Mo 5.973940414569805 1.4605695460202643 1.6250719870843835
Mo 3.373061364635595 1.921225225545932 0.19047749398524816
Mo 3.227539364053531 4.8011893488753765 0.054379882024460625
Mo 7.8800425652783295 3.5012657982381645 1.8095408629529508
Mo 5.568173827811328 5.252944365770902 1.8256845292858424
Mo 1.3484953804974853 7.521032214146997 1.2363990002207124
Mo 4.745740963185484 7.506184785599714 3.473974738155516
Mo 8.555374673753208 1.9306014358117072 2.7154966328755625
Mo 3.7960775738040917 3.1606246674549108 2.414233435824509
Mo 1.4692799910401266 4.002028922960709 1.1940268802048366
Mo 2.062315495341944 8.373621413819404 2.926750749798487
Mo 6.949251707900006 6.989107678229297 2.1780382026935086
Mo 1.713395525041655 0.8892319157587729 5.063399360297394
Mo 1.6179601102773742 1.9011825890997076 2.742896480418968
Mo 3.9125585007388146 0.5397348733802754 2.888075218415906
Mo 2.730172965032494 5.72653773667639 2.5899881492686947
Mo 9.476515383227635 3.9728786198884363 4.324139835925718
Mo 0.16655282775238991 6.107758907703149 3.602076044959769
Mo 6.283346871944053 0.26499232269155304 4.357753099729089
Mo 6.079289189761833 2.7436755232517878 3.797175658700376
Mo 1.65279582009035 3.76019439493755 4.423350478655812
Mo 7.228709696128859 5.2657052771582125 4.129726880434194
Mo 4.442813686942736 4.865658826735311 4.340132165154004
Mo 4.041912939923921 8.81527833354791 4.965954824383999
Mo 2.5239182641711033 6.690250635446193 5.201026174972678
Mo 7.0553580819010815 7.706335957309971 4.820266383728432
Mo 0.11803806976033597 7.540839277376018 4.995855684627437
Mo 3.9491186397133307 2.1272260625457324 5.257520922818484
Mo 8.256366349128262 2.78036866978325 5.466469687218085
Mo 4.05139156099871 8.596407421375519 5.572683658361068
Mo 3.3781425896594195 0.5505779911186782 7.552390105202484
Mo 5.993251094269426 1.2104793795238158 6.393432616796934
Mo 0.6017860801644019 5.313957481053534 6.51515954790322
Mo 1.4613169991655712 2.541006556586734 6.685266908542959
Mo 5.37408016363694 6.639336534172971 6.091726394982645
Mo 3.274077878002647 4.435536792262157 6.646948674230928
Mo 6.00967525309956 4.013500800045077 6.540453263457225
Mo 8.02874016753581 5.393527641440988 6.379418485370637
Mo 2.8639852956418843 6.792163700200005 7.728053206118362
Mo 3.900093019659923 2.241210357777574 8.225676503208875
Mo 1.584793846046985 4.996478052667992 8.515254115770611
Mo 4.914044600790312 5.107016710426213 8.37620093211396
