45
Energy = -416.8754101 eV
Mo 7.41699425729542 8.4223615981301 10.146745827680908
Mo 8.385175327408053 6.422041572200785 8.20812033859339
Mo 7.220613058544023 5.972093638432293 10.492895285369496
Mo 9.572826628690965 6.0321307488168205 5.730926842857388
Mo 5.383396968710153 8.364772898191523 11.170927291685915
Mo 8.730092425347372 4.062171767249689 8.290785669438621
Mo 8.905127644407683 8.69122612321184 6.578390125487445
Mo 7.275814855274394 9.366096922462866 7.751125846673984
Mo 10.143262837484663 3.5837731316055756 5.381929942741274
Mo 5.007266646439279 9.69960540700108 9.22964206277798
Mo 6.78953773631391 6.954984396756797 6.273930805509
Mo 5.4366731001722695 7.2953362556988415 8.584898724542285
Mo 6.278300431856404 4.622177405798305 8.669211760392267
Mo 8.102964511765412 1.6605836734048969 6.454043922765292
Mo 4.836212826564643 5.877081525566323 10.653600512074405
Mo 10.041386225225985 5.2098228011893335 3.5198295212137394
Mo 8.575312163730132 7.924832489026208 4.102180428346753
Mo 6.583036704471601 1.9793942322085276 7.445150185255424
Mo 2.887834200780467 7.8921105730188525 9.826694858248223
Mo 7.625071546241531 4.3621321036720095 6.13587142165248
Mo 6.965551451219595 10.106566046982966 4.898651755273373
Mo 4.967103122943897 9.301145510471532 6.47824970473204
Mo 8.671507433829772 6.978710778580106 1.8900568393808874
Mo 3.9598663645041556 3.5013883559355765 9.301244354944656
Mo 2.816690254283012 8.379155047615066 7.966854333211137
Mo 7.4726125808369845 5.510051885042333 3.7976595164803646
Mo 4.0549461135704945 1.4262688266660206 5.775225621288971
Mo 8.541981551378115 3.0444635186775084 3.749739713351432
Mo 7.030459606387199 8.686237208527812 2.157887625949082
Mo 4.750327291543305 4.005695319100383 6.653016139376298
Mo 6.083560370575772 2.7130986593152433 4.622048139990216
Mo 5.677136932314861 7.7236794901286485 4.099587753662792
Mo 5.229514570181696 10.316374013909106 3.9064895190498388
Mo 3.147727173025851 5.488954059612219 8.483555866185066
Mo 7.977911870686033 4.362600640724602 1.2508240452116999
Mo 4.851427420872576 4.907443949087 4.145327857694354
Mo 4.008081472038193 6.657792509842539 6.03422739430385
Mo 5.963985653051342 6.374150242506586 1.8432775170120872
Mo 2.5365463652356652 3.0012127122481935 7.350775755938732
Mo 6.332762723226774 3.6045112867604425 1.9754236839828223
Mo 3.195899657523741 8.646261071166508 4.875906224801717
Mo 3.241816085311733 2.849981290709093 4.57884732924444
Mo 4.073459436007096 8.265964040252273 1.998111653471434
Mo 2.148237778431156 4.991843615045674 6.203694524106901
Mo 3.2529825808441473 6.7313372511096485 3.0390261863896004
