41
Energy = -377.29919193 eV
Mo 3.580672556256556 9.129385120263029 6.401753224871208
Mo 3.0981705411930207 3.864019500214507 4.774701272731907
Mo 7.081829049330416 5.424341181197072 7.164561495340579
Mo 1.2318556329624595 4.764823835131745 6.647084515184792
Mo 7.294266956207182 8.7706477865175 3.9261792075463595
Mo 3.5062798773753148 2.8569791156086897 9.314819550164671
Mo 4.996716880207767 1.690320912882735 4.589108152288327
Mo 9.910391657506633 5.10256717517075 6.762594313050065
Mo 8.289476300958558 7.5733750040716075 6.083644189044434
Mo 2.3626413603603553 4.589012380178119 9.298961591337477
Mo 6.5639789054285655 4.184837508617454 1.0125351493344064
Mo 10.557972296592045 6.275723626401014 5.404460823969491
Mo 3.081960359488253 6.5284670151113735 5.564069001224097
Mo 8.175998942711908 5.224727191710118 4.675838394722087
Mo 7.237576830244614 2.7793713451986384 5.962207844749967
Mo 4.559069781872059 8.182988367679245 3.4170708444496842
Mo 4.846103780920428 5.186638434815729 9.9871794443399
Mo 7.686200350265858 8.09889097763022 8.455408655009842
Mo 9.409609519690504 3.110813974098107 4.674603411172315
Mo 6.429611283301877 9.134670782081761 7.021016902821217
Mo 7.469007050829731 2.9073178463427563 3.4437670175686033
Mo 6.5314590560968195 6.237846497040478 2.855458138509403
Mo 3.771528987847907 6.076286496507121 3.1938204971907567
Mo 8.951383600728255 7.648997463174903 3.2408686207770914
Mo 4.4910308097811384 1.96127105023906 6.428719291547464
Mo 3.87998104459726 9.602851136082222 8.19076672694966
Mo 5.05742001299762 6.301256698900677 0.9661116113831193
Mo 5.9990707689368765 3.4916976364944916 8.336441771050724
Mo 4.148080016087573 4.759945674853084 7.283547813055606
Mo 1.8424881082517721 2.949545800585572 7.0349345978807944
Mo 5.062236347333733 3.7140536363936776 2.2601166424572234
Mo 8.855856818756019 5.13834713319441 2.432682565206608
Mo 7.036784817832411 5.782070432852559 9.644635853448072
Mo 7.886987981540408 6.972486655265492 0.5167764893930528
Mo 5.631852338211226 6.994956539203577 5.347760345894964
Mo 5.517513921117165 4.38643539638516 4.898842156556784
Mo 2.470879501673225 6.964549900512594 7.894209642328607
Mo 6.7246454790743995 8.376341427855213 1.195987531742235
Mo 5.50260196721474 7.922416547877082 10.574127536841495
Mo 5.042418970852881 7.085266278814219 8.022215424275775
Mo 3.6355320751041824 7.587583891436503 10.375260019747596
