44
Energy = -407.63264006 eV
Mo 7.199357550602161 6.671025707527054 1.3189408830629037
Mo 4.656643131644307 5.636356210793749 0.3573903671748148
Mo 8.41093586511778 6.437669830798133 3.336776274969546
Mo 7.14043755608163 4.455263383472051 1.652191421249109
Mo 4.562320187269327 7.490202875275601 1.0409495820947519
Mo 8.320996540567734 8.174158845247506 5.478445976825198
Mo 6.179255662057788 8.257321393882206 3.4298706545132287
Mo 10.274428594876074 8.163204167784027 7.3865577476459015
Mo 9.381677972231907 5.719280828221924 5.954536534423521
Mo 9.676002741256768 5.427019285954347 8.41363104912331
Mo 7.7620150527004155 4.209024556104451 4.112865300560022
Mo 4.683530953196171 3.4838418973732757 1.8768305296743928
Mo 5.39754371311789 5.662247069970062 3.2348145077452513
Mo 7.46272088640482 9.627007898915085 7.551380191087468
Mo 3.525987017951497 7.652292411837249 3.671442440138129
Mo 7.90730135484042 3.8537976408704306 6.765918106324209
Mo 9.93582714297405 8.130319391204536 9.210975552660209
Mo 6.451391310809893 1.9705865015911346 3.2681066413571442
Mo 6.6519791398502734 6.303951160742655 5.584089892769487
Mo 2.7663597684520145 5.7048937624991485 2.158529273565043
Mo 5.6315332119711625 8.80411562443127 5.297279279377418
Mo 7.106799382517814 9.018285347659146 9.349977517266442
Mo 1.1477783226944156 3.479312359340969 5.786008562486511
Mo 1.733176280142341 1.7706981252288216 4.576934044492834
Mo 3.21884148218483 4.068931614347943 7.124517515838602
Mo 3.502345771688909 1.8493538532654583 6.276124937552878
Mo 0.6328328823968404 3.920036879100477 2.9933676833077842
Mo 3.550131756870575 6.445696741011647 8.656394323051456
Mo 1.5149671813195105 6.431874478043909 6.967411403148746
Mo 6.157739128576664 6.404562135956266 10.227962116770778
Mo 5.6031687886014945 5.0746164360062505 7.866493231524233
Mo 7.714778604353022 4.1641807265984205 9.132417826956921
Mo 5.548052815213413 3.699342657796665 5.412979267725536
Mo 4.549295225982002 1.5714834589958038 3.688350490778403
Mo 3.2184671409230496 4.007829001141587 4.229506420240277
Mo 5.082468211980398 7.874215303595188 7.756611543085131
Mo 1.6554662224820522 6.115260660128354 4.440037730864711
Mo 5.658993423510327 2.3863051911184012 7.928606724663668
Mo 7.985485685406701 6.502414781796674 10.693415360217328
Mo 6.376396838943452 1.476759498746071 6.191009488900895
Mo 4.028436432250437 6.156819493114834 5.737281310935224
Mo 2.0124637584616853 3.109348844949794 1.9018341239259438
Mo 2.6448185454750908 8.16197136136353 6.42624893476186
Mo 7.753874073310243 6.852143915457594 7.910010544423003
