42
Energy = -388.31595561 eV
Mo 6.294020405295048 5.213768177646284 1.1477369361095917
Mo 8.489267728470473 6.57082757605718 2.306225028770633
Mo 8.738551042183772 4.398660771381704 2.5752765961329067
Mo 6.234571563779488 8.454578817231852 2.660610975619445
Mo 4.673594820256578 6.7502436697438615 1.6809430244771282
Mo 4.363861891295419 9.124890556305111 3.379217892182664
Mo 4.224157652959749 4.165417357399221 2.4950529636065997
Mo 6.347315450023102 3.3159806927419075 3.285703824744733
Mo 6.445987756988997 5.930890935333867 3.552578988346232
Mo 10.218391865296992 2.808540652217258 4.420734599049226
Mo 2.7764379650566253 8.396641994243371 5.5776240640575265
Mo 8.557746061697266 1.8290085062792123 4.21797421981787
Mo 3.867233134047863 2.206723987308672 4.420698335203172
Mo 8.272782282192479 7.314443936804768 4.972991503867411
Mo 6.706427959809521 9.95903980375816 4.9737595982881855
Mo 3.5523339581678153 6.277180573970207 4.0267145556494786
Mo 2.396704077919145 3.8280726859181518 4.417762932729816
Mo 5.372359039715626 7.676330457499436 5.331288287089453
Mo 4.787973013409968 9.938257675397766 6.3935733942709705
Mo 7.969727615324793 4.314511958386404 5.367808469462399
Mo 4.989129872102119 4.560156661206595 5.3229882903382455
Mo 6.088468023919086 2.0164908224316522 5.698260429633972
Mo 3.605482702588175 3.2415505156508058 6.9627187459674005
Mo 10.219372201636086 3.9565447604525774 7.078150679263662
Mo 3.666961783826471 6.105305599865839 7.219928751119547
Mo 9.919860308635785 5.527188096384405 4.66343658241781
Mo 1.3828325795881564 4.497792710594368 6.766058207796504
Mo 2.824380924992642 8.806675674484902 8.017049395720921
Mo 6.707359639183912 6.16426231321123 6.866650708740466
Mo 1.2952251674599093 6.235792728564079 5.502490215491691
Mo 8.877702133800238 2.3572437312634404 6.924715016722856
Mo 6.245851285402124 3.336771852037385 7.549980275730925
Mo 5.415784960380607 8.171748742318387 8.119342044814477
Mo 1.268242060433162 7.283980361494021 7.906334986930638
Mo 7.474889050659168 9.10297476093511 6.8819071250116775
Mo 4.271056846566265 4.228149331915373 9.244666425677831
Mo 9.329688573064956 6.939567093256931 7.391221289814695
Mo 1.9757087547788716 5.297586843168687 9.3569887980899
Mo 3.358916640158909 6.867460652356205 9.865635008410415
Mo 5.748713068497034 5.819356250352695 9.453529361761442
Mo 8.207683120774341 4.757675547658823 8.276919074168148
Mo 8.064711522317914 7.479180669427667 8.954218901558104
