43
Energy = -398.00143779 eV
Mo 10.042449562709422 8.065267326500608 9.050856098590826
Mo 9.973416272565943 8.824558922150077 6.397006819634725
Mo 9.955517060916634 5.998094203165493 6.90273528907994
Mo 9.122776113840013 5.500943398197541 9.426966778952645
Mo 8.10227178561159 9.87218677939491 7.400441085797193
Mo 8.304286570457453 8.233135960461107 9.861390853772129
Mo 9.254665165896526 7.359910589339137 4.81857132737485
Mo 7.878579043592678 7.11342798104972 7.382695094247769
Mo 7.276810808181636 8.95461700857154 5.465498446119789
Mo 9.390130493319955 4.016626638918549 5.032723021698664
Mo 10.3473879774958 3.3571877457054646 7.853975118985466
Mo 6.738192956520799 5.9332944451918985 9.72931805354029
Mo 5.740445557612245 8.288560986731044 8.096486254631316
Mo 6.717202438558693 7.196208928096186 3.125084562467015
Mo 5.098279890821261 9.95426037158766 6.39788503304233
Mo 6.999339314224272 4.280534640331435 2.6839839570448962
Mo 7.215703530965736 5.725245946043461 5.040210660831403
Mo 9.129566394245698 1.9026612932869236 7.504666357536108
Mo 7.72151415999975 4.2952738618801165 7.380002219584654
Mo 4.767209514298102 7.721955906984737 1.4547566627640443
Mo 4.866533434000478 9.075631358065019 4.020548205562118
Mo 8.012608568281541 3.2407458458082044 9.543491848884711
Mo 5.387320911002122 3.9378540665610036 5.225285467760782
Mo 5.39483300794146 5.936785465274275 0.8647070214968173
Mo 4.5091656954672406 5.6198641634584074 3.343128455476513
Mo 7.8775067847467195 2.7562077996061385 5.053158771437604
Mo 5.141929639810601 7.293135258194067 5.591374915922378
Mo 5.293182528762675 5.436305861423311 7.469426900325139
Mo 2.4861672243607784 6.002478583903807 1.3335887639329411
Mo 2.3672120672543993 9.383484792525003 5.714209467432365
Mo 5.88629369930237 2.475501479196935 7.429972214136325
Mo 4.399129518922864 6.630219198020485 9.744125532984997
Mo 2.896944889853545 7.507300947217548 3.711552029937389
Mo 3.4006213112500907 7.7046352025342335 7.718320702740991
Mo 5.5893607327856465 3.01146226946521 2.6724566032766552
Mo 5.4801815015433695 3.6609888879885286 9.321325572327002
Mo 3.0469537704600134 4.1856443153706735 1.5134221159461816
Mo 2.9408983762261456 3.5572815251911556 4.245866668608045
Mo 3.075546666539162 5.59348851249438 5.930100983788748
Mo 1.6033413939624699 5.279770436489429 3.866498535621688
Mo 1.277627059441289 7.888719605435998 5.870586591393846
Mo 3.320139015870642 3.275550816475421 7.292125056147853
Mo 2.859608886143887 4.83461948324187 8.524106835791667
