46
Energy = -425.78305166 eV
Mo 4.849286547894333 6.269239179257124 8.758487984449934
Mo 5.9408560060035995 7.96928904757129 6.853245087499747
Mo 7.3286298435850386 10.454494574356653 6.3152313616593165
Mo 8.828164141779146 5.712089528831881 10.227347770317246
Mo 4.932912345543482 5.208099631977898 6.196685939624391
Mo 9.908371184406834 10.235177826610819 5.24098693561346
Mo 2.7433757838127075 8.543427931368917 5.227444439150847
Mo 4.959084169056024 5.858642587652968 2.4630053087486474
Mo 7.498063261430678 5.817907223618123 7.482749280879322
Mo 2.5376040123801076 3.7974507525360823 6.6236356425226
Mo 6.726925010849327 4.384238541161324 9.724796703373125
Mo 6.666104157692415 2.8006197807523048 3.7695176307201534
Mo 6.69895686172676 9.483771776425908 4.1235863788274685
Mo 7.144779221831891 2.2981763244279323 8.526736439702663
Mo 8.959849165877758 8.908820831258792 3.016002179029524
Mo 11.24365093200204 7.715861893105949 6.1532763986419035
Mo 8.173427692452886 7.827722157977805 5.2545175508695445
Mo 5.103542694222369 7.464562244477703 4.406755508727685
Mo 4.736186672964098 3.4562728546629646 8.14828916767021
Mo 6.847694936794754 5.4133319945083 4.401307423931841
Mo 9.689747878983223 6.553712588354537 8.178997924054583
Mo 7.204767998645629 7.547320818103827 9.44940890697534
Mo 7.1306923729090155 7.522887197103407 2.2342641953949216
Mo 8.740690788755442 11.385502087902427 4.197055359837919
Mo 8.910560818767326 6.2290091218675805 2.9895987305285145
Mo 8.6563638665959 8.84542238091627 7.465975379615413
Mo 5.905091357526714 6.24109631132186 11.458479077583323
Mo 5.255150301337695 2.332662270184482 5.76327021389605
Mo 4.958828872291257 8.661335172903742 10.14908016829886
Mo 3.8834498713303307 6.778377191354915 11.580908278903951
Mo 3.016270278888493 6.109523542954293 4.350319619326768
Mo 4.4150616434048295 3.9817195180760203 3.9553283433225395
Mo 11.077949887802086 7.4925542906149865 4.353821325426447
Mo 7.207447582872716 4.488925556635716 1.753795964341836
Mo 1.9575907438149933 4.129329671824221 8.432926997157498
Mo 4.456488831063801 9.870799023224063 5.798450125249428
Mo 9.202133467416632 3.733153902946689 4.228459978621565
Mo 9.557444743126368 5.257866168333155 5.540353194162389
Mo 7.330202302955639 3.3597823755808327 6.289402325091064
Mo 2.5682930259712498 6.753234245631553 9.359887885893786
Mo 5.5159176467630555 3.4649635867056325 1.472451280601073
Mo 3.632513130520416 8.746732225552242 7.829355727945537
Mo 4.016446988223171 4.4175658472080555 10.235060319200562
Mo 9.000030981828216 3.959286135409319 8.330261685345477
Mo 6.011964406974062 9.879231754806815 8.571148287617433
Mo 2.673931833964806 6.441306596982051 6.920829838687423
