46
Energy = -427.75715153 eV
Mo 9.508336640720419 5.795460811207271 3.0781682100419414
Mo 9.13438928572426 8.667151660400217 2.7793026490084225
Mo 8.046627888908656 7.163395579560776 1.698271777163439
Mo 7.371493673749402 4.282228468289657 2.0648677492080347
Mo 10.099292307213155 7.292860527828409 5.167849620649798
Mo 8.183576406501949 9.168794226980008 5.247544557156385
Mo 6.40951003807357 9.03048682882031 3.0684893861220637
Mo 10.22621134574936 4.460864612058417 5.452381202966467
Mo 7.520172515841238 6.949012776753676 4.3428848197713394
Mo 3.9177529795310115 8.136782515085835 2.107483911658439
Mo 9.483906290089894 4.272697078726079 8.114433581389093
Mo 5.801224950905333 5.720038026831108 2.6002880261635757
Mo 3.5233285127648313 9.603630182745755 3.2667178877361285
Mo 5.791239368517525 10.187997948130231 5.224963107942039
Mo 9.07071706786139 8.200241652198379 7.658275643883956
Mo 7.377855736916602 10.540065425797517 7.642130817844652
Mo 7.731773037256411 4.21433622021455 4.4654317894995845
Mo 8.1996485414014 5.930294713228853 6.701549743610238
Mo 6.292175583134021 7.989404670347542 6.814438784004168
Mo 9.373334732256057 2.689816891345477 6.0830323742424
Mo 10.901666237705975 6.660034111167618 7.235956328282714
Mo 4.889067605695572 7.593127168223874 4.57397630139284
Mo 6.875503865043088 8.317490721769518 9.296692880569088
Mo 5.491732693043438 10.363263347276593 8.095748037053456
Mo 3.665635922404201 6.415856282204521 6.710751205290727
Mo 5.596527321561677 5.194509410484044 5.583946683847351
Mo 8.612877375369916 6.289149560453395 9.273983705227922
Mo 3.1903064021562333 5.692724319747621 3.7125988665933662
Mo 6.684922844024276 1.718383549396044 5.0805229081300505
Mo 2.077913187345967 7.208174829606143 4.720793386863235
Mo 3.73367173637209 9.168695463914366 6.066171755048646
Mo 6.05030961668951 5.86560144046037 8.506430393647571
Mo 6.944521302180552 3.5159681649339536 7.344554883244953
Mo 5.175403663762234 3.3590552040971753 3.721454938890772
Mo 4.090702456480549 8.01005665597005 8.73458254906767
Mo 7.5161303169013385 3.987116863603676 9.808362066972085
Mo 4.198350745883572 3.9122934211966935 7.842763367551926
Mo 1.2890779459332558 5.025905178231976 6.880204034083987
Mo 6.77471920697971 6.341671098981961 11.40959164668716
Mo 3.405481528726801 3.6856304109174856 5.45034627181083
Mo 3.150064380877339 6.054581235937864 9.175079259303889
Mo 0.836409444863917 4.694185645038697 5.133226698811237
Mo 5.118013741854381 1.7029533078283141 6.163692726350478
Mo 5.536049639516118 2.399023551694038 9.32763002668209
Mo 5.028483884274995 4.33727321885109 10.400819603348504
Mo 5.1147682862761625 7.184557214465076 11.177913498752709
