42
Energy = -387.45317206 eV
Mo 8.855692287192024 6.048514317883153 4.707447602015605
Mo 10.01734459182694 8.421540818770659 5.486454357374602
Mo 10.187015563783406 6.5157606831166905 7.108332647492129
Mo 8.908025317462366 3.4400932910449287 4.54916875338444
Mo 10.02215017764119 3.728035424833213 7.183589150704703
Mo 7.898890904381668 8.730566432908157 3.866233131768674
Mo 8.064623327080675 3.975021301014878 2.912766590397108
Mo 10.09124210992804 8.417491593848974 8.614328824292178
Mo 11.56530395352228 6.02918589754867 9.409290000152593
Mo 7.368814122812706 6.565447048424281 2.605939685700267
Mo 5.990603987736198 6.978476156468138 4.9389070476846175
Mo 9.3595131234531 4.698453183805936 9.227922800265196
Mo 9.293863702286705 10.444591268212308 7.2313354875470255
Mo 7.540568311523938 10.534763377635148 5.5752159041771545
Mo 6.45443581421505 8.781451630377315 1.6909078022489212
Mo 7.986051424140706 2.925281166376236 7.330600042524509
Mo 10.440433998345576 6.819502629736521 10.788707584004804
Mo 7.900149888191106 8.06512944075383 6.527635763858587
Mo 6.2784135795686336 3.9474460733118772 5.11191302639965
Mo 7.661879030802659 5.3544800813810385 6.914608933352978
Mo 5.332449167519909 5.187284488408345 3.1769397979336342
Mo 8.115611244221656 7.024416093417086 9.094767719108175
Mo 5.4722278911406175 9.417783644531166 4.0482498287247735
Mo 4.813662835230365 7.525284151735608 2.2000958764291747
Mo 8.385705178801455 9.146419051134483 11.074107771552555
Mo 2.770242383112055 6.078784806565057 3.541133687487112
Mo 4.1630704261829985 3.2925894978901646 5.301282320507806
Mo 6.755915442114988 4.518691501305937 9.322256754916976
Mo 7.4200954144677835 9.74195654191849 8.480296826466898
Mo 5.546824707355435 6.932730635041005 7.979101744118567
Mo 7.270318760314071 6.026385623383312 11.220486937735416
Mo 3.0322624870196777 8.006004802908087 4.314939242373955
Mo 5.544388333238857 9.498771680062147 6.59929618947458
Mo 6.920877694641744 10.280545275751253 11.192328934909925
Mo 4.950257452062452 4.127910432274337 7.604379429790102
Mo 3.7759247731583594 5.700044061845665 5.698772270178012
Mo 4.552800361272978 9.545872467324472 9.116892662272162
Mo 3.6060301997281745 7.994371494987936 6.888093546908626
Mo 4.604144369172299 5.518984804776101 10.166476493785293
Mo 5.937760120782852 7.815644487021004 10.571105843978847
Mo 3.13786815687555 5.454427236048882 8.415051047051382
Mo 3.2854118605914837 8.022729879118277 9.49150441385249
