47
Energy = -435.83525111 eV
Mo 2.8394482144190856 4.931225759788765 3.2136158310552756
Mo 7.276409919809818 5.4386667439615115 3.852583167428111
Mo 6.052343681431821 1.369597788361333 3.689901642674396
Mo 5.075828863750192 4.915252066885696 10.206779217187464
Mo 0.616859844813769 4.890529102863111 1.570620486228607
Mo 4.250927029808516 2.235510404458414 9.81511163804342
Mo 5.114341846967677 5.292502378307544 1.9355622936871002
Mo 6.65972244596697 3.3166125027318074 1.3731275011816275
Mo 6.668096218734632 3.257900450639013 8.302514815689534
Mo 4.286768015453954 10.592989732181882 5.70807033237601
Mo 5.774982022864186 1.1839732760846196 0.9110527564510993
Mo 5.236517432855937 8.77877348575355 7.977237935830915
Mo 2.903162789519818 4.015702215434867 0.414960844759591
Mo 4.345090205877595 3.75871918680533 8.436214039434045
Mo 1.1251814392280575 3.9165903226314196 5.260800275224987
Mo 3.5950941752315413 4.248566617776025 5.94718034568949
Mo 2.216766471936454 0.38630660856161203 3.149589692275743
Mo 3.950526222755027 2.4148503254643088 1.9854874620012615
Mo 6.270912369220384 7.956636570145522 6.646863960443956
Mo 1.9012738294562428 6.460832339774793 5.2430534771601565
Mo 4.893949938577769 7.527514135466141 0.3155527849755193
Mo 1.0637058413533125 7.188974383501468 3.1622108643594533
Mo 3.2156571433571517 0.09728626490683094 0.44943578235166
Mo 4.330090248780327 10.351923317333249 3.0488338960497727
Mo 2.981846150946651 6.755032967867931 0.5757874315336527
Mo 1.7159205058084053 4.881756265417698 8.08995296938875
Mo 3.27958175954365 2.0534530592451445 4.5365679653089295
Mo 7.92414526003309 3.057824923811685 5.491461411627321
Mo 5.495716952354069 2.257917980361704 6.364178143034033
Mo 8.306373270838984 3.06712088987848 3.5480891794591565
Mo 1.7596498345545197 1.4107311152792454 0.5233192638001376
Mo 1.1817931372250685 2.9639282419717716 2.754449617183477
Mo 3.496034210693973 8.691422202844553 5.474331950121456
Mo 4.861181896800642 6.4057825310159435 4.745599492469061
Mo 2.766014885924529 1.8545065338565487 7.213458378542133
Mo 6.302848842497196 3.042784953401482 9.511796299975765
Mo 4.323549531995269 0.8303811054817225 8.176421151038326
Mo 5.522602736887404 3.8097129046253237 4.095895787268056
Mo 5.6846073721483235 6.036778697837593 8.839112660830072
Mo 2.366413073043835 8.50631571004006 7.100229794024551
Mo 10.51687754261674 5.196813699466362 3.7623991586185235
Mo 3.9184028423144857 6.469385655524239 7.308197171231873
Mo 3.5057196641664645 7.619069229046683 2.8108021275632376
Mo 5.9757035381037165 7.571781897939833 2.930120334287345
Mo 6.461001361987914 10.74675502590061 5.791466921738499
Mo 2.603258490444917 5.648370936656007 9.511796299975765
Mo 6.343561645114527 5.046900833923704 6.680168789633272
