48
Energy = -446.33007601 eV
Mo 11.081718014203604 8.047259732555494 8.218219763834231
Mo 10.739046166841884 7.9240473845472685 5.264277153333537
Mo 10.44620967053832 5.3702437673969925 4.342075843348494
Mo 10.639890082940731 5.794195741768847 6.710023490392659
Mo 8.759550188294005 9.555349220126436 8.677137764118253
Mo 9.919551099746283 9.983447294232407 6.410934846338761
Mo 9.90530680111583 6.863020800545688 9.234434131389657
Mo 9.827861221978772 3.2135637689984065 6.252872925096697
Mo 9.393030227902615 2.936986146892346 4.320945897796558
Mo 8.660126040960506 7.5797552381366815 6.761983166676097
Mo 8.748267790994683 7.442253170889884 3.765511695312198
Mo 8.691674431141223 5.113959134465745 2.1990074526487833
Mo 8.322694491811026 4.871438538402358 8.007951688021892
Mo 7.217251335453829 7.60249220392328 9.08219910735577
Mo 8.30966550608953 9.709599619452844 4.842890769172021
Mo 8.125218373720228 5.353782631345602 5.336359491858444
Mo 7.060391464918464 9.871863053582102 7.131087902693842
Mo 5.660839211001189 3.5806271179717184 8.36383761459285
Mo 7.033470097965389 3.1572308959544246 6.049709732845344
Mo 6.1652189916315905 5.932620946173005 7.401877500447988
Mo 6.837271477662595 5.161429555971023 10.074275504439914
Mo 6.798444168359547 3.461075242090524 3.541830382611125
Mo 6.2798107448271825 7.773691749557691 5.425680353974926
Mo 6.3338630243481155 6.014308344950562 3.2639006013360303
Mo 7.805209758542122 6.6893576969367725 1.2511644406350169
Mo 3.8687708132230574 3.8096192112169414 10.039454507515757
Mo 5.133152479455692 4.8476006811217145 5.292487072599043
Mo 4.623749263216139 2.206414562754512 5.008440438467936
Mo 5.111321869416456 8.609648282262883 8.102599125672745
Mo 6.097955087181607 4.280700029448479 1.0824669742605044
Mo 3.641251920361838 1.8279915125580068 7.8117510269243535
Mo 4.114198152423329 7.35000138148827 3.597030157712817
Mo 4.661354883211724 6.097621221065721 9.485113594549277
Mo 4.595621607278396 9.681646698024743 5.484249939330116
Mo 3.7897360827330373 7.164360877135568 6.404295655247925
Mo 3.3825828164547356 4.653646293273316 7.413470523039642
Mo 6.245375278535418 8.69321678967891 3.205409208671224
Mo 4.006791016585438 4.39638754859149 3.092239265525444
Mo 4.954417074352862 5.932100053022711 1.0816215038634822
Mo 2.427486729491837 9.28578899991119 7.650225196813181
Mo 1.857878762383565 2.418172646821177 8.144949100698275
Mo 2.802196858204247 2.9624639641542436 5.301139364201601
Mo 1.9911815831129767 4.941865788988236 9.284416580588038
Mo 2.5080426113691754 5.631061447287893 4.661480214249134
Mo 2.535825261329673 8.017047748809748 9.014638072580995
Mo 2.5688476332019485 8.754446514752559 4.848887289472924
Mo 1.1932178361305377 6.459448163421786 6.984066028858968
Mo 0.7156333216799992 4.605554641063188 6.4893157901934515
