49
Energy = -456.13770209 eV
Mo 10.699026538338922 8.971916309231656 6.921688274141202
Mo 10.056985402649337 8.035086192190972 8.864742775230248
Mo 8.629469246030817 10.066345961465517 8.050604172846533
Mo 10.112155636140681 7.052024851359884 4.096271776296239
Mo 9.76945575399069 6.601456025611337 6.693991742900947
Mo 10.254714424404598 4.671553613375618 8.630362195121418
Mo 8.581331125190063 8.934830192296106 5.504249274091813
Mo 7.349677148587051 9.157815056500372 9.952460841046408
Mo 9.64650062182635 5.07532719397683 4.14193345734738
Mo 6.574337524827008 11.776259939122925 9.05242805173159
Mo 10.681936054997031 4.155183512904018 6.634425981477475
Mo 7.619984709185246 7.662477825788701 7.679903469179815
Mo 8.249539459495114 6.064236256100834 9.740148217474527
Mo 9.035766873279995 2.344712312066544 7.211931245170057
Mo 7.944988131717928 8.388358761453253 2.9621498289189225
Mo 6.83526351204062 10.744379454497016 6.351586932725601
Mo 7.341709686887933 6.287585236406487 4.962758700445561
Mo 7.804754323952963 4.854794081806984 7.3900489382830585
Mo 8.069398635798724 6.456680160041583 2.2930587402100997
Mo 8.05347999967103 2.8812616511682174 9.319191797560963
Mo 5.607555900459846 10.163964740282834 3.696983057254545
Mo 5.07655979083237 11.946488573524592 7.8562030068083075
Mo 5.460308286323514 9.380863709257028 8.167996352778761
Mo 6.091535516221261 7.211764982898868 9.993313633620572
Mo 7.9141768895771465 3.249946692291549 5.2077891910210745
Mo 5.535664141424307 7.274218219011386 2.928909926152436
Mo 5.930534720792242 8.366141936365066 5.531830701133229
Mo 6.281789259067193 4.54057843973872 9.481468251483829
Mo 6.424820959495456 4.447315748165633 3.3615081125760513
Mo 5.128823598134723 5.316175978429596 1.4407676558446372
Mo 3.565924837981193 5.806197836649907 9.822319363351314
Mo 5.432143826645798 4.068650212137234 5.96833189015126
Mo 7.233634403999668 0.5856586088125897 6.09482467732027
Mo 4.375010042001555 10.561225693335402 5.294036323781983
Mo 5.360013680333511 6.333992768234852 7.561820890000142
Mo 3.2302185845516513 8.480370546059726 3.791258392440326
Mo 4.352227311855342 6.152683622525986 4.892593399275307
Mo 3.3600165681393395 7.570427182169796 9.178558428863568
Mo 6.283433868771028 2.193109466355044 7.61862074554459
Mo 6.080690204252944 1.717570785027162 4.716144702483776
Mo 4.192532114182366 3.731562444519406 8.068886313908962
Mo 3.416069527762608 8.290309775258544 6.438888858681867
Mo 4.0186673656875085 3.714604871638559 3.6327871115616976
Mo 2.8626608681978456 5.63511559837569 7.0408001468014625
Mo 3.191905972376183 5.751865407565824 2.4928170405385197
Mo 3.3995191846901416 2.0356624213227223 6.004552149280423
Mo 2.083289007960853 4.478219837181584 5.029367238676106
Mo 1.8353218178153066 7.113749368392698 4.52674741692248
Mo 1.8650698560840175 2.7175824964397965 6.907823676858332
