49
Energy = -454.74888303 eV
Mo 5.70052670342112 5.207519818044149 10.31365682853994
Mo 2.6517756267293446 4.896007783718931 10.433099397226401
Mo 3.2884133039159824 6.7833947682865015 10.770464278560132
Mo 7.147409891272064 5.732226210559157 0.7646461217327915
Mo 5.553415933164986 8.081774075933462 1.2001359410493864
Mo 4.111262108779082 3.0080712037513813 0.9889798219018917
Mo 1.943001034972955 5.987450115781814 2.151015233206812
Mo 6.622087095021744 3.303676396780926 1.6438690375836271
Mo 1.5764396892532901 3.7463431272634966 1.712284264611342
Mo 6.461109425539455 6.634825098776171 3.350058488511737
Mo 4.039343260975066 8.159758674960479 2.4863659638852766
Mo 4.528824748518032 5.306529360258117 1.7585008971580898
Mo 8.79885202768685 7.682815103303327 3.38087106797837
Mo 8.310813915496256 4.660954712515691 3.1863119209233286
Mo 2.7437432939120927 1.1877671576131195 2.3586836637473687
Mo 4.790861525220524 1.4382203226467345 3.0929768473916823
Mo 6.648331057709966 9.176223419742449 3.599594747365306
Mo 3.0604716515662465 3.54897488312516 3.6671348603876024
Mo 7.550403382229475 1.9390578767656836 3.8086587962574057
Mo 1.145318313485227 5.218101628086082 4.68800876133181
Mo 1.9197305063730312 7.466436608222876 4.612840294042337
Mo 5.763424476795087 3.8961330898066566 3.9494123200588347
Mo 9.355990880880332 2.938892029846194 4.804150954610096
Mo 1.1062938876483555 1.983903291958748 4.515680782678477
Mo 3.8542562250007144 5.959416827695469 4.228380046474143
Mo 0.7121780428528183 5.5589729871876745 6.993279908912474
Mo 4.313607180511314 3.6513955215500657 6.221686785965487
Mo 8.778078513950193 6.247398638777677 5.0018725951525935
Mo 7.464451588296974 3.933222433535659 5.936371778251673
Mo 2.8684510797180973 1.3175024371790103 5.2556405529350085
Mo 2.906689689575428 8.497188756940611 7.024772093340658
Mo 1.7264384103272348 3.396863797025848 6.732856196215549
Mo 5.809352982979076 1.5617476551754883 5.811206159382597
Mo 7.233481435547804 8.420349570991286 5.625773323312707
Mo 4.660004175151204 8.338777319262126 5.340234597327429
Mo 8.001845447311917 1.2702503201346742 6.5015740011799945
Mo 5.923377353087916 6.094839682439366 5.89968431902652
Mo 3.1414311050223045 6.097579760354551 6.762674049184282
Mo 8.87349326938951 4.042770142869706 8.27603207336477
Mo 5.355591948247922 4.879039095984782 8.274434443660287
Mo 2.6074023524852072 7.139009338003342 9.472830034648593
Mo 4.02908961124964 2.1918719177801202 8.647669422515099
Mo 7.383160646170922 6.501790023486484 7.791314816987575
Mo 6.6658607047936345 2.609378280343043 8.11133995594646
Mo 5.092620042140593 7.581782540678357 8.100301475127267
Mo 2.801609829203899 4.4759220379031435 8.769155085720504
Mo 7.718432316335128 4.6100885983130055 9.742684528162277
Mo 4.17552512795377 6.335525910997833 10.313656828539939
Mo 4.891579783107424 3.108112248621335 10.222429084420842
