47
Energy = -436.08316366 eV
Mo 7.705669763748749 8.685813338031249 1.164505511280622
Mo 4.89251569805866 8.109662643868264 1.7634586290906227
Mo 3.6398946300814763 5.177673342670577 2.101798612005332
Mo 6.425372257952374 6.189391837557562 1.6329775260956751
Mo 2.8611860062167893 7.4160771567348025 2.5271338501602454
Mo 9.087700249172451 10.270766787837633 2.9855212328985297
Mo 6.21727149291084 4.039329078332724 2.631746264039571
Mo 6.140527580434522 10.180513493595448 2.784183658506651
Mo 8.896104413496488 7.415679353131424 2.0381874346857205
Mo 7.996436365434916 5.340521419121382 3.75492359583876
Mo 4.010990359909343 3.2592630658050674 4.441231894165009
Mo 6.004898158641717 1.8117200778134748 3.807244240194777
Mo 5.088176101390948 10.094390034267757 5.084537183419047
Mo 2.280811802098953 5.0801938695597935 3.923809464942739
Mo 6.751641720682982 8.134401719944806 3.8569899384035566
Mo 8.070557462453172 2.743500515352469 4.430709587706852
Mo 4.9714124064729575 6.180215140892687 4.061537743966344
Mo 7.511771011883294 6.388085221358643 6.07646741841387
Mo 3.470296913850046 9.802825919025416 3.5823851275476475
Mo 8.070095468377152 10.766267985832526 4.556065085857851
Mo 10.2721930758634 6.013596389602552 5.035833905063871
Mo 9.18092022251925 8.24098911959723 4.717055210516303
Mo 3.593248497407935 1.1800334579000424 5.799038147222157
Mo 6.1677067586556245 4.086257488765035 5.518841684517252
Mo 1.6265531807223328 3.20342450849075 6.252595484270724
Mo 3.143933305108282 7.88668102042566 5.145282573548363
Mo 5.998490219085172 1.368655291568279 6.260332995671091
Mo 7.59894930918211 9.12437509091078 6.818712260977038
Mo 8.950728581155289 4.2339186211839035 6.290672576961332
Mo 3.4951443001314515 5.43713052113516 6.132201751308431
Mo 4.29136717714468 3.0696097242956477 7.366479262331157
Mo 1.6479246942133587 2.125858165352269 7.789995470369887
Mo 5.467259999713547 5.579066105997276 7.896263340998594
Mo 5.230012284602917 7.92672061646756 6.375521646635935
Mo 9.911664502910277 6.928015464492835 6.978771161367638
Mo 4.0965132944285205 0.40667252195395515 8.314164627113222
Mo 7.2288240267727355 3.177817071875357 7.769421324585266
Mo 2.5322402563177 4.831030533004965 8.617377544819304
Mo 3.1340435523877654 7.472349201075501 8.148712552827789
Mo 5.67516179917592 1.1905370528170953 9.11212201562573
Mo 7.490161549900096 7.89857806862965 8.398057666487244
Mo 8.160967141784644 5.305651287101218 8.617765669442896
Mo 3.9809254896590893 5.544698805179137 10.203609211156122
Mo 3.478887923285211 2.8232375096602884 9.726818078142854
Mo 5.960835104923917 3.964927242050783 9.948231716037775
Mo 4.801620230350402 7.926884900945638 9.156592577730333
Mo 6.824879949221825 6.001478508680792 10.43860183494302
