48
Energy = -445.3488684 eV
Mo 6.011110383075996 10.303124817194119 4.818065784195707
Mo 6.657073104006849 3.5819290662976893 5.838957521977891
Mo 0.6216721848794489 6.089632841509008 6.976447372958063
Mo 6.2289554652482995 7.545177646038827 10.190797997709966
Mo 2.3390734442029992 5.3982092306119105 4.9853818434108925
Mo 7.039391967398837 10.303124817194119 4.115027020531735
Mo 6.803168947419527 4.888523906046966 1.7554528886412595
Mo 5.235357692213941 10.123039601861032 6.2454351485645
Mo 6.74809753793975 1.066244891501997 6.9600499129441955
Mo 5.935304791119513 2.9267544983070444 3.429532884736398
Mo 4.869434322755836 1.3427262529858992 5.481603994050402
Mo 9.96767640927169 6.3569530894672335 9.170898730254677
Mo 3.519020723026393 9.416654523085711 7.850290238057651
Mo 5.4478956994837935 7.998292239667795 4.611084333178009
Mo 5.2705460254494145 10.22382920975358 3.1985315846767244
Mo 7.6459397106388725 3.221641596871155 8.324036597586778
Mo 8.058872061018805 8.111488323418714 8.73736020674196
Mo 3.257581792811041 7.694588796594607 3.2982868420364526
Mo 9.098680712652108 2.458017222300787 6.200406554461485
Mo 4.675251618954377 2.976529906618002 7.762778637057548
Mo 2.9031955964341565 4.8421385260430805 7.564832723399472
Mo 8.104111169876413 5.534586573725751 9.911993242239518
Mo 7.509958523486658 8.113366996638586 2.6533072396687984
Mo 9.69708644606407 7.173758266111078 4.304099406756538
Mo 3.0745356026088264 7.415055477656132 6.170361485135639
Mo 4.131835182799087 7.042738487581187 8.946136418274369
Mo 3.7744057156898205 3.3315149418066743 5.2544065114326
Mo 1.4257727317932039 7.2466841616523245 8.364542589064685
Mo 7.657868165145458 1.2323519671265302 4.706637524759287
Mo 5.676574661886247 7.445080729265815 1.9696755096173781
Mo 0.7439746118385969 8.940183944124971 6.174219216388041
Mo 4.678858145601375 5.356719700416111 3.655761992451569
Mo 4.9486477642562905 5.593576184158484 6.259206239361418
Mo 5.672833561188102 11.265143952847083 3.2797601288476343
Mo 7.911103262495168 5.821589687688281 7.193025224748386
Mo 7.358054251349829 10.189165911147352 7.4963137902044465
Mo 3.0778741438980495 9.526767255212953 4.760449024518098
Mo 10.12619302199908 7.029261018992663 6.483202765747466
Mo 9.827048865810559 4.236853574508848 7.915007438374657
Mo 8.783086642990154 5.412971319717539 2.2621173203784446
Mo 7.940268309850978 8.259208180704444 5.750276974927732
Mo 8.431185643323186 3.330568202884508 3.425236747313353
Mo 9.482484366991104 4.728818476380863 5.2354552010937985
Mo 5.856063484385692 7.779285449578825 7.372549828327302
Mo 5.55466508485386 9.766231280151926 9.15241819551531
Mo 5.738983222694284 4.933610487331362 8.628603924597723
Mo 7.166459315912709 5.9488842671736535 4.352930209195587
Mo 0.7404394146209832 7.8865392093084346 4.58214546159889
