49
Energy = -455.67573373 eV
Mo 9.216521090578269 3.405595321328775 8.849476311609335
Mo 6.9851401729632965 3.1239093094815127 10.569738133668219
Mo 7.5125373232525785 5.069568293225376 10.58502641885811
Mo 7.524364456463043 7.9077820955176135 10.413413283954943
Mo 5.74130838426241 7.3522889685886845 11.127431778702178
Mo 10.245834773305727 5.976340139149741 6.454367847490984
Mo 8.00459500354231 1.8994386957248386 8.1839888199349
Mo 4.8711000498173584 4.82014330249912 10.148571207534971
Mo 9.228158363721828 8.169346056627584 6.0910594502423985
Mo 8.519217920983742 3.8154608014658846 6.271408326136656
Mo 8.817359787070338 6.199135809676 8.152748905517925
Mo 5.216136054707076 2.462342294957039 8.487571925098822
Mo 6.74499189321212 4.3661100659179395 8.05158447140567
Mo 5.3155482729845955 9.216675531443235 9.125492691428795
Mo 5.838777031107034 6.69635805066209 8.549386375947877
Mo 7.670545200599098 10.95763116775945 6.784677483634741
Mo 8.804461688162865 7.301963995562666 3.6924031636036476
Mo 9.365587239195905 4.870946423819991 3.9516777701052783
Mo 7.354390843921397 8.65098930898519 7.8137491928684595
Mo 3.135738440132731 7.457691592123151 9.387917167967778
Mo 8.80854394461846 10.295876624593141 4.185953696736436
Mo 7.644792272166409 1.5878646334775612 5.407919225935742
Mo 7.475987823455077 6.121789125343296 5.726461877582187
Mo 3.7872403092979665 4.871666888337354 7.956323722884192
Mo 5.847406906587145 0.948980442264924 6.390918115042046
Mo 4.456399975198902 8.404476607826146 6.901176370676425
Mo 6.750659734804752 8.697638770623 5.199629095024153
Mo 7.248235578337619 3.9984941932817897 3.722871040452484
Mo 2.360135951000469 8.970287405259558 8.519846068656623
Mo 5.507818639558393 3.445429148643668 5.905343210092128
Mo 8.067839504882766 5.965486257060025 1.825217679241763
Mo 3.141237552057727 2.6176933528319957 7.245582620462681
Mo 5.692298733049922 10.789985945499492 6.637344715074464
Mo 2.0238338766347637 6.782212158294896 6.609330074096693
Mo 7.067689398645708 11.136752287583175 3.959452319720903
Mo 5.471242922638996 1.754465429533159 3.5001162908506496
Mo 6.938667044857129 8.869402492469032 2.622943769366334
Mo 4.856743983392778 6.097153856203779 5.834429436509816
Mo 6.009881585076967 6.4941218456989125 3.3184557541446744
Mo 3.8349646491585556 1.6501102862353 4.573422423766737
Mo 2.7995561413732704 4.203376831580619 5.420326127155024
Mo 4.380504884627492 8.610491096887909 4.236860574667934
Mo 1.8951829737711767 8.524509774274238 5.772285383877521
Mo 6.027380347299811 4.4424381592899795 1.2884622595208828
Mo 4.423707404267587 4.171218240656166 3.5174384616651873
Mo 6.206011007000059 7.327373679698477 0.6212583448640523
Mo 4.523273682489177 8.141217973250285 1.6757716220866359
Mo 3.1331721418069756 6.583647528122009 4.045031693055204
Mo 4.207759010279438 5.485270807743591 1.3766745317012927
