49
Energy = -454.7592554 eV
Mo 10.508697186423333 3.6959620579204118 4.276704687929806
Mo 7.126287548918748 1.8203725945010278 0.9570811176028967
Mo 2.161775735798667 6.597447465103871 1.2952766992653173
Mo 7.569035812982402 5.210601539528843 6.342685692567396
Mo 6.605566573763502 6.370142929907612 1.1128018112427671
Mo 1.4801966931835835 1.7543114813891851 6.120272293087159
Mo 4.04540794966663 8.08549970193973 8.024539150900287
Mo 2.366606217443847 5.768618732477564 4.004589962012675
Mo 9.41333980649705 3.557286569618391 6.7494783139369465
Mo 4.292992935321395 3.2296307392261214 8.483939024927844
Mo 3.293234502939934 3.1029523158138614 4.253278723033692
Mo 2.430347834542766 5.799585966786676 8.799616400004611
Mo 9.44768364296795 5.34372773195986 4.37008789507827
Mo 6.813834451037892 2.647668846208876 7.593602314420341
Mo 1.8238307590982576 1.4649499959897336 2.905481130367431
Mo 2.783071274978852 4.328091815815632 6.475647929131813
Mo 5.9265862993512535 10.418984965438046 2.6602721303440395
Mo 0.6022557677649559 3.7098106625081635 4.525403211447498
Mo 6.648871369155162 7.749944930493592 6.753858535103004
Mo 0.4406197068257508 5.316542076704035 6.242450112659615
Mo 5.953657317720847 3.6413785136655847 0.7374666777826879
Mo 2.20697445021736 8.453562054698008 3.8343203757958833
Mo 3.9145405084671077 0.6369085272854511 4.244960572788979
Mo 1.6471359218516566 3.8479287602255523 2.054510202336212
Mo 7.263255861677644 7.4650262761088975 4.7843160533293565
Mo 3.8384653978900127 2.072816008590776 1.606017513446725
Mo 8.010924840233555 2.8321680487786995 4.922248084306984
Mo 3.977275384297834 1.692282872923555 6.69244401349254
Mo 5.512126688767909 3.648341259515461 5.800260659249782
Mo 6.836679274850995 5.071865450627043 3.478681391861697
Mo 6.227426647183796 0.7811206347989169 5.397265379086504
Mo 0.2984946732751251 7.570129520365892 5.043460393008149
Mo 4.9396791841699015 6.526613642794971 0.1950920072692834
Mo 7.833800069009373 0.47753706984164324 3.51360836254723
Mo 4.355277749998542 4.877306705690833 2.4450292306564685
Mo 4.914548092578996 6.132562262135774 5.1397087791521825
Mo 4.926501639694459 5.687993933323672 7.650864847086964
Mo 8.416305199691514 1.1738922109422345 6.745013531517868
Mo 2.713306628922892 7.054573016966689 6.2746926415811615
Mo 0.6557817936395518 5.722510040387324 0.439737389677266
Mo 3.2583810332425487 4.165899490160612 0.2890201014266639
Mo 4.611755821846819 7.36802210641492 2.9203191563372948
Mo 5.812687109705009 2.5177979468095026 3.29459963964507
Mo 4.723690486011895 8.79817805945579 5.242685657478279
Mo 8.380355693318785 3.329286470367893 2.4464435110009326
Mo 2.6265434615590446 9.530151408864509 5.899610462033626
Mo 1.6245000515151544 2.722687006746771 7.970753934553797
Mo 0.0656546096166763 6.059077689302418 3.294687459396906
Mo 1.6607769530746044 7.600037082376598 8.681859449781792
