47
Energy = -435.42100657 eV
Mo 1.7397304236592663 5.636404415482727 3.875566077879647
Mo 5.078758044327506 2.0147188479142097 3.996449691389537
Mo 6.7103437530532695 0.4507170831888934 4.784961826320541
Mo 6.5680337611053945 6.608665480093389 5.2970214495019725
Mo 7.580294567847355 2.551647888344176 5.417642908452401
Mo 2.542883393446098 8.007102900435537 3.8893564852364833
Mo 7.60143538888202 1.7271629772955517 7.975825397340538
Mo 4.625060223879917 8.67095282593278 5.936444723183276
Mo 7.494154487742401 1.7464402587308923 2.776407414873113
Mo 2.906713044060379 3.364008340770706 5.594841191794187
Mo 2.881940824847166 3.7991352994827503 0.7600322027708831
Mo 5.074135427288617 1.692574810296253 6.71313661238378
Mo 5.3865852307596604 6.650845910437945 7.956173868028802
Mo 1.5542189249373939 4.745680606044058 7.22496005808518
Mo 3.4051338936690354 6.972385150907096 8.238432998924218
Mo 6.614129006758093 4.379892065914707 3.2770637293944422
Mo 1.5271282526256695 3.048625644500387 3.2517133602289805
Mo 5.551771786391043 4.192992574883327 5.670287578196698
Mo 0.4431292461340417 1.9964480517573664 5.77774213547175
Mo 5.717332366344132 2.565376075999112 1.2036682424962502
Mo 0.07772639489269957 4.336424137908318 5.480641140493524
Mo 6.611963565923967 8.970357892150469 3.7334072100452627
Mo 0.7314517226462938 4.493406438153225 1.3280500234331654
Mo 2.8737738590868025 1.6925756233297944 7.3982905239191314
Mo 7.464052135689135 3.748281755693603 0.891467550296246
Mo 7.291551623632277 4.648107124774035 7.437752254225942
Mo 2.963809061086277 6.329739833645827 1.355219685543975
Mo 3.9406108682495677 4.2374797700454785 3.0734224759992514
Mo 1.4582552156542583 1.3961452649009212 1.0489432564865229
Mo 7.43943205260395 6.6252979852669895 2.5872149047480018
Mo 2.7690986265343693 0.8525671445843096 4.979829021657589
Mo 4.417649199880734 4.184137980574111 7.905876095674421
Mo 8.826963052570976 5.088278030449368 4.972022024144783
Mo 9.165558502702535 1.8384782444037944 3.8751963183348153
Mo 6.323882609753857 9.111918175836669 6.608355955255777
Mo 6.22836551629142 2.4770539418674646 9.021161351097284
Mo 5.7060508406465145 7.584876047706199 1.1857674085467573
Mo 0.8188388614503341 6.858751407585093 1.9756810409775092
Mo 3.6734144730964435 5.969518507620432 5.787947947932781
Mo 9.165558502702536 3.8719466201714376 3.4625052889529386
Mo 4.610686012761111 6.7882933765339315 3.3868256270518087
Mo 0.8418565711918167 0.40186792329831433 3.405096727225029
Mo 8.36341567416222 8.34891845809519 4.462735166208647
Mo 8.108874433780331 6.821763555805223 7.124894098610526
Mo 1.6072007335126288 7.0321372534027775 6.14107637894057
Mo 3.23063641848538 1.3158726175237605 2.0088084102276222
Mo 5.396392481441896 5.33694901554591 0.9270054973019585
