45
Energy = -415.63341559 eV
Mo 6.449440496494655 3.4528463562717575 3.9485283599080234
Mo 9.029991780505007 2.514142709506236 6.787933669531402
Mo 4.7009543593970395 1.0284915957996366 4.278628269140274
Mo 4.9073591290509 3.0854243842409352 6.3596721757225465
Mo 9.02665817697888 3.9519750334608994 4.75375953709054
Mo 10.955824882566224 5.1988907134855795 5.721525680833804
Mo 6.834523667352802 3.217414451044419 8.281848121388778
Mo 10.709552265723028 7.354239169656527 7.300906655003071
Mo 4.815647917900976 5.77268860098136 4.27708464079125
Mo 11.377608759708457 6.809824277308478 3.7735696440292017
Mo 6.937733639820087 4.87683143847981 6.143671524040419
Mo 9.01690882910207 6.754457186258152 5.214551865793127
Mo 2.6921200134057175 4.251346202078482 5.578293467461625
Mo 9.168488307319924 5.002154091174312 7.58997439585708
Mo 6.61533833520241 5.65804361903115 8.649098412227502
Mo 4.567507859632558 3.8058212559185005 8.827471589704235
Mo 2.5021440866490745 2.730538439447631 7.638806241301351
Mo 4.279019779470895 8.323133013119618 3.463250577553247
Mo 9.393265339356732 6.681602237623547 9.256642356032001
Mo 4.413601956106151 5.746019610449237 6.982810273604632
Mo 7.3160321794839485 1.8636590811379947 5.791875973088119
Mo 3.1395564451765448 1.2917406779273974 5.1691374948516104
Mo 7.339069972278357 9.355796822003693 9.148656529049358
Mo 10.197380984949634 5.383599742066718 2.927496056021568
Mo 8.036058592243027 7.703122289600356 7.517346401185963
Mo 6.171580990547194 7.570344102512956 5.47915956642285
Mo 10.524083097787862 9.124351644219807 5.388251554875501
Mo 4.043754341977053 3.599426350593321 3.5618148199845128
Mo 3.871007137897326 8.296402504633944 10.20235117601017
Mo 1.9571509490709391 6.54382441942129 4.214924249743179
Mo 4.237310518419729 6.344363317426224 9.981817304871033
Mo 5.285699793643587 8.153667196597057 8.139603466865603
Mo 9.595634722157586 9.740858314647763 7.307647788227818
Mo 9.060256388748503 8.050047838660374 2.9270578299277705
Mo 2.1780261312762925 4.819219195777956 8.151263907801127
Mo 7.421679919075069 5.832546770842556 3.3370216069415988
Mo 4.847924567854259 10.81806752679233 9.093075550129653
Mo 2.515616091901662 7.430157550725112 8.101120794212637
Mo 1.0674848608687537 6.477944199257267 5.882746972789424
Mo 6.797315314755754 8.219127181925572 2.921905738912338
Mo 3.393134552686897 8.032336812335396 5.946493170491302
Mo 8.153463711717285 9.39686918655631 4.929840462967418
Mo 5.16365970134668 9.779383619920733 4.823537965685505
Mo 6.668857244220168 10.165885670198804 7.111320074282837
Mo 3.8267228948561076 10.362461917210721 7.579736057333306
