40
Energy = -365.42114171 eV
Mo 11.601749666115824 4.1394275828284455 5.555665557589089
Mo 7.212801850586319 6.745462638307084 2.3492127018629065
Mo 10.430788323301439 6.491144467346056 5.028401401487625
Mo 2.369258359534651 9.521842034408364 7.335219032688757
Mo 4.114544575862813 5.474230652567957 9.630266813019215
Mo 7.526665223683641 2.1417979439779837 7.151162995614044
Mo 5.0904395149021155 9.916872899112992 7.1569508209290165
Mo 6.949708930355227 8.627678872031241 8.95706967875111
Mo 10.44101811367059 9.352042485414122 7.761188173276199
Mo 5.990229622386394 11.350693495644169 5.48037421084012
Mo 8.486671518156207 7.251244977795646 7.2963837717321525
Mo 4.21070681082126 2.855412062580755 3.429337623214825
Mo 4.313104087862031 5.431458215160617 4.540388786556093
Mo 5.395992361957109 7.477773096478532 6.3207582999717635
Mo 3.216261974085391 6.4410467970402205 7.734415540603545
Mo 10.630015468663318 5.728379736669707 7.778531618824934
Mo 7.9044522117812255 10.216236672734011 7.099726011336587
Mo 4.410566863237629 4.40132101366844 6.88443832891602
Mo 2.8435976947633037 7.622378840996127 5.159164805175602
Mo 9.83018456664562 3.605640839833153 6.011439838100944
Mo 9.381001368471757 5.231710995919295 3.810381570169338
Mo 6.394729508450883 4.811750661049497 3.3452683658019
Mo 4.31645239356862 8.26023504976121 9.122764519883694
Mo 7.062812052708334 4.852803618538047 5.892565250124964
Mo 5.6296541652201615 2.8504624382503536 5.499857469749887
Mo 3.7564147994588306 9.35869418250207 4.698912308822179
Mo 5.164632591103901 7.489699298722555 3.505758143385626
Mo 2.8468087019048944 3.4337194877163 4.776253819274727
Mo 6.269156400076698 3.0877833754763615 8.36364856097448
Mo 5.57639114666609 7.383349818137305 10.758487514405331
Mo 9.547550311339815 7.711736157041832 9.520622525889147
Mo 6.605855764032658 9.438396253308719 4.766229067267693
Mo 7.761844819577434 6.988948144399505 4.657996425353193
Mo 8.567940799495505 4.474726699304644 8.232500341620238
Mo 2.9310655319367136 10.540291550024524 8.77304795599706
Mo 9.312671731975458 8.999359366724116 5.589800109788236
Mo 6.066889406502937 5.9718316068341455 8.378645823837902
Mo 10.482137683129507 5.496980811068714 9.991673137000049
Mo 9.109397590188761 10.393087448027805 9.159109737029514
Mo 7.819682962729707 6.004195179509329 10.068228810045573
