47
Energy = -437.4145218 eV
Mo 0.9703541257262175 7.13739662718247 6.808635339662634
Mo 0.933928293098978 6.722522391106462 4.963709865083759
Mo 1.3867789164275097 3.7443967480001477 5.624658159584384
Mo 3.2915844838154453 7.5557735739866025 8.753829713925114
Mo 5.070872248126936 9.529538860346229 7.551054091396758
Mo 3.223686250502781 8.331943390051782 5.900969219100314
Mo 4.231945859703215 9.69714087094816 2.9159830240490745
Mo 2.265128770241985 3.3805810037823236 7.225868391995919
Mo 5.06272366485079 10.710045789659775 5.579580889252814
Mo 3.0277538986966306 5.6229224549746775 8.98312162755175
Mo 3.1118800349969895 4.792912454922732 3.632676177669073
Mo 6.816159186610944 8.155292340114551 9.563850159387384
Mo 3.2473558982077355 5.8117915442642785 6.217793605137681
Mo 5.550845934513114 5.7739209994270215 9.834077184670795
Mo 3.3809361811953824 7.24210177190483 3.6764844121085476
Mo 4.176117159107304 3.135445689001209 5.223616532790179
Mo 5.390702860618853 6.806325937164446 7.290673383275573
Mo 7.12444550522413 10.907855245313227 7.439040792964886
Mo 6.0467945899166615 10.42518126859157 2.9204386552481507
Mo 5.82117826364365 7.573454752381651 2.4481386416927315
Mo 5.353604577055065 3.41814418040273 9.913348016499008
Mo 7.626871745326067 10.428655713897358 5.227542841415931
Mo 5.836541963645798 8.422740637530852 4.992430622402731
Mo 5.202563899373213 4.265333944435527 7.514331810141809
Mo 5.062801859449484 5.043844908403229 1.8321517728716104
Mo 7.759897787720309 8.60877968968325 7.049428407724387
Mo 5.392758169754797 5.640393079866471 4.572684049147327
Mo 5.277862269231459 1.7871673585368537 6.955284751157532
Mo 7.838524303054731 6.904745972871687 10.698807094722373
Mo 7.800688872322766 5.728328147193024 8.085054660127518
Mo 7.891589738837874 8.288699986763941 3.2511546468032826
Mo 6.305273630500967 1.5359053232295707 4.950660304861024
Mo 5.714112709403486 3.4737878922175196 2.900391693575813
Mo 7.05124602568999 3.858373295914232 5.656997629933829
Mo 7.593063736493402 3.955239885042233 10.08123660630242
Mo 7.762065670000826 6.610117428600443 5.349106054758055
Mo 9.70849094007347 7.789972893420897 8.72437022493313
Mo 7.55321549158716 2.772170225638347 8.059493519670843
Mo 7.667088376718941 5.48479088307382 3.168463606531813
Mo 9.86156754034263 8.40267242561197 5.188085529755937
Mo 8.58347090271785 2.621720874072185 3.5799621776521353
Mo 10.126594434183794 5.926981671183077 9.321466365769206
Mo 8.918736928686878 1.8708031675672792 5.4212035167009915
Mo 9.514445753553526 3.878640315024567 7.38050528032714
Mo 10.155912175616667 6.811840050981404 3.7130168727383
Mo 10.15468131758505 6.351344187843477 6.541667218957631
Mo 9.630037384588078 4.5534731073635 4.870450859803045
