48
Energy = -446.25726274 eV
Mo 8.389283581375496 2.093495884444741 5.1858667926161655
Mo 8.361346697431594 4.571092756728171 3.8930969972383136
Mo 10.025090081130756 6.103240158068923 3.1704274028130275
Mo 7.918088451261633 0.5095216174735132 6.721252993809736
Mo 6.474583888782052 4.152884091893891 1.7293688855508111
Mo 10.455526387041923 4.302626744950741 5.620292582417113
Mo 7.579834392424333 6.514755403519338 2.188400767704138
Mo 6.215842171241828 2.935401289286425 4.051607514231339
Mo 8.72986737033976 3.068313067734501 7.464684915511716
Mo 5.795715428357989 1.1178470479317155 5.8415465559874304
Mo 4.385651068101197 3.913253649983521 2.159234232869862
Mo 4.88929474419231 6.308669556462854 2.5674253418230784
Mo 10.914552191138423 6.313706380012544 5.9000061803092985
Mo 8.705469392623252 7.4790169144937755 4.559056849477575
Mo 3.6619801351985553 2.1005782725394884 4.588171151495365
Mo 6.396780488566156 5.890695875997706 4.72250410835162
Mo 10.045029186912242 5.591187555835938 8.248042187865254
Mo 8.268037225942713 5.714832232930034 6.571758281314325
Mo 6.29289989548132 3.7660014340129973 6.533643801148586
Mo 6.488043193374446 1.9272656674175666 8.24779917773929
Mo 1.828083723950273 3.4568989194282844 3.57868477818677
Mo 6.586913381029368 8.349576639062859 3.395172792403937
Mo 4.066029427606157 4.636195707776122 4.696761774148271
Mo 7.590965853258185 4.333631612590731 9.20128046932421
Mo 9.349475860532145 8.34372301488382 7.1475842538475725
Mo 8.508285307971788 7.181521863963026 8.963720246217672
Mo 2.3591224095578016 5.986774486466587 3.3982044502573805
Mo 8.09750586212199 10.116450658026778 5.301906348336779
Mo 6.551307371559903 8.23559005042883 6.437143288032754
Mo 4.27011302237133 7.591389581590097 5.020174562763286
Mo 3.715124109659824 8.805190544797544 2.897067814780916
Mo 7.535761347271906 9.920329592994763 8.007228985259786
Mo 1.6404581166292078 4.058987560604247 5.8048763261769265
Mo 3.702468828978443 2.7437069244407652 6.891547939413315
Mo 3.900055716708547 5.38727190848898 7.121382531010848
Mo 5.076016877200186 3.7915219432436325 9.16574350995569
Mo 6.146624394316915 6.1526520862464 8.074027782580904
Mo 1.7755833647627721 8.551999294329834 3.9439194792937475
Mo 5.361511620975127 10.19273177523962 4.852694152583999
Mo 6.936624974989015 11.712742493774995 6.230198852994591
Mo 2.071206097700454 6.717775751736786 5.813933151168225
Mo 5.872109350752719 8.248231755511597 9.310988141784135
Mo 1.5788704451836253 5.859794286196377 8.440380994674905
Mo 3.0604199316714724 9.754997397837178 5.653594952904151
Mo 4.138544615091526 5.932497993763161 9.664381808363592
Mo 2.146700665970139 4.041502723494654 8.80416901602174
Mo 3.9872467058706906 8.130442807423396 7.79517275153457
Mo 5.08571176135083 10.323242139900689 7.355629241665764
