41
Energy = -376.97834732 eV
Mo 6.381910697570479 10.535735757397982 2.9468040865950913
Mo 7.532817865270668 9.000338412108372 2.7080485858595678
Mo 5.078838068655389 8.207870043742464 1.7747868670008708
Mo 6.612261727533994 8.999137629413765 5.289207595548818
Mo 8.474513192024313 6.8565092322055 4.149748808420087
Mo 10.393987096478378 6.852960836834852 6.365945941856497
Mo 10.924052712073992 5.146557506779513 7.028726505570087
Mo 8.097402659069797 8.38287834074649 7.317196981942782
Mo 4.3892156172576415 9.349823186425109 4.062588299332121
Mo 6.744079187524797 6.215930446984505 2.0576761036261715
Mo 6.4329303708530565 9.403655523958424 8.190424856816843
Mo 7.049084165618253 4.41580123861176 3.8764442482347827
Mo 8.707841062457087 6.054519615645973 8.599528946337175
Mo 9.269465561585458 4.529617339726163 4.9381188026780825
Mo 5.612597607458461 6.945216946918918 4.129807232695567
Mo 7.5211653328414965 5.947820960981284 6.141408038456143
Mo 4.098128029581194 9.366568995647581 6.493720628398505
Mo 6.8288889944999625 7.3676665856206816 9.689500776380973
Mo 4.287149344844436 5.8938393439138475 0.36267887616024524
Mo 8.943759210245203 3.4583139556175952 7.469220702139699
Mo 7.004411276275708 5.090388504668408 11.18081419270814
Mo 4.634170177611315 4.693054859551849 2.890656500575744
Mo 6.467186411131815 4.85664345871242 8.274780786810009
Mo 5.418460271235687 7.227740181634093 7.168848052242979
Mo 6.7034249929080705 3.099106437484259 6.026121212841037
Mo 3.236967625329121 7.074672478715626 2.7031095722261727
Mo 4.777178580294758 4.8704190086460715 5.627812325087782
Mo 2.7661110463816843 5.015029383147263 1.0746944134432939
Mo 4.877928012842584 2.5111343864982527 4.324772128458648
Mo 8.604580483059612 3.569372772244884 9.582543108709581
Mo 3.2105829548502074 7.401844511759185 5.495631816138145
Mo 5.693862776026519 3.76299620548518 10.729973856781609
Mo 2.3641718092705197 5.1708426920343715 4.335768189078517
Mo 2.9267859252796398 7.618479825296404 8.325202837150414
Mo 6.628708387569535 2.298309886970779 8.417140364389585
Mo 4.775411330525022 6.14016312638959 9.619389021547128
Mo 2.49523533297309 3.0790115658369532 3.3194572354914174
Mo 4.288263163962469 3.1447492003477304 8.000753486501711
Mo 2.842869452320364 5.745976049982261 7.496552168314428
Mo 4.3713765363953945 1.4548996545450008 6.7436279158084345
Mo 2.7386881422396967 3.1325222487588986 5.702506412200266
