47
Energy = -436.19716511 eV
Mo 1.828714888077548 7.736991865513164 5.563784526801656
Mo 5.968206559550595 10.778997247849334 6.82806203271915
Mo 2.586197673432178 8.317012102439278 8.156255323133628
Mo 7.044899288575658 8.276637412482687 9.608860523472838
Mo 2.6354460281414664 8.76497614207506 3.8258718362892314
Mo 4.056468975545633 9.482961099833158 5.951406732606526
Mo 4.291631912226441 9.28359697285289 8.712126963732072
Mo 4.918764700251827 10.732170777867616 3.6401140307660564
Mo 4.337401667422636 9.592521352125544 2.0534837707689673
Mo 8.444503386597825 9.84866552102379 7.647853706921752
Mo 2.492606098007766 5.105411580052444 5.465403356948871
Mo 7.364903978734355 5.717344373053973 10.52779951627704
Mo 7.162025919923872 9.819222936513208 5.01868913837268
Mo 2.8043990524718048 5.594756671079623 8.247308751660317
Mo 5.323955929961632 4.2664739885284835 9.764483019044055
Mo 6.316118501007774 8.285730653128931 7.083979775509
Mo 3.3657907975637915 6.486744801520231 3.406626404048664
Mo 9.020390584636393 7.438458951595041 8.938772910729826
Mo 4.724424479392833 6.717431243731825 9.12440016388569
Mo 3.1479924259508976 2.665213936882798 9.015317364885542
Mo 4.318926464604823 6.86149974218225 6.34141519827428
Mo 5.4453973795542465 7.958757968291013 4.109008991406469
Mo 6.766722198068984 9.043765440313152 2.217272901303396
Mo 3.0955050196173315 3.4808790093648985 3.985043406965717
Mo 4.737162420098677 4.316475441525752 7.319246981215476
Mo 7.029119156558457 5.9179016169374465 7.936432769940622
Mo 4.815221412580687 4.4017647941183675 1.8558916059518127
Mo 2.740888763659629 2.730559506032162 6.614225639766445
Mo 6.4691587320098245 6.198157449396072 2.3863589084912666
Mo 8.984975862065644 8.276093454698351 6.343370197824334
Mo 8.335695842305984 8.015691468376128 3.471795223324491
Mo 7.445667883937257 6.3053414379347945 5.139998203760025
Mo 5.137331736861412 4.924954466495624 4.5570637674414485
Mo 7.092157693513969 3.7639153049274494 6.033709717664091
Mo 4.909321456132126 1.826744732295048 8.293670985828598
Mo 9.31865656505915 5.278678642932815 6.953876257701794
Mo 9.270516672983417 4.948573246942789 9.5150488448274
Mo 7.363645619558572 3.452951607973526 8.654201417048514
Mo 4.87128497347616 2.1346344963999107 5.584409812031631
Mo 5.316747144279285 2.5082008331029906 2.8532144533147905
Mo 9.50096071976993 2.7200539211855377 6.702167173204684
Mo 7.237827760974556 3.9745008692418207 3.3064211888754116
Mo 9.365424946678775 5.651515852187998 2.7949923866779374
Mo 10.231392694214268 6.233399432813799 4.464937912032017
Mo 9.629814584158373 3.5755868559589703 4.790771699732789
Mo 7.637950512427945 1.4905166628451163 4.720206936279494
Mo 7.1617170062038 1.1034096263775353 6.617929705267058
