41
Energy = -376.22233004 eV
Mo 9.786960189541064 3.2525538287418168 3.8392513466167335
Mo 9.541576682723715 6.990286678524659 5.6511872558045875
Mo 8.406530672022921 2.0288013930303483 5.928534465328572
Mo 9.633328496970893 5.159572344256569 3.535237347747448
Mo 8.502858085151093 3.2165739475675177 8.176917193852352
Mo 7.111432198996513 0.629946208259111 4.131397672170508
Mo 7.315553256060475 3.482540750081486 3.396917872169303
Mo 9.30612329007025 6.058709769579615 7.515932818337135
Mo 5.874913726055706 2.6404058818117777 5.380855574901626
Mo 7.012761520812034 6.098452725972603 3.7950548995753097
Mo 6.493327538377366 10.740098272324962 5.778314198114248
Mo 6.6352540279209595 1.8750893570363116 7.854338934153195
Mo 8.234392074754759 9.642530828701098 5.57064885843842
Mo 7.036306917687648 7.3484085805057795 6.386232612527425
Mo 4.901893387481368 4.2875406319942515 3.37455321370564
Mo 8.743196450540305 8.806193967771852 7.936476188884903
Mo 8.431629246178286 8.163784925486462 3.567420286335993
Mo 8.145916726459834 4.534808880420008 5.765829577033104
Mo 7.581550791887128 10.740098272324962 7.847223848372838
Mo 5.349127808715445 5.045417329652255 5.70045494178316
Mo 6.170038502416706 8.860227576830246 3.7388499158785917
Mo 3.8463789742816195 1.2340301240832348 6.56812672030216
Mo 3.0983686941685167 2.6595533810869556 5.557304032064201
Mo 6.734928946868582 4.769379777104116 8.129694795477679
Mo 4.620719372909735 6.920620647841838 2.6064879093430027
Mo 7.44043674604117 6.8809542028074056 9.641935692381406
Mo 4.670872921217099 6.621995568570061 7.983095062319599
Mo 4.388352007014243 7.436439457365189 5.321214266362596
Mo 6.13477123968615 8.913761793836798 8.512070848216203
Mo 4.04955790245011 9.74640894600432 2.4416229488386736
Mo 3.536391076777861 9.135886825605846 7.092889226662176
Mo 5.861298320068274 9.871202012572816 6.079115844339557
Mo 4.615193197542291 3.4416675678492967 7.821020161918348
Mo 2.9054691689215018 5.247615656341287 4.166449899085551
Mo 5.754970861376884 6.520839056412353 10.419036290747998
Mo 2.5884635208632583 7.532522666948568 3.053043276704883
Mo 2.943110843602161 5.327688868032083 6.7517742384142645
Mo 3.4918594819076523 8.292025503795175 9.274173691239756
Mo 3.57587100538605 10.036688784928389 4.2667108872087285
Mo 1.9831831100893402 7.735712788433395 5.662561811140686
Mo 1.8201357098287005 7.173482633908391 8.055048067327924
