42
Energy = -386.91615088 eV
Mo 3.3568659288109215 8.601442274814627 9.639186832300688
Mo 5.313824130719075 6.286546387737549 10.664324008398363
Mo 4.233969083736846 10.368045795996421 7.635062174551651
Mo 2.0698935860978422 8.403711070413229 8.241490444848601
Mo 6.119413837254274 8.405681330808235 9.180641055849025
Mo 8.04876882847383 6.297842687323374 10.311706772217306
Mo 4.004011288134856 6.10980428970294 8.874382544125558
Mo 6.119835280667742 4.224841865737764 9.528482793286999
Mo 2.652042431229291 9.829036323538944 5.534837259720064
Mo 1.800253093987533 8.16369849965643 5.341231968267822
Mo 8.514096679090308 8.260880243536795 9.019737959217888
Mo 6.844838750252857 10.447496533073487 7.653026878318279
Mo 4.499416878387288 8.065035356996974 7.009090001967294
Mo 8.70934650612665 3.407107174009703 10.564305972925306
Mo 2.8677616838875695 5.851135680212484 6.299911132639635
Mo 6.6467254761275765 6.132144058822608 8.064079621539998
Mo 4.688971702311661 4.118277280001544 7.257172134891224
Mo 5.543054621052847 10.161896718987883 5.43777225995206
Mo 7.485066700947079 11.714126651525865 5.7138046738972585
Mo 4.37225207583759 7.686114378313677 4.416977448703146
Mo 9.395925687242185 5.393138543875061 8.656034255750251
Mo 10.010500224239543 2.784473435904138 9.39399903352906
Mo 5.707528993802172 5.7179338008140865 5.634885536874095
Mo 7.86932777017574 3.365831871484339 7.792859767850674
Mo 9.585082845755919 7.449424374378799 6.914936825034129
Mo 8.33058962194169 5.232497537686235 6.018847307408695
Mo 9.060916311796067 9.99583318231933 6.576698528289019
Mo 3.849573965569839 3.693206397322071 4.696338674231395
Mo 2.484516083063304 5.597086969319719 4.145449872813171
Mo 7.108014876639053 8.121588977636659 6.235694354563423
Mo 5.0137679523118805 5.437394471448445 3.1386079614197553
Mo 6.39336098214001 2.953967502490479 5.634503221978672
Mo 7.882448831926535 9.632049927196539 4.285620400488565
Mo 6.424508220911953 7.583393678290687 3.1016449903493584
Mo 10.076747831879036 3.3612401105718384 6.5350147314273075
Mo 11.071934915414719 5.713228476228789 5.437673426327716
Mo 8.769362487025056 2.6318571548890293 4.917483012573917
Mo 7.3806511248702735 4.746183635193606 3.6500526374310667
Mo 5.793982588328411 2.808263650184739 3.4434128359861527
Mo 10.335232985279156 4.748703489746122 3.9517895319947547
Mo 10.256360920985788 8.829143163874626 4.696342230381633
Mo 8.747167462022736 7.119746795405899 4.192388339123112
