44
Energy = -406.03903611 eV
Mo 4.003574000389753 3.5675779344676517 0.3733640486702771
Mo 3.973917097462916 1.058080569178015 1.8561901287627245
Mo 6.346099641734043 9.613211376207355 1.4099105124579527
Mo 6.349248404858495 2.472783858172812 1.2228140870423256
Mo 1.5314919096322646 4.340289957253131 0.1299519483585013
Mo 4.444109285319537 5.900347390515906 0.10709658407257938
Mo 1.511976094677388 2.956143804498636 1.6472245986602947
Mo 5.988104739664611 4.880020550946458 1.8518844370161522
Mo 8.183837413222266 3.866219071620255 2.917977717274775
Mo 4.184267315736981 3.2666609747942665 3.0088621638406035
Mo 7.748920549743274 6.740955121719751 2.0863751515988054
Mo 2.7832221409012523 5.543367321634886 1.9975425615451314
Mo 8.408964696906764 1.6777841893001237 2.4096198330733913
Mo 6.271438757257312 1.580285002164544 3.691926841590351
Mo 2.2008116856071327 7.730851580716154 2.9655745758035765
Mo 2.0366425938739803 1.0278926899890037 3.676038430527817
Mo 6.164154966820783 3.927935453242545 4.807062415557862
Mo 0.17789422139547234 5.47804312791297 2.673222418726029
Mo 4.878869895744765 7.331742032906338 2.1989663745202166
Mo 9.536470577128002 3.001945805833624 4.09921001038325
Mo 4.445303767546699 5.927602432592777 4.044063154939371
Mo 2.043148311207574 3.7743807658664443 4.286979683692948
Mo 7.170063905776883 6.512127840874359 3.951245218967855
Mo 9.587909486285776 7.084723388396837 3.8029715979067364
Mo 1.3668254717311898 8.947111993535685 5.584832817078991
Mo 4.024723108696016 1.8820344983936648 5.476405859534785
Mo 4.076518601061548 8.077851404588076 5.280658299544762
Mo 9.40930923988468 4.575356656860334 5.290488815450076
Mo 7.139033710573793 8.947111993535689 2.9900283344351735
Mo 1.8976696775987079 6.260451858038711 4.907580656720167
Mo 8.650023476545714 4.536827126921164 5.6671235866779694
Mo 4.612051906320441 9.584384981018268 3.721974051745812
Mo 1.4475530295274686 2.513654406423037 6.349273915816984
Mo 3.8816871544354172 4.467869210469555 6.298074186820833
Mo 2.7362664737158635 9.749953583181208 5.315936551199838
Mo 8.60560810552425 2.62755387770937 5.423841993716085
Mo 6.48746716506692 3.548634065532258 7.312543577202419
Mo 0.4582565347818255 7.699893960434887 6.682249020792921
Mo 6.365701076785898 1.4051812914772548 6.323893614887938
Mo 5.92493356537033 6.317568169586968 6.64670376842331
Mo 3.1444536751178025 7.228246346170065 7.110997373654885
Mo 4.120545179313097 2.7293978859666197 7.792778525352132
Mo 1.4550322699169669 4.598568008417493 7.111575220549579
Mo 4.964994906010364 5.741493424238327 8.35299753297621
