44
Energy = -406.81460172 eV
Mo 1.946955189744221 5.65846010840166 5.779905909212217
Mo 2.1923910591103977 8.42417430024353 6.349959526681203
Mo 1.823900310385972 3.4388475779115844 6.8144731000925525
Mo 2.580644277785526 3.009543115974995 4.511403139080434
Mo 3.1892274518279526 8.104670495305324 4.6798908008925295
Mo 1.701606515603857 6.1530817700716725 8.263011375262174
Mo 3.631254398065027 5.249289844245171 4.076213035650074
Mo 5.242722114703766 6.790384588389434 2.5494371383792545
Mo 4.870629376220778 3.750055171530534 2.089004884981414
Mo 3.65658162788559 1.235197306730421 6.731055405136814
Mo 3.7058971539710064 1.8735477966836693 8.486458958954724
Mo 3.4526192238783957 7.837786723844457 8.860774786546601
Mo 4.2386518743326 3.94948976143122 6.567649177971806
Mo 4.842089187843128 9.225941600175986 6.8926070201821155
Mo 6.633941624919488 3.027629632015276 2.2919824174314365
Mo 4.261084809512927 6.525933843608503 6.777724232991186
Mo 5.8685257921789145 9.941441756729764 4.696709002293287
Mo 3.2457503384728987 4.879301074993529 8.922274689586692
Mo 4.951229143437142 2.523648431365656 4.596392956085327
Mo 6.151492139344724 4.878723075849689 4.451804696838131
Mo 5.852838513634379 7.542656669662573 4.88679463273272
Mo 7.291113132617384 5.665275702186266 2.1693266671285403
Mo 5.514787668834912 6.39671680873436 9.166608546946136
Mo 6.423670191462629 2.4261712567624665 7.326425009371211
Mo 7.749520184711577 2.8842033448553397 5.055869637078909
Mo 7.347818415821073 8.497366760529271 2.705477058652852
Mo 6.998732211732645 5.118066562481281 6.936957073229837
Mo 8.29034740711197 6.544883375963418 4.849979940858734
Mo 5.616874695535947 9.118831146622066 9.271049651863219
Mo 5.86528355571022 3.6785370096842165 8.879914210699756
Mo 8.173925768697776 9.191249952827802 5.112726129611278
Mo 7.279844032341101 7.92148078854186 7.523597189904384
Mo 9.156756845821182 7.392075526713945 2.6089611950958935
Mo 8.887573704948453 4.186921958442368 3.6913785645686605
Mo 7.537720859077853 7.470624313319915 10.369588458373764
Mo 7.042696935879513 10.64606921470314 7.157202965173861
Mo 8.204488995497545 5.843486228145911 9.270038631427447
Mo 9.314815343838307 4.358060679698275 6.4315749171268335
Mo 9.7227740097552 6.654751609138887 6.993469412813409
Mo 10.936072402433995 7.782004893152908 4.944220502218389
Mo 7.750164014280262 10.292425817274978 9.099875644999887
Mo 11.051392694300835 5.942524194113719 4.599389408121224
Mo 9.762214741414354 9.365365698831347 7.262851984880834
Mo 9.671754161139951 8.379077667929856 9.041237834014058
