47
Energy = -434.86211082 eV
Mo 6.527716180678279 7.661687321946063 6.602037823029136
Mo 2.410172039407556 2.8938689990078026 7.277058853684765
Mo 4.171173294140571 0.7947210256532554 7.851504365347106
Mo 8.338008277313103 3.522268399142784 4.6390863651017025
Mo 6.387649796045794 5.40508504960112 5.728926082281201
Mo 8.646518739224554 6.669112311071482 4.429579093524204
Mo 4.242276221884231 8.22987559941243 2.1178376039705507
Mo 2.028930974852336 6.741341555441341 3.7144916515573856
Mo 5.1342701752597515 3.509660843867463 7.064620445674221
Mo 3.324845298405014 5.6113642535341315 8.070884495615683
Mo 4.013086649874703 1.8590683588837023 2.3310000330527942
Mo 2.678551898936254 0.769937180168761 9.018441319559454
Mo 4.281429030767889 7.331729765995059 6.039332485974063
Mo 1.8861339965681503 3.672428335210739 9.728441629749321
Mo 5.0335521391353 4.403042407529839 1.4061987190573657
Mo 0.33604092902060456 1.4955947632246323 7.549756361016378
Mo 9.377236033097729 4.6197207882695475 2.052033077852873
Mo 6.962430808921544 5.183999100214047 3.1042806117449477
Mo 3.02975322362918 6.2280513572310685 1.2648763201651718
Mo 5.4583166321952685 5.777230759555546 8.361494097858397
Mo 1.407133887377101 0.3923182813311191 6.324131562335316
Mo 8.644147212028054 6.983821167733169 2.2021331190899773
Mo 5.642052024016282 2.3197410168644783 0.3530613063966133
Mo 4.565866156628476 6.236415445580165 3.664313740179693
Mo 4.988769467776414 5.708272697461171 9.772519775512293
Mo 1.1205553940380204 2.2725037154688295 2.4445408077386337
Mo 1.3038485552350327 6.688294056992356 6.361811351041375
Mo 7.042726644873196 2.5571086804313867 2.1471115604273567
Mo 7.760514149450865 4.456341271771775 0.6574773486195792
Mo 0.651360114211629 4.9726170925668445 6.958358275648494
Mo 6.89207907327472 1.8259183206772756 5.511577996643343
Mo 7.959612301602707 3.9745336893615906 7.002147124019521
Mo 3.6613534897148687 1.7692674695210093 5.196345854801115
Mo 3.8300443259724055 3.40703032810177 9.577547884628578
Mo 5.980154958738668 7.0151197287791245 1.233119828655761
Mo 6.599857324147083 7.843579579401568 4.16639834565908
Mo 6.821347352642204 2.186404750041875 7.971123947277238
Mo 3.14427176960761 4.808615772194449 5.49195980202449
Mo 1.1367364154200523 2.67386350671494 4.869064317732349
Mo 0.8833683268444192 4.851467386018053 1.7016664828644723
Mo 5.403496069799314 3.3101381577789892 4.183116448398218
Mo 4.004771177117967 7.387178781957013 9.896992443428292
Mo 2.3622563565399686 0.5280019301887467 3.579863303190761
Mo 2.6998094794785628 3.6113773594985554 0.04335558027914254
Mo 0.4697596457558019 5.05305789003814 4.091007421608578
Mo 2.914825161347259 4.0148025508904945 3.0538142919282847
Mo 2.131667291976835 5.062897662647242 9.728441629749321
