49
Energy = -455.72066779 eV
Mo 10.946615006504501 5.023929878911836 3.321203952221781
Mo 9.250101743171129 2.789304592789282 3.902490980357168
Mo 10.055176592379024 4.266597851686629 1.7990904000906263
Mo 9.807068678095206 4.396959676651075 5.994217003553298
Mo 9.117060547503932 7.037364460752025 2.3613875949304433
Mo 7.150925236107187 3.0314013271313325 2.097105207060547
Mo 10.017440286050606 6.59873612352566 5.391194469983294
Mo 7.866614829241211 5.767120318925315 1.1220773185450659
Mo 7.817019831684855 2.6240683118111123 5.824019171010017
Mo 8.077762160396851 5.040153342480356 3.753600027167611
Mo 6.858446952488917 1.4893244961270142 3.2972494209672747
Mo 5.214911547374213 1.1426152679809034 5.536042702788699
Mo 9.554101783916057 5.887557225506052 8.231139369185813
Mo 4.416386490144389 2.7447037906976264 2.9895011403964102
Mo 7.42644637650837 4.008740333682535 8.218446238103242
Mo 7.467172953387897 5.5848594427736735 6.269118078403101
Mo 6.590958314717719 7.909082347689893 2.200844839427338
Mo 5.86486146623122 3.760977465940233 4.682539478586722
Mo 7.872626550114203 7.845238784297589 4.603818611699197
Mo 5.506888414527701 5.343033205934294 2.2559612658209387
Mo 8.672951076699091 7.961603995032846 7.346957295190631
Mo 3.261967303957729 3.331625354449468 5.615576530385939
Mo 8.508439432779214 5.204417180281274 10.202237713675443
Mo 5.308245998979341 2.132458773376563 7.135339891291969
Mo 7.484636349965279 10.323727227822786 5.8897998303351455
Mo 3.35065525717487 4.703750001164499 3.496978602274133
Mo 4.289235823351475 7.7451962497200535 2.4940247377825786
Mo 6.043607923471269 8.032692656307972 6.560892148332419
Mo 8.229678320641897 7.571316825244115 10.17864032943962
Mo 5.424382683006899 6.570225394691364 4.438427875239347
Mo 4.786516366499554 4.918655489133106 7.0377345854841975
Mo 6.1622545779834175 5.9385403517737405 11.418546115807136
Mo 6.50283021069336 6.479259541588791 8.728888889828461
Mo 5.209915703349453 4.120036089012416 9.442950427721385
Mo 5.89585460501584 9.523901014346928 3.9338011918767823
Mo 6.967569307032177 9.27135243441234 8.572452543314808
Mo 2.6618149596264464 3.7476185420875088 8.362536167920572
Mo 2.5636992448568834 7.03881775525596 4.272677473300051
Mo 1.9555205193993501 5.273197497088722 5.98773101624559
Mo 3.5938082920099816 7.1073419652225525 6.960174593606067
Mo 5.693175680332355 7.81927820641274 11.039791039406788
Mo 5.539150238880647 10.601482994670057 6.571144169889616
Mo 3.764011793073355 9.040624471412329 5.20929990574634
Mo 3.900766712484652 6.201529718402659 9.575595109219622
Mo 4.30133917143595 8.858473052256201 8.859437974162809
Mo 1.6873772655742074 5.6192967386412755 8.459094756017215
Mo 1.2229589344912952 8.225208281235702 6.358238505778493
Mo 2.247581970053988 9.96279433557606 6.986590423603969
Mo 2.216746445657912 8.403255614198423 9.011726655903745
