41
Energy = -376.47182648 eV
Mo 7.995025907829644 1.7416962185561338 8.530375108715374
Mo 6.974348406549775 3.1291911315533327 6.395512795120465
Mo 4.2634095722131224 3.463325067845591 6.3387070282209095
Mo 5.35530833638114 2.672125426162876 8.686648938459815
Mo 7.089225996715868 4.839582827457927 3.9859498227140264
Mo 6.660256322310093 3.7298264965378656 10.10759324996632
Mo 9.025553125144429 3.2666350621565665 8.312707294061468
Mo 8.665716954417865 5.105103970687067 6.0220846784763555
Mo 7.96583085764575 5.679907072777894 1.7375599179874335
Mo 5.073816014252142 5.775785412535004 1.711146773754268
Mo 6.35093122473537 5.152735581617427 7.645861219131209
Mo 4.016774809068726 6.07147861299075 6.709170880832995
Mo 4.3440261701906 5.225417326132502 4.286589460838378
Mo 9.87601022488361 6.147397982040429 3.769125725026768
Mo 4.0771959251285566 4.6269003975617995 8.991364756016528
Mo 5.2971267850861 3.0191611439882298 4.352203073495845
Mo 3.2998386459095848 6.244676621352026 1.9575908643118778
Mo 5.63733969753661 6.100641366864751 10.216934644098657
Mo 8.312716495152955 5.794714273528252 9.45069611877572
Mo 10.274284012733583 5.662609214747326 7.878496373801237
Mo 6.322719290133649 6.907458594664613 5.163714311700054
Mo 8.233576145388541 7.378156581895335 7.468208987297867
Mo 4.982183154199721 8.51862346248159 10.689622714409909
Mo 4.723219145429928 7.994328256108181 3.4841515770510822
Mo 5.735328202037553 7.858073669824883 8.030336253924494
Mo 3.558997641408874 7.407441192718353 9.043695243757773
Mo 7.419310046120369 7.365308308709414 2.548489452906871
Mo 10.765533747084064 6.8110101732935755 5.324314045253257
Mo 2.301800724676505 7.2361430161465 4.698441446349437
Mo 7.302996919854967 8.220602426149943 10.111829524917013
Mo 10.275372893363187 8.179694895565387 9.308337514103862
Mo 6.678037931594397 9.63084777790179 4.066700097580105
Mo 11.67501010364875 7.863340210700888 7.790327231227387
Mo 8.582643804131793 8.249680218212065 4.9907448452808625
Mo 4.355153095005591 8.83844313805692 5.728361452982954
Mo 6.632907648092216 9.764099646639139 6.371658118376325
Mo 5.8741879216241495 10.594845429436754 9.030512836635689
Mo 10.12012607968361 9.42742458412025 6.741944621968114
Mo 2.0850455212261716 7.933093038158614 6.492980649921062
Mo 4.167427426278172 10.029700655407003 8.219530036201075
Mo 8.417421007158246 9.715802301279526 8.442338987394132
