42
Energy = -387.06269266 eV
Mo 4.14502349625295 6.742929292173477 1.3876700796353687
Mo 4.06208271601304 4.744775612428255 1.9319595227390447
Mo 6.215944305298227 8.092046161867765 2.35096784184324
Mo 4.046015061960168 8.244990566994721 3.5788769301172767
Mo 5.795169285124462 10.308353022471632 3.364114561268791
Mo 6.305962866855883 5.573748837601836 2.7750847278197766
Mo 3.701634835128936 5.889818592934173 4.086260467273258
Mo 5.628820721469793 3.0097517110419045 3.706041474076411
Mo 3.3653779223560645 3.3549010819462013 4.665433438953915
Mo 8.5096732484025 6.905814279216462 3.7853752616867435
Mo 6.125923564482246 7.157451721335136 4.9269078736122145
Mo 7.675983534677423 9.500784850812197 4.406273323269824
Mo 3.903081917013793 7.421242243523452 6.383958421418575
Mo 5.094613835404823 9.603213522975684 5.780656650470962
Mo 7.401303958829005 11.428996021115912 5.982345312703931
Mo 7.953147612700725 4.052660535251686 4.062410033613766
Mo 5.667755990197156 4.69575077807905 5.640956552805936
Mo 3.2304284537263097 4.957933470582898 6.867655388775369
Mo 4.216970782786317 1.2365554304791173 5.369476500816036
Mo 1.7703108410521258 2.5349202935280712 7.06996272051284
Mo 9.980952557282553 5.338438048023902 4.6254229859016505
Mo 4.41013334075381 2.74618288893938 7.2998447407142875
Mo 9.698808456824217 8.091696832379428 5.826954836464355
Mo 4.250208667125446 8.795726378370231 8.44404841911882
Mo 6.457757305151112 1.8943286680159623 5.668973508833785
Mo 8.953762599636603 10.627010533295486 6.918507831268852
Mo 5.842114846687393 6.409953138345566 7.885470928065442
Mo 8.645596816230702 3.0955253157078015 6.312210739078526
Mo 8.163295750589397 5.808196567846201 6.375370791983237
Mo 3.333296644737285 6.165562463161435 9.059405070609023
Mo 10.839759324705161 6.761573415566422 7.016124455855067
Mo 7.287708330139414 8.680084573396009 6.962803971476099
Mo 1.9590191475840997 3.3011472932206964 8.735432921102225
Mo 6.81370631384226 3.7862883812034327 7.9694700346500476
Mo 5.592243912598606 10.58028232612088 7.979868401439722
Mo 5.346123742815581 6.855513771758081 10.673763459099174
Mo 9.13647255809016 4.702867180874081 8.638849466948015
Mo 10.613646736436957 4.13067431040815 6.9866807932912565
Mo 6.621163461398927 8.545201568548306 9.419544112361933
Mo 8.762066897339462 7.197722852654117 8.50042887215705
Mo 4.569611378729185 4.377779270994801 9.398653166793029
Mo 7.051379444624883 5.751064879014607 10.182507307656516
