42
Energy = -386.36537608 eV
Mo 11.527190400956691 8.924391029674968 8.605369552880473
Mo 9.05834422770185 10.299037248390412 8.313538261713115
Mo 4.136011224760166 8.743465020423956 9.128147741469505
Mo 8.906585619884018 8.665334807138994 9.650597282158214
Mo 10.273839125147031 9.141744794774432 6.110824939871197
Mo 6.674535318099977 9.601454930967742 7.933997875301382
Mo 4.505409193217574 6.172620396890659 10.257913122237744
Mo 8.4702772207346 10.53049606090338 5.768312172665623
Mo 6.516781518943178 7.5985327467707995 9.497281265152356
Mo 4.055138079231703 8.81255440080336 6.311816761413027
Mo 11.043720081819135 7.184067323432812 8.229284646364603
Mo 2.409958661314044 7.337343861349756 7.220136230236986
Mo 6.4173788945489 9.066792874661376 5.332961922349158
Mo 8.206791725795458 7.793368792779497 7.108671215820707
Mo 8.571536833022233 5.812759581424097 8.770136689901046
Mo 2.600630199336883 7.364814312231838 9.85648499358161
Mo 5.232236245316684 6.919762125428884 7.358545746674942
Mo 6.33357560297634 4.817208222510077 8.906238133344852
Mo 7.598741967224554 9.77011773432979 2.8113549825026167
Mo 8.702208330513198 8.096613195968368 4.426943331544145
Mo 9.871658101973532 4.1757956006725365 7.399433320806064
Mo 7.5337936815194455 8.14048818857929 1.8985376681821444
Mo 3.399534822448255 5.221649001226108 8.133244813170673
Mo 6.0562064366856 6.606068634790132 4.782426847946868
Mo 9.67637241232255 6.1131627416080745 5.84483691091991
Mo 4.930335180404244 8.297038083428387 3.10718397402204
Mo 7.642253474288695 2.9721676927698666 7.914798185471622
Mo 3.251463760308717 7.129570117162821 4.528396407777148
Mo 8.18042783060068 5.663565599505887 3.649126930908491
Mo 4.80019049015302 2.726868596597424 8.769691144629402
Mo 7.417627124568432 5.038937724549474 6.423927323983409
Mo 8.999600115172523 3.329573154903144 5.174266397054699
Mo 2.250655887089373 5.160708373035268 5.715034506041002
Mo 5.874857398574914 5.934920175702938 2.2513594755223965
Mo 5.069701808863184 1.5646099406393672 7.252192373412835
Mo 2.4071930756944697 2.785003427633001 6.887234157624608
Mo 3.586209318655483 6.634659213336923 2.041967435890741
Mo 6.5421931600959615 3.848623631499804 3.6917519850073166
Mo 6.956427466922203 2.385175993160642 5.493431090235593
Mo 4.060397743368111 4.827412254399832 3.872574984909996
Mo 4.907580140611293 4.183968884914546 6.290286304717386
Mo 3.209046009822752 2.4721694197168933 5.144356805269896
