42
Energy = -386.51493689 eV
Mo 6.285197640413185 4.478152961472143 1.4354810056871508
Mo 3.6972789968336985 2.2643135551562477 0.6687384117771935
Mo 4.063599144107976 6.264278734989583 0.5104519303195668
Mo 6.776582863611543 6.56354176514462 0.9004660994505085
Mo 7.521684139666447 1.8570620447381914 1.5789580257973654
Mo 0.9927424162498796 3.7984271906583555 1.2671839418856312
Mo 1.987686741947886 6.61847570842859 2.5143216341904946
Mo 3.630280023046828 4.444894357993474 2.1615652227210136
Mo 7.794021773245954 3.0542548405304006 3.3984026644433434
Mo 5.58969626878439 4.43915129097898 4.103616148792591
Mo 3.0966851502546935 8.186529294848361 1.3028596590434582
Mo 5.097042825585275 2.151533560167181 2.6848381839066566
Mo 8.643417298249169 5.488432183645961 3.182711199880183
Mo 6.776490488402054 8.233335791167624 3.8404972145347025
Mo 2.2507850659429516 1.9082108159456233 2.3288092016508513
Mo 4.382340835773854 8.947139985072159 2.440946203392874
Mo 4.952349846984457 6.809868004236693 2.8412313970819962
Mo 1.4722824492415003 4.31231774795906 3.8400456177650577
Mo 7.6090452190222235 6.103742622618258 3.349988187525496
Mo 8.772929499030562 3.122041178537338 2.592866419333742
Mo 6.793127080027558 0.38269250388080805 3.2701080237507485
Mo 3.976531559879551 0.16434346152811155 4.270775744322387
Mo 3.2693541389251903 8.02204456163203 4.1505269662099264
Mo 8.769515550566513 4.793841534829422 5.426559998433409
Mo 3.3982423769536423 2.7501673968443443 4.856704871219349
Mo 3.4275686140926775 5.751986547886357 5.036251346082015
Mo 6.181439069141006 1.7988755443730853 5.2778083100046445
Mo 5.933767317075521 6.834323644430061 5.625849318146124
Mo 1.023299231186738 2.2478577549486793 4.9623716981399415
Mo 7.620680222241942 4.557638010741679 5.72474690527839
Mo 8.455579985455616 2.295785080598046 6.498472088329174
Mo 5.001261941824466 4.103729819109199 6.809657618980884
Mo 0.9551009362469733 6.530322016647815 5.4384594245849565
Mo 4.066089646673452 1.9247206532666477 6.962944525972359
Mo 1.8585637069172463 4.185221291113182 6.785678917037709
Mo 3.517237368117841 6.312428844756041 7.650790500347389
Mo 6.925881090666239 2.603672575785135 7.842779006131265
Mo 8.202939520885016 6.877896504176115 6.036623132511852
Mo 8.64341729824917 4.911703760870296 8.287869790523237
Mo 3.5343271430144916 4.492151315721949 8.783819838223174
Mo 0.8788239967348209 5.827323154494972 7.85954668585453
Mo 6.898973273608604 5.62709188594148 8.19802929009252
