49
Energy = -455.36383894 eV
Mo 6.246772017986472 8.928419777212975 11.002243566290634
Mo 6.962684604302859 6.707605066908204 10.832119687167765
Mo 9.427977849784353 6.710139608964003 10.797109536375801
Mo 4.4370928099773925 7.774401801107626 10.288604312025567
Mo 11.827894989101626 6.531157375097704 9.823874371538666
Mo 8.512468253916047 8.617510271441319 9.363845150546439
Mo 11.199590349600944 8.346165853474277 9.183006499149396
Mo 6.560418707012735 10.628024326305594 8.670094608702428
Mo 7.628099864551964 4.067073667122843 10.362823530231147
Mo 5.34183233746943 5.416349400637933 9.085986931760033
Mo 2.8366000212660603 5.7261458522985516 9.108735947656871
Mo 2.182225309330857 9.144476768539198 7.4865530935145275
Mo 4.200081488742526 9.752802593940833 8.853503205999978
Mo 10.07323818374385 4.611988410392324 9.415098194704019
Mo 3.9059556764743015 7.239325878903201 7.268585294412964
Mo 8.235138723757396 6.001668142406946 8.434760025338736
Mo 4.157535027575681 3.46802251289736 7.973028580858853
Mo 7.046161595728314 3.4993441495293602 7.734682173296796
Mo 10.874405965699724 6.164210441571523 7.327865123412591
Mo 1.914360382394146 4.039887144593585 7.9469669310443365
Mo 9.608021177991754 8.169643995109912 7.1141150046134065
Mo 4.744408017693176 9.91936059859522 6.400269304311366
Mo 6.261403301679388 7.947335014398201 8.276734324430942
Mo 8.411326860806604 2.394611673382553 9.452635550883958
Mo 9.443437929791436 3.80787913530946 7.159893435793765
Mo 10.913090912806723 6.991056331282238 4.752478025769988
Mo 8.365687264074202 6.138264331645259 5.80377284619799
Mo 7.579280917122568 9.947948440668025 6.94857620324729
Mo 3.5389857015664625 4.553848567878332 5.71436972765422
Mo 4.954453869838713 11.534803670187774 4.342118780836839
Mo 2.614136732150614 9.00500542043807 5.412066311725255
Mo 8.594858468174747 8.521285982196018 4.658692969820925
Mo 6.1956263447094235 7.993664264336245 5.383797461334752
Mo 1.917192730225301 6.234430263630857 6.496395886545005
Mo 5.855530023592009 5.484828331527893 6.520907438843487
Mo 5.527916261339814 3.062486462147709 5.333495483775633
Mo 10.415439511783559 4.97448559897309 4.667484522631112
Mo 7.878869432320114 3.5204008688812753 4.979368974150817
Mo 6.640576493102939 10.781582404996266 4.250420128381107
Mo 6.29336975267724 5.560036559722764 3.9374725853836936
Mo 4.069363122282748 4.211070492938939 3.0152002233872555
Mo 4.633913968277386 8.876751360030918 3.571023162134037
Mo 3.841929234624861 6.716311210449093 4.42411991248721
Mo 6.92796672505251 8.00720960744835 2.778503042309637
Mo 5.828637782813864 3.074125053311662 2.8094860376828446
Mo 8.720672627745385 6.3362241658878595 3.0723243791264014
Mo 4.934258974838474 6.68681415471875 1.7353791363735092
Mo 8.227410775015498 3.928585915606991 2.6569870680619814
Mo 6.4500830350165455 5.555819260799348 1.2478996660083863
