43
Energy = -396.06078763 eV
Mo 1.4785593267523671 6.27853582561998 8.976141194884223
Mo 3.654429613679971 5.307574907457526 10.80564864873514
Mo 3.983807199657519 5.733589014256378 8.447027437791814
Mo 5.423868402821285 3.7774172549140275 9.710614879628384
Mo 2.346023899038578 7.789035205720086 9.721357150704584
Mo 6.17095862032613 5.2520517201316945 11.388012992496906
Mo 2.951867272929117 7.693148549311028 6.887125355922305
Mo 5.581420619454662 3.930734113058125 7.213349842486116
Mo 2.9984846750472705 5.146506149772426 5.767988563069685
Mo 7.3597867447446275 7.647090604636677 11.900224787124001
Mo 8.43840534924667 5.727047272148815 10.648610201386006
Mo 3.4240787424887245 7.531412162865186 4.27691133408474
Mo 8.1549170840879 3.929148967734752 8.515379506172579
Mo 5.0042390185718 7.359893349749957 10.531728956147234
Mo 4.791690650384799 8.497973454601714 8.049620078325786
Mo 7.690890350725837 3.0514855896541295 5.834816798953868
Mo 10.352590315034846 4.421214714051069 8.874703630164419
Mo 5.319990028558434 6.667807585569829 6.115402652335264
Mo 5.072981644690493 4.126937076723609 4.985383463578344
Mo 7.598818843510559 8.305676715332153 9.920720510391181
Mo 2.853274496601079 5.437640105087475 3.5630170740246796
Mo 6.562942842928139 6.112649201194221 8.774723299765897
Mo 5.1502828954734525 9.257227730258286 5.534317400739353
Mo 7.384767265708 8.350121825231321 7.177433354560195
Mo 6.7521672656730285 10.569377355085864 6.78930834970226
Mo 10.029139354604707 2.241483248730204 6.177610431781847
Mo 3.9321632125510524 6.887017013853424 1.366441207534064
Mo 7.726738608894293 5.580646690367964 6.190321101514931
Mo 9.299703641187218 6.609603501617121 8.411047919214106
Mo 5.600257431240967 6.022866135576654 3.363658482737705
Mo 5.523095208620171 8.637611856607935 2.746563257307182
Mo 6.853755822608666 10.698368147075637 4.001235342067032
Mo 7.737554867356051 4.308521652156768 3.702798071708342
Mo 10.055983138038313 4.735770685620813 6.439585724167927
Mo 10.013684327032509 2.978568548475246 4.279489601932954
Mo 8.652783859875449 10.016076696264856 5.174925260362579
Mo 9.777454313633035 9.154278244669653 7.671871437754721
Mo 7.710804309882006 9.311081713211856 2.3073048831358927
Mo 5.731711209310971 7.002041417824066 0.7358701039459872
Mo 9.510684037022322 5.844839196167929 4.1256166745285725
Mo 9.99385832630058 7.748114008796927 6.150254475081495
Mo 7.925886080659454 6.600253583224665 2.3398744229916955
Mo 7.510012958284721 7.80807508482999 4.492478014296063
