41
Energy = -377.89581373 eV
Mo 9.150314088607978 4.340235616457639 4.892224563065421
Mo 9.41565332726647 5.072117096004923 2.0904645205214534
Mo 9.043600803738585 3.2364654690673187 6.9926576225154164
Mo 9.648841431389439 6.118851414616153 6.729321604827103
Mo 9.590525238216976 7.026386492781281 4.222717629919141
Mo 7.098138511161569 3.602328275177471 2.997788513836465
Mo 8.955857099309219 6.808864480013609 1.6425507258122163
Mo 8.392932275942062 2.254449723143946 9.30533782366993
Mo 6.5308301704356575 3.570968153621325 5.666740825270167
Mo 9.581291536484809 4.936169526976303 8.857376128266875
Mo 7.187542090545707 6.051433043731483 4.4901345040227225
Mo 9.779815319687629 8.317453793809161 8.203489093867434
Mo 9.91089027028148 9.149020588418418 5.9785295397901415
Mo 6.529032367785183 5.204121324858262 1.9805631669140291
Mo 9.362295523500563 9.327993718658588 3.4846524188827237
Mo 6.646237566633641 2.5362794593951428 8.366959080493773
Mo 7.641115156139048 4.453058588310156 10.274192097794577
Mo 7.177204641046407 5.177601140706483 7.512141055858877
Mo 4.5860347380746385 4.601749345059065 4.059580331952514
Mo 7.581780377616083 7.724475599607727 6.388514122918156
Mo 7.30190770752506 8.404540832019043 3.331619243728308
Mo 8.0444943090168 7.086600365106443 9.24937919550383
Mo 4.512182671881904 3.9376917566759904 7.069641962976704
Mo 5.0510578954869505 6.149117447161678 6.088097753480448
Mo 5.507506982387498 4.998012369466357 9.411978267684196
Mo 4.8122909867599795 6.944063931783743 3.325996504504061
Mo 7.549859717062787 9.655863504527272 7.965462625730902
Mo 7.772553517618509 10.182525168110551 5.521026654163272
Mo 6.430066992686759 6.923835463135724 11.17760363613464
Mo 5.581036031220078 7.628561935133707 8.347104999483047
Mo 2.4960484235903744 5.012441885083825 5.706941895605768
Mo 5.394267873232706 8.65510682474875 5.194594072423521
Mo 3.2467097859426826 6.0244216306087885 8.289364277801395
Mo 6.015548761864814 8.865966975792677 10.572947813091048
Mo 2.9106992187284715 7.1017841922128095 4.686014096428271
Mo 3.7488106040506652 7.063608520281534 10.870946731657215
Mo 5.334839485344065 11.021358048634308 6.601746053225988
Mo 3.576961441530564 8.543461104355842 6.893424569949748
Mo 1.6105767146176266 6.899780412426787 7.151276477389476
Mo 5.001157593091307 10.500324350391411 8.406140851385135
Mo 3.177335564657577 8.403542365163833 9.646351946432596
