45
Energy = -416.41646498 eV
Mo 7.242024834476655 9.071753969413797 5.804900995964628
Mo 9.245722338965376 7.788663613753442 5.999046257598981
Mo 9.3543576295412 8.822397511268523 8.461408460296429
Mo 5.95364686490575 7.27656196121353 1.2451468409751565
Mo 8.03775894252253 7.095861636764837 4.069476621819911
Mo 9.832779413334103 5.5849348444219915 7.65578395429328
Mo 6.870570546007502 9.769299901670312 8.214613972958256
Mo 8.548080275933646 5.35928383859512 1.6905338456391141
Mo 4.564819293851002 8.42809131872637 3.8284630284346077
Mo 10.161115687893567 5.232532590149867 4.4980344947125035
Mo 4.830258761512289 9.940074498630182 6.635945966288494
Mo 7.371914360003857 7.233843460185006 7.949867336671185
Mo 7.2153726097956685 8.476255121594008 10.424048708163543
Mo 6.029199085268415 4.630358207569943 1.3309725476600631
Mo 9.14281971072663 7.289303478360025 10.05728309139059
Mo 5.499424033226456 7.1280862473741005 5.842951777185713
Mo 10.326368283306232 3.646524206505256 3.6016691938324428
Mo 7.629605668306211 5.424653171259508 5.971164081020186
Mo 4.052725539726066 6.750746503724036 1.4412287305133207
Mo 5.927879545476243 6.023351562568492 3.4595017673769584
Mo 4.65169139010811 10.131460524329919 9.595639622369598
Mo 8.42775797380233 3.3765626472391554 1.428234603090029
Mo 3.1221625202473926 8.437180511396795 5.75960652945421
Mo 8.405423752092352 4.756467136057997 8.733655595246045
Mo 2.96440503369245 10.172595066386194 8.185847999678716
Mo 4.635025479755419 7.85987149539772 8.376562656426737
Mo 7.507018675915287 3.8647041279813714 3.7926013309947564
Mo 8.368070368986524 1.634196931117961 4.197995194613529
Mo 3.2610366549631262 6.364052205826856 4.042706907483763
Mo 6.2685865028192485 6.283927175496244 10.363480248243565
Mo 5.520444211805393 5.25321344295271 8.021786176235391
Mo 8.849961143384833 3.1246163768236728 6.195157786792328
Mo 5.529779243363189 2.376256726447129 2.9936323492775534
Mo 5.11563596710366 4.236872818063326 5.299782714885378
Mo 4.411668193245769 7.541838502554387 10.999802924228776
Mo 1.9624111420499677 7.385127266359658 8.240566641682408
Mo 2.3089478160004733 8.522382198703365 10.090408054740275
Mo 3.985614323672136 4.059470295283486 2.6779872805819878
Mo 3.2193159998510414 5.836410707759365 6.591654374454023
Mo 6.718811082839969 3.049722973341454 7.279110441660219
Mo 6.321372607163363 1.7033406594327456 5.268473787386266
Mo 3.405560422278201 5.856571090867826 9.583585355471294
Mo 2.3121364726979645 3.768466918122734 4.82649315307389
Mo 3.892008948661105 3.5282392855485245 7.332937083283923
Mo 3.3829099175463657 2.1331752565746496 4.862817273058416
