46
Energy = -426.37935345 eV
Mo 1.0734404953291337 6.475879618289476 8.822761136392295
Mo 9.417455405848372 5.502802352113876 3.7872827564925235
Mo 4.459384779082708 2.9661177379475436 4.122825619424736
Mo 1.6310486868205876 3.808496956993084 8.221841592617459
Mo 4.946496420867557 7.84940248436535 2.6511033933602834
Mo 3.3663096082893844 6.255649172690894 7.859183056959084
Mo 6.0841087529269835 9.405026932256249 4.536850453653276
Mo 7.0081840049893325 3.7399274429041363 8.29881527479672
Mo 6.501147399847357 1.5497286667153922 3.92435079558304
Mo 4.402534747867836 3.8447657739699714 7.9956334442489805
Mo 3.441717795988902 9.355611364451143 3.8945934328800647
Mo 0.845940505596487 5.8337167411431965 6.496988996368782
Mo 9.065127058621876 6.791882474450257 8.298329949318608
Mo 4.729365090862192 7.468129687462894 5.571495637981144
Mo 7.431230427857559 2.059740990547992 1.6659010770565703
Mo 8.121323651037274 5.290345788600798 6.087149839488356
Mo 3.8889405051096233 9.864735706647169 6.369399401790409
Mo 7.033611934009362 4.036514013640229 3.652567539642782
Mo 7.856011592335967 7.973763420225373 6.283577865552396
Mo 6.6248612133001785 5.973400591635001 1.6206640097577247
Mo 7.501549104763797 5.206946061019843 10.086158250661601
Mo 4.693484161076507 8.292592439010612 8.451366160243364
Mo 6.310789668443655 6.495879944652629 7.96416456154904
Mo 8.750797766084343 7.101064180406117 1.6855314973795021
Mo 5.63613368540066 3.234731967096913 1.6144307792634525
Mo 5.591849554450648 4.832863020028779 5.876268744373887
Mo 2.509659696998721 7.13214662291293 4.0676942852010205
Mo 8.398684861013916 4.300304209609084 1.5176418517946688
Mo 2.8406374902749425 2.44080677900842 6.06262086257281
Mo 2.238005376247215 8.813739808460674 8.949133748371082
Mo 9.4559966900842 4.570936399474073 8.030771531355127
Mo 5.319831935555939 5.46490189146564 9.994114641817038
Mo 5.309761247433356 2.151226943183488 6.375202772744304
Mo 9.390434583294018 8.12127999849523 4.392237269747715
Mo 7.097312705750629 6.812080962192508 4.078623701736495
Mo 2.4422013273704724 4.450375884351614 9.914610901357111
Mo 4.483668155107846 5.55365628740221 3.397623546437485
Mo 7.505361080418244 8.745189837525212 2.2504337328771866
Mo 7.747709269436891 2.642118172447906 5.990907417475163
Mo 10.31874866868497 6.67258255649779 6.036642699208559
Mo 2.9334263405492704 4.8022318033927975 5.625545563665128
Mo 2.010808355269488 7.905432639014786 6.260186572929456
Mo 6.103714892534374 9.854291631288651 6.874663391914916
Mo 9.453453279101314 2.6761551681174134 3.786291037720765
Mo 3.0098408704204305 7.446652544719788 10.334333084636041
Mo 10.225259691054726 3.4415348645859893 5.428846653011112
