46
Energy = -425.95892487 eV
Mo 9.017646226793067 3.6985174073139233 2.984869863384048
Mo 7.284906632819725 5.102843309989223 1.3314843413575954
Mo 8.792168916013841 5.730820326655936 3.829639342400992
Mo 8.748669874401926 3.5499053160570573 5.543976656391288
Mo 7.2051883220239095 2.1346601397081644 2.2291802806928653
Mo 7.450287191380198 1.6224368596431458 4.368390413174378
Mo 7.763232628925673 1.835141643151152 7.231648731511684
Mo 9.314472714292304 3.976055491178188 8.12068083091596
Mo 9.211529069024499 6.223751834505523 6.540403540836429
Mo 8.120563434166833 2.3064360381347813 9.368494569009034
Mo 8.869479027417455 8.244802423978093 4.959700654680708
Mo 6.428420269851223 4.264144372133911 3.9700439006519033
Mo 7.564291000067496 8.167297827667065 2.669719438412382
Mo 5.570978087026358 4.316455763658807 1.1738278723405937
Mo 4.999129010584195 2.2457143930018555 3.293658909960275
Mo 6.84602573382759 4.5914186427923624 6.886110067532047
Mo 7.895667267926471 7.690051557145031 10.594591059156954
Mo 5.361306001270303 2.603900179209319 6.030489999335475
Mo 8.953580679029363 8.847382360165483 7.83379310055362
Mo 6.699600636913737 6.904525220074418 5.212835090146862
Mo 8.797571699616803 10.326761598241568 6.176210182122889
Mo 5.769144774849368 3.090200753910077 8.722794111857887
Mo 9.529684868308552 6.4318758415278925 8.845530125808652
Mo 7.455886102055708 4.958919926072793 9.58544275899771
Mo 6.930057626609822 7.050179367646645 8.03355810303349
Mo 7.1650530916238555 10.08146386647453 3.5203357096835766
Mo 3.0871561242911234 2.8202909982263105 4.8108288330835585
Mo 5.485194691612624 6.5006841296239655 3.0103696631615064
Mo 4.338711487467133 5.111870806875963 5.616062934078428
Mo 6.072429699797671 6.962432222311333 10.801607791492591
Mo 6.6088174484507425 9.372823653375685 6.386313617638297
Mo 4.705118641539874 5.500941242038071 8.363736255263722
Mo 3.6084077358340294 4.541950300031009 3.160074201381208
Mo 3.425245262050121 3.511335138091295 7.688628774398488
Mo 5.128654711739219 8.96311364529336 3.943861759673767
Mo 4.449103115906066 7.959570579458381 6.681216917423252
Mo 1.6309411714653455 4.053774320599189 6.4238586551800685
Mo 6.11567582550896 9.204402364909209 9.005198557911704
Mo 4.041039778674348 7.841075768017118 9.20829388796083
Mo 4.4361334650024435 10.746500777412207 5.494551195015572
Mo 1.6586282077847072 5.5590151368285206 4.412216380135221
Mo 3.1481905038562448 7.168994692114745 4.2689071651971915
Mo 2.487967913991854 6.447081380016006 7.041730935844284
Mo 3.9792517764858846 10.31436308036545 7.895778271096425
Mo 2.601894418084589 9.415504611358774 5.575898457289781
Mo 2.1148732644927737 8.838968325217765 8.056742497932303
