49
Energy = -455.36025857 eV
Mo 11.616592021047882 8.493640766175886 6.33181070677743
Mo 10.1648245963679 7.231631983012529 8.539044555900686
Mo 10.816159714576461 6.222245598632422 6.348265734194975
Mo 9.969816129432806 8.606988614970579 5.078823282680077
Mo 9.454958697334137 9.368603394215928 7.591491527862839
Mo 9.155694490143054 4.792638425601855 7.9695176351921635
Mo 9.368533208519233 3.7559560265065657 5.227568890836453
Mo 7.477797719629484 5.9128159357627075 9.237372520861147
Mo 8.096711770185843 8.364975884714699 9.747766992177072
Mo 8.791806016325433 2.363843601262208 7.284544347593431
Mo 8.843441044807317 6.16919987085522 4.782984239055163
Mo 8.071756310434802 7.246605147977297 6.948284944707184
Mo 6.828015602268134 3.1863388558316377 8.589518931138139
Mo 6.802949447117053 8.611653437459161 5.089831250359389
Mo 8.2090065966513 8.057632910402576 2.96161353188607
Mo 5.494179535790793 7.239014478800029 10.040843173430252
Mo 6.87428924854164 9.59165098966929 7.68600800913992
Mo 7.535469583534807 3.649413597616338 3.7968577416457134
Mo 6.969796379023368 4.6328087322605045 6.50550463639231
Mo 5.84276322148942 4.536449991570154 11.151216533936973
Mo 6.193253114514028 9.625964089481162 10.109754214936391
Mo 7.02550701962017 2.0043523491417057 5.964693465177146
Mo 4.8704732257686505 4.794597820019306 8.700698438910143
Mo 7.581712420577121 5.884327836891851 2.1512694912062504
Mo 5.427183828578516 7.145462128974811 7.26106624840927
Mo 6.87781253958083 8.353373992095973 0.8800042206314413
Mo 4.695001907115426 2.698815911307448 7.032999658278103
Mo 5.771787553091935 2.154163772209222 2.290477239106429
Mo 6.28648597592757 6.40711101461033 0.13222239784699225
Mo 5.122912090484185 3.5628263028525713 4.712142360617403
Mo 4.371059282927139 9.092361538713321 8.415562696913417
Mo 3.7539447599635865 5.386126930811313 6.171925891590497
Mo 5.416929914951967 8.944536595669874 2.9330154507842017
Mo 4.134452798410129 5.3855695890135085 11.30783488075804
Mo 4.741506704856193 9.764488415811561 6.014944530028141
Mo 5.377967237273189 4.23729833566805 1.937807350378017
Mo 3.0044558588950965 6.625662849795147 8.875464862129302
Mo 6.062840674872694 6.298161550390264 4.159735740301113
Mo 3.500797046548515 1.3639871518352253 5.255144650819694
Mo 4.724650503912847 6.915922004996916 2.045048128003611
Mo 2.5261974726698844 7.737851029260518 7.017024439075035
Mo 3.5440220147301935 2.4281951032039037 3.0566649689635215
Mo 2.3145793808978294 3.9977228187952196 8.13357114196235
Mo 2.3283577613817537 3.3181555775547746 5.45019535200644
Mo 3.987381966575855 7.760307957204671 4.822329788028523
Mo 1.136438124038998 5.3219109271009115 7.233384982568106
Mo 3.306924615891858 4.992524950818707 3.4220752526654286
Mo 1.414383945055812 6.402604028751166 4.52046652464535
Mo 2.0345953249956614 7.474304464993371 3.0685772202241712
