45
Energy = -416.97974551 eV
Mo 7.8526197374490785 6.9612512500472095 2.760283650994317
Mo 8.373511947884907 4.352913725745322 2.1976821221637386
Mo 5.266584739598999 7.760320857920737 1.673241032916857
Mo 6.050167403136576 5.146159283775793 2.415286263201302
Mo 9.454594075531615 5.844547776089422 4.3722623340469005
Mo 9.174131649714974 3.4319628133105 4.053714958790125
Mo 6.57397881703241 3.5145827175418223 4.163006952026208
Mo 10.02682427961539 2.19949572898307 6.27432457303601
Mo 8.87140131468553 8.316018315833386 4.718787555945721
Mo 10.709226056396583 4.5093288676103995 6.442941998046831
Mo 6.761177463827556 6.273356685473171 4.933284309947769
Mo 8.819477764214268 7.019840595174138 6.774430644392989
Mo 3.5527575708029793 8.485656593536902 2.5129307877950158
Mo 7.2493191264814545 1.6782844776965693 6.050726277559039
Mo 4.953698461770339 4.6207983807482504 6.286126750087373
Mo 4.025017878943076 3.744345444636676 4.22726254402398
Mo 4.276596636841475 6.228871711276693 3.827718356481756
Mo 7.532909325608186 10.721993129273278 5.117125810632306
Mo 6.043358396291841 8.69577355960744 3.8626186455332117
Mo 8.031338915440932 4.312288002470262 6.437726445168329
Mo 5.242980916726304 1.750212499174965 5.870869333861083
Mo 9.196222464704665 2.605058481183345 8.151762944899264
Mo 5.636777944166732 11.121712698472168 5.530679918686525
Mo 2.134848077793953 5.19199188388482 5.392796677521727
Mo 4.235546689216629 7.10970372775963 6.45704171335346
Mo 6.55501271253216 6.194888756647375 7.970431173940726
Mo 2.03040763282046 7.349318453643788 4.76362270308379
Mo 6.192525485957455 3.098848678252723 8.093580509029064
Mo 8.521367483026042 9.617365384598832 7.87666682771011
Mo 4.73466034677855 4.6725205002217205 9.605674072759685
Mo 10.392463353806416 7.545631440689457 8.736254400025945
Mo 6.506320265760705 8.569378526692065 6.461462851112117
Mo 3.8857294950463137 9.198531081404807 5.01944331638468
Mo 0.5111192078199457 7.070550332880997 7.016553244771758
Mo 9.908880369968367 5.151033312260472 8.545732401863077
Mo 3.333359043003938 3.292670092672125 7.514775321671809
Mo 7.0790955093276065 10.973320224763967 7.945310201025347
Mo 8.489272823797442 7.206403844669673 9.771459203339637
Mo 7.597487322049764 4.548962519372505 9.545096032732815
Mo 2.6533949276765236 5.50536880465799 7.833176575249544
Mo 5.975482883266468 5.96832258263813 10.792525780506868
Mo 1.799856753499204 8.356934026872462 7.401558616804201
Mo 4.2833093612306365 7.323903720147171 9.03439039306072
Mo 4.526537978824095 9.54022026693578 7.7370408772546755
Mo 6.360528469588554 8.603301296346675 9.181320470473077
