49
Energy = -454.96555956 eV
Mo 9.725534293232682 9.347514096760435 3.9446576743164985
Mo 11.155939701822208 7.138243983244771 5.775270108885405
Mo 9.068978597285005 8.913090847818452 6.560347639387695
Mo 9.95909177885131 6.733161128514913 8.50712570860212
Mo 8.630638935378926 8.92669144322863 9.446792634773812
Mo 8.72648319069668 6.654024057943675 11.12477180905664
Mo 6.890162888027931 8.929885070608929 10.490482837768829
Mo 6.689569135978599 8.068230871600925 5.094794265044645
Mo 6.785378855129119 6.630879108130967 12.045480243054147
Mo 10.689244992959658 4.770979561388587 7.124957498685426
Mo 11.325037929495329 5.6317615336936795 4.5855979654411785
Mo 8.928340619678327 6.983857704257851 4.178760521741675
Mo 6.59176399817221 8.900793347999198 7.716639320214486
Mo 8.223216254516961 6.369884749035801 6.816366365987047
Mo 8.90137807178497 4.49574527857765 9.175952123551784
Mo 5.192454548972308 10.353794934464219 5.3555476965640185
Mo 4.5467742129123545 8.493008610868248 9.267610121798832
Mo 6.948374220212818 6.4963701997569085 9.208461169746322
Mo 6.93354443356662 4.469344095841242 10.956513979155032
Mo 4.505617143455173 10.510612220371877 7.891837253903685
Mo 7.549404980064448 4.306542290701433 2.9723496230842645
Mo 7.854189218292725 9.380170866564056 3.0806521720518467
Mo 7.885581278311463 10.448842872281014 5.799926762567571
Mo 4.644693338480666 6.266535515845259 10.27611990818723
Mo 6.937608621719855 6.8143465076058 2.52783542884994
Mo 9.442462707094988 2.782860254779963 7.388492667649095
Mo 7.13088752569536 2.612489425324059 9.371876902758682
Mo 5.034195150354087 9.004128940851537 3.099520778838211
Mo 5.100833019502697 4.228621070987345 9.072336862107791
Mo 8.990496663706523 4.393987025918705 5.191803041716861
Mo 7.023028204178134 4.034188562910464 7.115139087515233
Mo 2.806656247759033 6.064817010245895 8.35773394567585
Mo 5.173128622647569 6.594040892244487 7.212034672742743
Mo 6.128233980889804 5.543350588041484 4.795801223281578
Mo 3.289249710647544 8.726260269568085 7.038346813236429
Mo 4.111149120146112 7.496463574118448 4.751009962447379
Mo 5.5723095289716 4.274701525445912 2.1005528260541926
Mo 3.206163111471972 10.575187995652747 4.963677896461095
Mo 4.587676500672387 6.575684275037024 2.3495014095632483
Mo 7.488851276419614 1.1385874329184382 7.448569906209428
Mo 2.2598072174728703 8.797684737581784 3.0586319958498587
Mo 7.744351321138465 2.1176634144961204 5.167880011205302
Mo 5.385433738026924 1.9252421799494945 7.095290799603564
Mo 4.194872352250328 4.192005572823223 6.688283380621367
Mo 5.6801213667092245 3.071739124303645 4.6859301264498985
Mo 2.3357741837412282 6.11048525341888 6.372881454000725
Mo 1.4153954708899068 8.44401712073034 4.771058334345148
Mo 3.468233433787805 4.636130245524061 4.127415917718462
Mo 2.1417210009739356 5.993288072686737 3.470398464777138
