44
Energy = -407.68309023 eV
Mo 7.102237070688015 7.355230311702086 1.926024057536749
Mo 7.554645843762291 4.711747219039767 2.3631464318782656
Mo 8.49315721023783 7.328662047647209 3.4487284366273077
Mo 6.2347275786579415 11.10445612129992 5.983692240758745
Mo 4.763525709038465 5.277991788982964 1.5031507028496613
Mo 4.508647432325333 8.04937845767619 3.2166178515073334
Mo 8.744403891204081 4.892201101301859 4.568311141857276
Mo 8.665796674824076 9.307757480176207 6.122987900196617
Mo 6.408870286336624 8.896475721799423 4.3265072369204995
Mo 9.963022434771474 6.301399474224592 6.254077176092959
Mo 6.074996593608774 2.6561618837392613 1.0449982287790407
Mo 5.999645165053926 6.000078195666728 3.953133432532916
Mo 4.430715083543707 10.271436140567339 5.494579234355681
Mo 8.297068145098564 10.34913751317325 7.701835150395615
Mo 7.49748443515221 2.553064269300001 3.653779409183827
Mo 7.3372984197908675 6.753131385204034 5.93870022570423
Mo 3.2811404833416478 5.888253442930805 3.3748299670345343
Mo 4.162910646540302 7.5151822249026665 5.681719177094069
Mo 6.110130787131131 8.713516867508197 7.2171100649351265
Mo 3.4724879125701027 3.554694738316894 1.6103415223287576
Mo 5.493211722067901 1.2079054600611325 2.1102889679295536
Mo 8.378757468341584 7.531669186331959 8.299995176205714
Mo 4.744632039509499 10.614466442374844 8.379228283391098
Mo 3.1393474357442535 1.7343263313251382 3.829629893564817
Mo 7.0942619723306155 8.829365654937762 9.734099550041451
Mo 6.603154746937413 3.7821607983203136 6.063341960822162
Mo 5.885838681463435 1.179269294857979 5.096007288888713
Mo 8.743519058776169 4.877554778416924 7.478006690032953
Mo 1.8030797866201793 6.237508272630981 6.173061009199218
Mo 3.4112383653132525 9.177657091438105 7.876163371596945
Mo 5.836136534468055 5.912018529478827 7.836660973856579
Mo 5.159047906931769 3.49934482622577 3.6662512803161262
Mo 8.698887628651855 2.7131323274999093 6.168670912968105
Mo 6.949961371777886 6.0723423766213545 9.938321346481361
Mo 4.215649557561555 5.025717689923996 5.868256994149967
Mo 2.315495762439998 3.8336058794723074 4.313595130338616
Mo 4.890410314234726 7.808744319239606 9.472910110369073
Mo 6.823219381391618 3.52311140878697 8.884005456379464
Mo 6.493534766774377 1.6178473354770746 7.436979188764892
Mo 2.01971816015592 4.260996862595629 6.980961995587902
Mo 3.1988656474031796 6.153536741090988 8.451677450103748
Mo 3.9936007975504 2.1972022660100694 5.998130453504997
Mo 4.552071725166568 5.168681486303941 10.220368890878412
Mo 4.528414294448192 3.5692443537462437 8.303012005048053
