40
Energy = -366.87469061 eV
Mo 4.565036371667083 1.4710267325332134 10.410149960102718
Mo 3.4888336651049707 2.765541371123432 9.67953155217259
Mo 5.089494637614471 4.451874378958781 11.169694381545014
Mo 2.3664280478284248 0.3422889503648216 0.616447969357919
Mo 6.093365033132116 3.2574521755112817 1.0443380258548693
Mo 3.0573291547587766 2.9222521647757675 0.7927252864814951
Mo 5.030055118252411 0.8761431907939877 1.5974986417622314
Mo 1.082887756416572 4.92834134966952 1.3477422257473257
Mo 0.5776883828162396 3.0876025987523272 0.8657665992428617
Mo 5.75194976587528 6.185267865040641 1.511009433261905
Mo 3.3590728677365567 7.6262918089235905 1.7113853028694956
Mo 3.7896127485514897 5.032625968474362 2.10549651793983
Mo 2.1259599113823886 0.7720982093824275 2.4158722838879987
Mo 6.617313793977508 1.2677809620458371 3.3256123726833575
Mo 4.22220012836438 2.570527094518817 3.2136238378479587
Mo 5.057903249773621 8.7092768724277 2.31880718905761
Mo 1.6861423882578244 3.4900049311433707 3.411315093618028
Mo 6.3523628499391585 4.4140688696354085 3.4035965088433056
Mo 2.3168107014572827 6.607234731298833 4.104779554965803
Mo 5.283843463216522 6.802135755223465 4.199745608774713
Mo 3.5583706326834994 8.633367869119734 4.328443016961296
Mo 3.7693764184789154 4.713968054997606 4.814368228038618
Mo 5.49913977350296 2.889492325680737 5.4959968611964465
Mo 6.405276984605098 0.6452479185470457 6.398803253407872
Mo 5.422777251759628 8.014147655506344 6.263739974242777
Mo 2.690175217560646 1.902846512247207 5.308355378437171
Mo 5.999838279918653 5.3662284066637485 6.557078585425284
Mo 3.535180139145829 6.750517824119495 6.549875641505919
Mo 1.2013407706976145 4.322968130727638 5.647598583289414
Mo 0.7623182458066279 6.896223607182728 6.590112376881125
Mo 8.062590971781386 5.8192474572535495 4.815209071453182
Mo 8.089737051303393 4.071128594026855 5.6187466963480235
Mo 4.969913812084788 0.2390794863607306 4.561568174692702
Mo 3.4490307260421087 3.9295231082418507 7.286018637397839
Mo 4.826882842091189 5.765332588216812 8.833931980514105
Mo 1.6547548233099267 2.4589208108605765 7.328357515237782
Mo 1.356800494627861 5.812451039971316 7.9811626493610905
Mo 6.03243275196214 3.2125363100776956 8.113388636843336
Mo 4.469361346890116 1.2449624114907307 7.303622897272897
Mo 4.452352753613593 3.853915232099064 9.67953155217259
