44
Energy = -404.25836814 eV
Mo 8.881984579557773 2.429229797175792 5.730486594894289
Mo 6.626296358824529 2.840609253595421 6.972088695286055
Mo 6.945023021542134 3.4139134023387476 4.32340268279984
Mo 5.396417582890847 3.063949380904538 2.3981077723416555
Mo 8.838014821528223 4.245079564443954 7.318094791035283
Mo 9.182554353642566 4.639854535979725 4.870045770956816
Mo 5.945479942974469 1.8787757434819423 9.196558605841325
Mo 10.87891853813033 6.219450535167992 6.684012471299384
Mo 7.559346326203086 4.995593906690954 2.4370882726655596
Mo 5.984879137721914 4.518718319373104 0.7881101451102761
Mo 4.116994095646091 3.3339159539261 8.422571148698367
Mo 7.533349604980555 3.261726257422017 9.560282030772118
Mo 10.671028663260293 6.068365889726937 8.59009621493557
Mo 4.684496882863205 4.263579200311782 6.0397674685141
Mo 6.208713760343934 5.333223070299885 7.9894229675063775
Mo 7.114090624167875 7.476573412599081 3.1894941388095006
Mo 9.474177860516328 7.262636077221943 4.373456870202214
Mo 4.827366798061168 5.207965553620416 3.306288202858077
Mo 8.047125729379122 5.975537707370461 9.643630721020008
Mo 5.3179323969768255 6.778661851531553 1.6131929543078058
Mo 6.726890729501137 5.887613040555027 5.2443021282724
Mo 8.462703494862046 6.948754794929792 6.970389487383614
Mo 4.427667947600163 7.548307988339893 4.212725320768099
Mo 2.838933496371768 5.837230018570224 5.3116020425721935
Mo 9.660715097959901 7.585971021952189 11.063847322328638
Mo 1.586825648627526 4.1310987969387165 6.883569442326462
Mo 8.225638534004693 9.715602984869738 3.879735596501262
Mo 4.696449421894489 7.27756058877592 6.816472081447952
Mo 5.458215437367512 4.623982214459424 10.09208630947084
Mo 8.921399896547365 9.246836582395265 6.632170732869941
Mo 5.4866228436274005 9.69022635207615 2.8294588411065886
Mo 9.563852214978589 8.520436927723235 9.45923392687868
Mo 3.289484641889442 5.694395777879579 8.246311620556781
Mo 6.88642818241827 7.693249479748483 10.878964254998932
Mo 2.2987901382164853 8.169591863025497 6.564522420620426
Mo 0.8085730006112656 5.8569368802443496 7.275454599283345
Mo 6.030733081501552 11.187078288102116 3.9939448133440734
Mo 4.924213415423707 7.369191520454724 9.726304055558298
Mo 6.880745189461094 8.366377391294868 8.432007576775753
Mo 6.630415726899966 8.850092062901032 5.554462904651095
Mo 4.683334070020861 9.587877288194854 7.806271461820223
Mo 2.6819119480202542 8.211887551161917 8.716982091416735
Mo 4.220051294749189 9.731910731630304 5.351374724974615
Mo 10.476222766043056 9.161439738403187 4.712617022026769
