40
Energy = -367.20685442 eV
Mo 5.603705095001783 5.456876826538509 0.3086793526340436
Mo 3.7821943187251637 1.8779987623568806 0.8813600518143094
Mo 2.4445756051686387 5.383564763722661 0.9165390013407669
Mo 8.405732274936115 4.334135768355843 1.0460991926190186
Mo 6.566450991662388 2.8108434584124637 1.4611511740132948
Mo 4.139175500135002 6.786337008974185 1.6990152936875242
Mo 1.248284627449626 7.646440339399342 3.010329328798554
Mo 4.425339174092322 4.008303595928566 2.001661748838489
Mo 6.817124372705542 5.563332131989221 2.3057761944719113
Mo 1.9149017404904558 2.610890450943036 2.524253796295049
Mo 10.219507148826178 2.646053667741693 3.6565371821831443
Mo 9.56106910129842 5.907673488050651 3.4306058114712026
Mo 4.394027574911902 1.2760190669930116 2.9531510256458318
Mo 2.278174553420683 5.276560350407219 3.2418308516680847
Mo 8.786199557454712 3.6806600835914742 3.3220162003970564
Mo 2.0941223454275018 1.2571549403473814 4.339395997011959
Mo 6.8989859327159015 0.9997286114509043 4.981876029090206
Mo 6.2629124645147 3.1299793721709217 3.962392423185919
Mo 6.421181137981391 7.7364745124561205 4.691709400750843
Mo 4.7701333940357005 5.835652045804651 4.185828244580641
Mo 2.7284655378575557 7.849733350955467 4.285912739941618
Mo 1.2147920611094065 3.5511430369174146 5.187763707712266
Mo 0.37609890751088665 6.093875974394276 5.04599264904403
Mo 10.920549265276835 3.0107936000832503 7.457313581510301
Mo 9.856168095045643 4.188902186553873 5.715543361714731
Mo 4.960064805407558 1.2539595325057082 5.771993204153569
Mo 5.5415291702699205 6.990383182470093 6.546989720458968
Mo 9.856168095045641 5.350820566016805 5.501663349163545
Mo 3.7308112809171567 3.3287120715985377 4.688438788883363
Mo 7.416016707244875 5.426238915167934 5.017212422096535
Mo 10.741570205926706 4.480000805966129 2.9163456070673894
Mo 8.449842132788419 7.236447571325494 6.694155308868572
Mo 8.112197320398131 3.0411105375921608 6.248992434946344
Mo 5.472317452649678 4.167511887438645 6.528913562647693
Mo 2.8956170934459333 5.732975387116026 6.0410749876657786
Mo 2.8802597770173817 3.336682763363631 7.476140611530327
Mo 0.9162067895168926 4.89488998097114 7.651705171317403
Mo 3.9838168314143174 5.131303046260041 8.252230488145456
Mo 7.618450482462816 5.640499838500377 7.676471035687194
Mo 6.6172555286544945 2.293875244855032 7.599477692632267
