41
Energy = -378.23977384 eV
Mo 10.863017329971294 4.585207752588344 7.5221133002165015
Mo 8.913969380786021 6.0417287795757915 8.959355134852062
Mo 11.400313530598474 7.436570149089609 7.977027619658135
Mo 9.536971146000061 8.36982457310182 10.45385069044702
Mo 7.15243315194328 6.846222499534835 10.714286393854476
Mo 9.373632492070753 2.6215513865267934 5.942970515276436
Mo 7.7738959936778915 4.3465518362471665 6.904908802903635
Mo 6.286354709493831 4.675403676078609 9.227521944135564
Mo 11.173929846661071 8.358425442056237 6.3237078951985035
Mo 11.266377963053264 5.051385621793072 5.72438396096026
Mo 7.842816818646961 2.4276510878005215 4.699789088042622
Mo 7.959553076818535 9.553549356085218 10.5650374671963
Mo 5.098793321077855 5.448221031927458 10.926711928405474
Mo 9.149391118167259 6.62341572494594 6.563593719646516
Mo 6.008614836795789 2.6266901647470915 7.089484824877052
Mo 6.774635008462119 7.100162524835392 7.922817051030852
Mo 9.041843812528846 8.82429463783686 8.06825050078766
Mo 4.289656881766829 3.4443464796617036 8.351035881421579
Mo 8.80791455389751 4.8864564646071775 4.384933150731403
Mo 5.472414242018603 8.316201603902144 10.141821863815313
Mo 4.216901219446093 6.697671546215522 8.734766651612029
Mo 9.474300881900822 7.289792642756293 4.106691088814
Mo 6.780270102636341 6.569332256815547 4.952106080310636
Mo 5.049278951027159 5.254916055730716 6.723711048895248
Mo 3.6739175380627387 3.021646477856316 5.514825953894833
Mo 6.584385070509486 9.575301505801201 8.146962775439045
Mo 2.4370814341378573 4.152394914405836 6.498424588209166
Mo 5.979350147795842 4.218480297212266 4.565704697419819
Mo 3.8214488053461912 9.229895192796223 8.207732405068606
Mo 7.6387218253964955 5.831103242824316 2.364123827895317
Mo 7.61017098082519 8.87322024942253 5.667823134524588
Mo 4.811385030936196 8.160224330581821 6.213627774528302
Mo 2.39256388972867 7.038722635103512 6.757950818342702
Mo 7.954585430198844 8.132249624996177 2.6045809722290834
Mo 5.412264898693185 6.7603219498275635 2.9187899836819553
Mo 3.641498393048939 5.8925146479815504 4.668520652699157
Mo 5.512609722560286 10.936948651998284 6.028305900748458
Mo 2.1562400461095503 9.149277992441485 6.395992920773516
Mo 5.854929524613051 9.062892542498563 3.8642314773311734
Mo 3.2135988164156926 8.199790243392687 4.23384172274762
Mo 4.037184484825608 10.750692802269848 4.864279861536861
