47
Energy = -434.82940004 eV
Mo 10.460138075846036 7.84077259047452 4.285428033583293
Mo 9.555730713084516 5.59216166283449 2.8019485303154195
Mo 9.796572626425354 7.369544139291345 6.830108750134875
Mo 8.292875873302522 7.415205156382706 2.0279323295547873
Mo 10.122984132270544 5.123603227638328 5.607295238650337
Mo 10.168932146102367 3.087192007120044 3.9394704508120406
Mo 8.522240590208272 9.310717133880148 5.8867011142141825
Mo 9.11299585301962 9.460173036022054 3.647579810210485
Mo 7.375878416759432 5.514965011131508 1.0427965567955084
Mo 10.081244316904879 6.981869329581291 9.493371736711548
Mo 8.394636751933017 3.534157223515453 2.04648946030316
Mo 9.747834559531803 5.243675923388463 8.676617866370307
Mo 7.778634951684548 8.061743306559958 8.164248562629641
Mo 9.081334639122275 3.326796840824122 6.671838592279645
Mo 7.563374542922167 5.570953378428957 7.002960632213674
Mo 8.03118908543774 6.997801035619903 4.680673442693032
Mo 8.709952879894882 1.73443081763375 4.694683287726742
Mo 7.704106944744111 4.324219822962674 4.397588895044177
Mo 5.922157738935605 8.041505537387682 6.109890176575544
Mo 5.929463104797675 6.740117214118669 3.152276507551419
Mo 7.424122041631426 6.401851243473543 9.899572536740921
Mo 6.376537028434794 9.14369402894371 3.962262282727683
Mo 5.708780509624547 4.183659486791451 2.6985596517062027
Mo 4.222816875472133 10.046055099955183 4.968353368633119
Mo 5.606122515077578 8.645831036630423 9.192954167204226
Mo 6.399982789362309 2.0380018485596665 3.274376394604981
Mo 5.383303937442849 5.333101426592248 5.321013235855443
Mo 5.323349725029392 6.376801779115841 8.223145655530727
Mo 5.266433453170301 6.909466493457776 10.97964605545559
Mo 6.519013604334318 2.7128873470183614 6.13372648902784
Mo 3.7467645043352826 7.947956033330527 4.2987181693424965
Mo 6.907035718759632 3.927730991107482 8.93805701864795
Mo 6.202349211571019 4.355945977370076 11.15649815180042
Mo 3.2715794002594913 5.129456314142467 3.707569473292099
Mo 3.729789794816565 8.78332079980653 7.1639364529012015
Mo 4.612455574795604 2.5886783221520573 4.759566830735936
Mo 3.2064159565877106 6.4602220498756475 6.4235159141731
Mo 4.7154309601277555 3.937246086873782 7.4597254521489385
Mo 3.1372902490676564 7.033093770958196 9.392437064217571
Mo 1.387953266354749 9.10339045938997 5.448200876057166
Mo 4.3048569457413866 4.504554321663212 10.047831019077572
Mo 1.4529245705569604 6.404890413303972 4.499629623558491
Mo 2.686623246195215 3.9752703111606844 5.67089043208603
Mo 1.1257289003672493 7.558380642781682 7.945742568306983
Mo 2.238751357656785 4.9709173480078634 8.404210994370931
Mo 10.460138075846036 8.253887303471648 5.560492111456795
Mo 0.5684532391365215 5.653791930761725 6.910005287896796
