48
Energy = -446.36156436 eV
Mo 1.9257492559038145 5.9072504589176305 2.5386108290595746
Mo 1.474483463520812 5.675670268310692 5.3034368201422435
Mo 3.049656387057822 7.233218566298051 3.4535491266064304
Mo 1.2852226322485512 3.322474777741404 3.6027910597395802
Mo 4.529507039638831 5.511848707881682 1.609258161080563
Mo 3.6573360818522787 3.7887710684485576 1.5624646385318715
Mo 5.97086283832583 8.505996828088724 2.664866188412541
Mo 3.895796781111727 9.214722410106273 5.277442964943409
Mo 3.6786833360754136 4.558962019427665 4.309490330665609
Mo 2.291742731832215 8.145871059022289 6.209050390402608
Mo 6.909702478280288 10.75969541522499 4.083588732515966
Mo 1.7476724704566668 2.660595544917408 5.309910138938984
Mo 7.641664713072256 5.76116207795386 1.9626147420875246
Mo 5.796567564980669 6.535729988146507 3.852437427649902
Mo 4.005185218101213 2.0312772857852246 3.760835661981957
Mo 6.185529577811051 10.94477156186266 6.814870607421337
Mo 5.995686126759743 3.582329258950649 3.088998527067133
Mo 8.190226886018594 8.243873699688029 3.470524803560261
Mo 4.772574812346408 8.749744571308687 7.558093521559398
Mo 2.454701386486604 4.831353096423592 7.083235155201832
Mo 6.540078750420138 8.564305412950116 5.454870300015149
Mo 3.4338222499114126 6.968304262158454 8.768890037165386
Mo 4.24619675494621 6.509671832755223 6.087473358768308
Mo 4.318176111081483 2.943304069787869 6.468102693291283
Mo 8.569131802973322 10.483951503912998 5.146325782885718
Mo 4.720728343261772 0.6902248066851696 5.533968606444497
Mo 7.253194740468395 9.825640713955638 7.979695017757449
Mo 4.349454468113042 5.219223887823156 10.939813678409138
Mo 5.127680009353758 5.031521559913785 8.31012312257966
Mo 6.291167662014897 4.413379145643955 5.67211471435005
Mo 4.254604942004189 2.6975612273825966 9.069733375749374
Mo 6.9397109571483755 6.799050732685224 7.342347405100728
Mo 8.23900022152098 6.050340542761906 5.011317333622694
Mo 5.688052341246254 7.4784723746678425 9.638147262141459
Mo 9.495955623941615 6.022696159304041 2.244042401359289
Mo 6.619614109801001 1.9182246219493526 4.971205633542026
Mo 2.713903483239929 4.805435342019086 9.962550071947554
Mo 8.533215330889249 3.752104629417702 3.718629318137984
Mo 9.092399385762985 8.288062147634252 6.473649531678151
Mo 6.629934946037214 2.2948826386341925 7.586813567639709
Mo 10.791584170055254 7.094688843388632 4.534096284641204
Mo 7.1722766093355 5.529435208216234 10.043865186076296
Mo 8.575696211971126 7.2089805564145335 9.044134375815347
Mo 7.955204079365715 4.381685543319362 7.9254818928852035
Mo 6.220366152229254 3.0382921093283044 9.95102591129438
Mo 8.886646390433848 3.308665740160771 5.8693300636516526
Mo 9.837442200124762 6.105491464406912 7.100656160523184
Mo 10.909120908683795 5.190579305814405 4.7393665882854545
