40
Energy = -368.54743351 eV
Mo 8.359436375375815 5.965894991226111 1.5861387672106992
Mo 5.969097643771179 4.05695140994361 1.432541379982765
Mo 5.806141901464543 6.292631547977681 2.407728834138893
Mo 8.298974029022842 3.3256779616251184 2.6074397773242284
Mo 8.37231219460483 7.3529678842410275 2.928995509070482
Mo 5.547379471477189 8.431850007004911 3.657104996649263
Mo 5.828834406701926 1.6494955887055371 2.7096237394985727
Mo 8.946621183800469 4.95974760384248 4.150406507159611
Mo 4.067253686524407 4.044107393937654 2.483494157236318
Mo 6.129095426919034 4.103479219178658 4.175216229808421
Mo 4.0476490907572416 6.435907229895192 4.27618352795588
Mo 3.240815964217712 9.201046537149168 5.0446169726768675
Mo 7.400896002404834 9.02730110657606 5.257733035289099
Mo 4.881159268242615 10.41912860133126 5.262317373787221
Mo 7.843491384905462 2.2530550987879265 4.556828727904499
Mo 9.197160772479405 6.994408745682498 5.946583421339249
Mo 2.4727413156414806 6.463893388849745 6.366934063552538
Mo 3.402107204776577 4.117969962900878 5.049423367787815
Mo 6.742380640177692 6.512197685794462 5.060489004164615
Mo 4.815534451788717 1.6888497340947712 4.343308471479974
Mo 4.004023749607563 2.4327841403722 7.098349756851299
Mo 2.3553292282377956 4.730606736614548 7.490013142032834
Mo 4.918970029633666 7.9808287517064604 6.6530063696982555
Mo 8.810173305299774 9.123851202883062 7.17220761016821
Mo 5.104126179760459 5.016267700487003 6.701604677744083
Mo 6.063937261329611 2.373783036292948 6.7862276266436
Mo 6.429343165048135 9.62501246795688 7.726439380848935
Mo 7.929220914032809 4.363436224885631 6.360109157579516
Mo 7.195005578148645 6.859299720262609 7.836501535863921
Mo 3.651961586803125 10.40585481400889 7.756316353170062
Mo 2.4918471417639503 8.905784682756549 7.913733629647578
Mo 4.104576181466041 6.481217062366503 8.636193142535792
Mo 4.842322405851067 3.82103010848432 9.104681906554715
Mo 9.606313758560466 5.386860389819959 7.666067325020668
Mo 9.614974484394917 7.5210373038158265 9.187112063118576
Mo 4.743412173006992 8.71040624963943 9.656878688477345
Mo 7.010901608183906 4.086674701974955 8.759052644368415
Mo 6.036415099852859 6.230948463351051 10.08180810452936
Mo 8.67820200506339 6.088692986882707 10.206156253951312
Mo 7.047092914967102 8.566292742758947 9.911663953244597
