45
Energy = -415.01513225 eV
Mo 8.731574610515581 3.9699306507900984 4.775383142672973
Mo 6.383929808227679 8.25500165712427 3.685098967029551
Mo 1.263510080174593 6.810790378306351 4.9636217410133625
Mo 8.281675328240194 10.895119494912295 5.941223108992184
Mo 8.665892177290962 6.537900352113549 8.909851950628024
Mo 4.014922578282571 3.907691349962726 4.764440339974628
Mo 1.9173397675866215 4.6954744705317415 6.6941853091509005
Mo 4.066830942825281 10.83325586982769 5.881466772643939
Mo 6.376900358197253 3.2325322209958927 3.3134729520762773
Mo 6.353405495203626 10.613741509191419 4.812397689048468
Mo 4.135740211288727 8.833320475286786 7.632286101695782
Mo 8.594962378480345 4.0616373552052245 2.586913813996085
Mo 6.578551150444639 5.826098941552648 10.143059194469265
Mo 6.361423331858036 8.067472804092453 6.119261866930484
Mo 4.087596483722693 4.102633149224611 7.435199545062246
Mo 4.3507745905531285 6.529491691348076 3.4821200686932055
Mo 1.9687444376295438 8.855336351905555 6.504322220409343
Mo 6.3322496641672466 8.43138956912233 9.440222823397551
Mo 11.189157192936888 4.79989242447664 6.607274786136717
Mo 8.6799982146452 9.02196068389899 4.779594217301117
Mo 10.956889020393989 7.319952058571943 7.691885465148187
Mo 6.369864455668932 5.7029346936198415 7.602746070958989
Mo 3.8373550728953822 6.472395730699446 6.0940313614643
Mo 8.88681084453216 6.4605548227012415 6.130170302027171
Mo 6.261572514315157 10.073360656348536 7.895238962176458
Mo 6.3844979859470135 3.235360413795398 5.796483775122112
Mo 3.9004166048274675 9.093695747245754 4.7771815636599
Mo 1.8652948312710989 6.9989586528702885 7.868756222578369
Mo 8.899531719195295 4.28341344145592 9.974396813131882
Mo 8.503188136824692 8.803974778724672 7.709870906989895
Mo 6.363822351610519 5.589663267712796 5.000348628483643
Mo 8.724775005018996 4.097578743315092 7.498960711620696
Mo 10.612562137631585 9.152862315069266 6.62758235263285
Mo 6.2905784067758415 5.606031293155727 2.3235355312963364
Mo 8.416916475637121 6.578755157852122 3.4983341465343285
Mo 4.204334138418785 6.701622504802179 8.899739671299635
Mo 4.099947392427405 4.008410172576485 2.5717153564545168
Mo 1.8582132368927378 5.359291897666979 3.937451186825603
Mo 10.777235911461135 5.532075424189441 3.860623194716684
Mo 11.111681407741104 7.230783981231236 4.722062448910191
Mo 6.5434518216614075 3.383771933100023 8.566090143732564
Mo 11.200086706511376 4.6475120331693445 8.556534446858121
Mo 2.140447756213588 4.716090865096152 9.378671909677221
Mo 4.078617895036515 4.3329166663845875 9.92463303329056
Mo 6.856337563196087 3.6399442625079867 10.941384782523564
