45
Energy = -415.95355881 eV
Mo 5.463833018109875 9.705441780447547 10.418673493710141
Mo 2.1027071694904014 6.668023474745675 5.267075647745839
Mo 5.170612561992547 9.793193606806152 7.835271574972386
Mo 1.422154921853557 4.0420693657674 6.834935419651306
Mo 5.044753372816093 11.041330017985878 5.387868872471184
Mo 3.3909971218477732 8.63001282604361 6.458933505166054
Mo 2.945081779356111 6.302475745078689 7.869779956021687
Mo 3.3737180161250517 8.329320524942355 9.149006553011041
Mo 7.205063815130356 8.759715700062051 9.131323199394851
Mo 3.8541194057170216 8.779829092172813 3.999442240937021
Mo 1.217343039360485 4.58406668173828 3.8797394252052615
Mo 2.1287284665339437 3.7089428867273497 8.466627037401375
Mo 5.050866279326824 7.559306971607168 10.69444203418667
Mo 7.8065940958498805 9.975329789173147 6.554276171833357
Mo 2.958522558938073 6.674341104855648 3.0327084122559067
Mo 2.989594550270668 3.9904584168991195 4.083770950126906
Mo 5.866781947797258 7.770962614329329 2.9267978430150183
Mo 4.694571165491612 5.097920235305277 9.481678286622511
Mo 6.0541837342417875 10.67070964411576 3.8387263711728234
Mo 6.082717835430626 8.468135294684041 5.608520145132225
Mo 4.610803945932252 6.313608395456683 5.191872352987668
Mo 5.4823078163498336 7.092216191241399 7.773746389975787
Mo 7.200033374819676 6.253267615102872 9.652558623482813
Mo 8.191757755162525 8.899521328230186 4.290258602303416
Mo 4.209721915989072 4.336081640810739 6.689516433396137
Mo 7.432073149544633 5.959849719647603 4.840867551538635
Mo 6.800466785656638 4.765359217132541 7.273810701424879
Mo 5.241920222440662 5.469584018582898 2.787256935131296
Mo 8.27895852382469 7.470194725803222 7.087885292167015
Mo 5.087415976558113 2.9224645204400326 8.761279502106182
Mo 7.120166119873861 3.775016063415359 9.649169834596028
Mo 5.810402013215378 3.7605341210625394 4.793036792693931
Mo 8.129139183402122 6.865281770092426 2.680865668005677
Mo 10.190153781511263 7.1827255680562825 4.8270836913744075
Mo 10.260361685396898 8.962880278020643 5.926889363079394
Mo 9.436100008986733 4.972232313415082 6.395820643352196
Mo 9.530919432700369 5.553197396235718 8.969763691699592
Mo 6.723708625707681 2.1656191396494533 6.664642452851265
Mo 7.788138797220614 4.2424846474231925 2.7602082145498588
Mo 8.700201044113527 2.8918061601393616 7.760741257759818
Mo 10.6645898265638 6.84747702488012 7.753783836124515
Mo 8.35669553132797 2.999336455768438 5.0955675771687385
Mo 9.723244079090112 4.719731501050946 3.5357652131197543
Mo 11.95861016118417 4.859128365301053 5.607000261198371
Mo 11.239853921610772 3.1766841815625715 5.289599585601701
