43
Energy = -395.56262764 eV
Mo 9.132870848485066 7.32226353153483 4.110665304444932
Mo 9.689154002945159 4.931928269217799 2.362052059452732
Mo 8.78494096160636 5.6758013822250755 6.091088412579218
Mo 10.619042686823866 6.523914370943407 8.06997667536982
Mo 8.603356859648605 9.762810729037684 7.512113648585631
Mo 6.84529672254938 9.072851128955005 9.080285810742218
Mo 7.827990945760442 6.1880395166957864 8.819334285183366
Mo 7.268421048294779 6.121636594664514 2.9232229272766856
Mo 7.926615108699037 8.883938749569591 2.0789304457213644
Mo 7.437204610780675 7.636584792943283 6.442620373375218
Mo 9.696379107818531 8.010936020822239 9.138179830702578
Mo 10.312565297252581 4.5712238456665455 4.049615231428569
Mo 8.94336424149987 7.614484867962389 1.2727454200638222
Mo 10.167704085714544 8.115745334727324 6.303828448061868
Mo 6.808813946869012 11.54981961076616 7.646023458554181
Mo 8.363340810790515 9.973041717146405 4.860877890718566
Mo 9.446729205455384 3.782862745617724 8.23113857162354
Mo 9.403778603110394 2.9361862811698094 6.6270145469494945
Mo 7.723004134065598 3.6679149621554368 4.440323662877485
Mo 4.105494704389308 7.480901711556455 5.577194463130211
Mo 3.3039747240938326 5.519912578906357 4.066014269879436
Mo 2.7294771509119657 6.1035681925065095 9.127499189303995
Mo 4.233722948482593 8.339506958311397 9.642682637981267
Mo 3.477633220074207 9.0902194910591 7.405414688059599
Mo 5.949457241733761 9.223662142268282 11.773061933583351
Mo 5.152579868173666 4.67326190410424 9.431581137093495
Mo 5.917186111199871 5.631422595697671 5.227741895805163
Mo 6.145439883528093 8.22152658345254 4.218276918769305
Mo 5.306093466842506 6.914447445385197 7.967538800526435
Mo 6.114677103301806 6.7240064341866095 10.718303577679563
Mo 3.9222691561003717 4.67376707553201 6.814855917719921
Mo 4.47358243191548 6.579790471790505 2.861638132413945
Mo 5.71693097357833 9.621398909159424 6.535715839290854
Mo 6.74125736911087 4.127455172382721 7.275489316745356
Mo 6.695115861347094 1.9252001467377287 6.1523814036653475
Mo 4.509536589030534 2.788170854042124 7.726083361978549
Mo 5.07279335145801 3.0805472122626143 5.048407558635828
Mo 7.298607031833145 4.320903940015049 10.215817531483111
Mo 5.215669949119591 10.837456460706278 8.94457959528014
Mo 6.584508386460024 10.810266253101416 4.355703002207465
Mo 5.911716473168914 4.206862913164123 2.8849243772438298
Mo 3.2422017340734657 6.125673034784354 10.938218495686156
Mo 4.682362004392562 8.140948029555805 12.533699914615696
