47
Energy = -435.75271122 eV
Mo 4.610685829729025 7.989075342016126 9.639676914573887
Mo 4.189892926541446 5.325600413831296 3.570808017191102
Mo 2.8611935826185086 2.789723457846774 5.633956579175034
Mo 6.556229493824745 3.882268747825336 8.620646837254114
Mo 5.9706888685947925 6.747009006030769 7.730568732169402
Mo 6.300167138740003 6.021296418712296 10.399566558690816
Mo 9.474761096512223 9.978504067930226 8.33922361722149
Mo 6.1639983605751665 8.91183314498312 5.718211667616986
Mo 4.776816645708187 4.707494502605875 6.4373160839512495
Mo 2.0713443019345177 8.488875233003187 5.785855606891742
Mo 7.948842097658925 3.5178670486682155 3.914689772485178
Mo 1.8045023222921706 3.8750767515088613 3.407985142440297
Mo 4.140360015578046 9.045563498468647 7.7854092132017865
Mo 0.6850362844059058 6.414388095170025 3.354959915677194
Mo 8.51858509054333 7.741749905412682 6.799570627689693
Mo 2.0659984648691787 5.520898451370777 1.8024261171496478
Mo 8.305215144058957 4.206601576393364 10.846336431727597
Mo 8.365009715362572 5.719657317712485 8.478784009173955
Mo 8.449360588686877 9.993565245994352 5.642416263654683
Mo 3.0361428351977136 6.542824258556803 7.980787078397187
Mo 3.97156926104365 2.83256429297231 2.884848133661005
Mo 9.051531305268346 5.9499018930086 11.159533148307606
Mo 9.31987532360718 5.182808635804643 5.824491699145355
Mo 6.698261610896115 9.433839035799485 8.084241096982653
Mo 10.971739554491991 6.2827076249624625 7.33023785950436
Mo 7.282966448306437 6.525651155167101 1.968533404189014
Mo 3.55339768036084 9.73185634838472 5.080302547774781
Mo 9.776156122915614 3.560638892223951 8.08447448704227
Mo 10.874432750873204 4.706208809998222 9.291818041483623
Mo 2.65547390691433 7.604907839977345 3.4378534556907803
Mo 5.030450594902148 2.4908975041691543 7.471570195116907
Mo 4.274000033413238 5.030489829842314 9.184691401726225
Mo 5.4636937783877135 2.9273629675362605 4.596875640767391
Mo 2.178674009886127 5.429897012800467 5.38695553117162
Mo 10.122354384359154 7.656308805968739 9.137327072696793
Mo 7.599737964044396 8.063557358937647 9.800971013296486
Mo 2.526066986504758 3.622190651092237 7.490033946965784
Mo 4.312229713384435 7.152840682666633 5.653466428294792
Mo 4.856358446974951 6.7242820749661005 1.5299706446734656
Mo 8.186917508009644 8.257431214698466 3.957687598151405
Mo 7.397740838651278 3.5917282728110487 6.296935889579834
Mo 10.762736733747646 9.327224995681721 6.910622650959133
Mo 6.307341111024747 4.428157943149463 2.3002928174239967
Mo 9.207149493476535 5.677494486343072 3.457562720035896
Mo 5.376389925533007 7.984419308528301 3.2924619526684213
Mo 6.79793533620099 5.923885919476325 4.738057756115071
Mo 10.239467999337359 7.570353584940456 4.848467306190428
