48
Energy = -445.26138308 eV
Mo 6.127613578599167 1.7332634064513328 6.164506745181733
Mo 7.8528127492798605 3.3393209651130142 4.857361520186508
Mo 9.406374454637348 4.226847631767333 3.205021053404071
Mo 5.170734387956958 3.421687279100824 3.845810077972485
Mo 4.785991367232629 5.282376564064042 1.316224465714646
Mo 7.153688162355551 4.880933518553279 2.6519233449317237
Mo 3.481282529574516 3.1639276457808863 5.504454064678041
Mo 3.0388803598675325 4.7117312507982305 3.620492852853682
Mo 9.20239134294966 6.7209450844148355 3.155189933083441
Mo 10.004828464660918 4.800094515793473 5.740129332035941
Mo 5.273051619276229 2.2550866456757044 7.777022203597297
Mo 7.7823221726398195 3.7118942234722425 7.4524430619439395
Mo 6.979923011516326 7.258147311130441 2.2943973434199476
Mo 5.542250550872651 4.5846557150241924 6.171468320682274
Mo 3.927034776004476 6.883371288391123 1.6141684730412442
Mo 7.565747742337236 5.876303228419761 5.058385303626557
Mo 5.109442963125689 6.222349613565716 4.050237955454548
Mo 6.292552289763274 4.181780296966807 9.963862369067952
Mo 10.413301601831558 3.895474772547587 7.837793597979395
Mo 11.502715429063123 6.551117166048773 7.105563360847262
Mo 3.4156966644869264 4.382343434323751 8.269025430913793
Mo 9.718437356785618 7.688393947799084 5.485113285915864
Mo 3.1672693760301107 5.852927121449348 5.879708080779248
Mo 3.68359209114255 3.4214036506428536 9.887667040044121
Mo 10.960123951520796 5.926851158707783 9.142847441299567
Mo 8.48321124251331 4.769289668928916 9.8286868452567
Mo 8.84055486719941 6.230925967651472 7.603994972040225
Mo 5.31065456111659 7.6793477726405035 6.355144491850485
Mo 4.125862247209683 6.243549082596984 10.214361516893234
Mo 7.4519096494674475 8.64950177046875 4.542290600916857
Mo 2.5098689302628885 7.625653366692856 4.026938158363635
Mo 4.8854922154892275 8.763726051074793 3.707729960249838
Mo 6.216543889176203 6.021585974675961 8.272642731130814
Mo 3.4610339250855913 7.356742277575181 8.068240795385412
Mo 2.7435742253810256 8.773160088611364 5.58681505251382
Mo 10.07936275875307 8.639209395105278 8.270685284059464
Mo 6.47182192336249 6.53327394756167 11.09549945545119
Mo 7.593159175107654 8.723714802622192 7.157929436931243
Mo 8.449388847975758 7.289930960006084 10.051644489723863
Mo 5.319633157238228 10.171766084943563 5.8327979288020915
Mo 4.015955516679856 8.458515183056237 10.718025723536053
Mo 9.885519947153592 9.953093334171088 6.018034674198487
Mo 3.9618825077308846 9.66203450785798 8.111210882716925
Mo 7.6071439047375575 10.995990266298513 5.287105591116166
Mo 5.936864194848598 8.441898168492019 9.332784305745365
Mo 8.40322910341351 9.721821419039772 9.622099124171246
Mo 6.252819735542881 10.854467620779069 7.991734843970868
Mo 8.614851772021389 11.262228046178581 7.635903552055617
