47
Energy = -437.28966378 eV
Mo 5.440432516786298 6.841721972074523 2.0007531392598366
Mo 7.892404568818806 7.244343685470843 2.1082308131732543
Mo 7.68828350029366 5.1212798198868095 1.3609434918637435
Mo 8.219581933261388 10.23483802768125 5.14691521138424
Mo 5.25111437475665 4.5090843729360275 2.386543682531689
Mo 2.824323547970477 5.866595956106713 2.356547444684504
Mo 9.647749426343633 5.0330034677534785 2.864487060388131
Mo 3.922470814011788 8.872749170410142 3.2543433496059526
Mo 6.210671151080184 8.670089380032108 3.8404060766576205
Mo 6.341426181806818 10.67303922334365 5.679074633948507
Mo 8.82106727052556 7.62101053860663 4.76963143798107
Mo 4.591099692584611 6.4183267319544886 4.464835607492084
Mo 7.210688886717324 5.685195296782274 4.193557193073458
Mo 8.190362686880391 9.104839865191698 7.41937945605012
Mo 5.1043638670983045 3.6194671639176725 4.932342660454449
Mo 10.2432094906705 7.982588538748455 6.790474033577564
Mo 7.533445991728169 3.2393470194819494 3.1869052702438374
Mo 2.6578051576406074 4.422453329248287 3.6432155799704162
Mo 3.9316436160660717 8.802828524403136 5.681040026331221
Mo 2.2395363614951034 7.140978949324896 4.757033662374449
Mo 6.379103432263157 7.776101424674416 6.184416831639081
Mo 7.976379892497974 3.6647862350619835 5.8884094443603985
Mo 9.887422597339308 5.273899000004751 5.347267940310529
Mo 9.688450341206336 2.9372705647742396 3.9638905683647407
Mo 5.368481797103557 1.5245341904914838 3.507753110142612
Mo 11.125269817519825 5.395400398607711 7.678629943329387
Mo 5.483428403238959 9.654673365711211 8.101898985101391
Mo 9.679137544648905 7.47473210028542 9.342721661769517
Mo 8.402955132125573 6.222136556179469 7.1977535013923735
Mo 3.4327638600171215 9.933156321202295 8.137529084278162
Mo 3.297192186950707 2.67898012842763 6.463510742666174
Mo 1.9171774220122528 7.58992950743888 7.32110922315393
Mo 3.011846303655935 5.131671270655041 6.296948720871323
Mo 6.7397343347502625 1.3280457864544675 4.883269154622925
Mo 5.800932259074311 5.23308677070735 6.924152223560084
Mo 6.8453634988398955 7.39514048264191 9.038010445997442
Mo 5.610599237278276 2.413286324750432 7.225312527932855
Mo 9.911594678739549 3.8879567355955995 7.890615361184758
Mo 4.1825007099128015 7.1033176470151975 7.960063906048012
Mo 8.717002282588023 5.81128854509919 9.89441783479249
Mo 2.351309606219796 8.166248844749871 9.831106726831063
Mo 7.191412055868887 3.900002554615296 8.62669842542772
Mo 4.495375452237371 8.241985135813962 10.278422867556316
Mo 1.9364145749763355 5.278489270873039 8.62749262778038
Mo 4.07909297260129 3.896436059490507 8.527749544134853
Mo 5.703756428720876 5.398137627407565 9.854661687723759
Mo 3.1550774404808823 5.878142419375429 10.423484052083138
