48
Energy = -445.89969483 eV
Mo 5.861115774763852 0.6242336952551504 5.680339698726893
Mo 8.446705002944302 2.547353288059064 5.1131629546100115
Mo 6.277494711979795 1.5533023941348665 4.011584422609982
Mo 8.644299778276247 1.974039852069298 7.928343493041067
Mo 7.638654365065086 3.860797380591427 2.5786196129478123
Mo 5.744617004114886 1.2548085489345826 8.560898612983124
Mo 3.97593310039238 1.8095880199550711 7.569763753763823
Mo 4.079574500588013 2.7865772731190557 4.9516956482155745
Mo 6.45955583229973 2.9508396758535858 6.706135544603463
Mo 8.917180221482159 4.558934020194127 6.853404623858386
Mo 9.277871374541842 4.495543367731854 4.165936934178514
Mo 4.7425555211933865 3.4772669149268287 2.4628055941082123
Mo 5.040553424392303 3.659336560901981 9.190858850671543
Mo 6.355379783273289 4.656150130854059 4.587096853739413
Mo 7.9423551140038 3.3326021249413165 9.13126096156974
Mo 9.702614146302638 7.8382762822074525 3.932311966111624
Mo 7.531682349247949 6.32357570119968 2.5505829215079543
Mo 6.4943320329519665 5.478782652074967 7.6726296739682445
Mo 6.295974909409546 5.429440452352666 10.291507232636796
Mo 2.797851795666093 4.087458979435089 2.7214826922884403
Mo 2.3595202967114126 4.488801866590155 8.624581321243554
Mo 1.5416254194303693 4.306790929495783 5.4759883801255445
Mo 4.156907896536623 4.496154561088584 6.7245232259071965
Mo 5.300843093805687 5.922519770031782 2.0528172692344087
Mo 7.916810498583665 6.59161824318196 5.266998780446191
Mo 8.480837586335566 6.331684603034178 8.9401988693499
Mo 4.910411620676882 7.179495522288093 6.603419669160983
Mo 5.637187308096605 7.602987015024524 4.19643682729629
Mo 3.6300447513049687 6.021655863376696 9.07821031127265
Mo 3.792529767765981 5.6879687732745445 4.3328612454280995
Mo 5.837644338021137 8.835951763392378 1.905979032694493
Mo 2.3577996574122864 6.626978597233672 6.782738099138775
Mo 10.043771642306222 6.967502848207745 6.727587958761543
Mo 1.1579311515113282 5.8829473479758585 4.408617280352837
Mo 9.586339848187519 8.42756274377206 8.781514290455611
Mo 3.1772845862106207 7.8619533546468725 2.795804896936201
Mo 7.370355634044242 8.374889206921306 7.071616308863631
Mo 5.773362675399729 7.668860906773316 9.255983377779028
Mo 7.655876176614292 9.111282093285457 4.007503391458352
Mo 5.296063455340959 9.820487065600098 5.794066092052277
Mo 9.668309377803345 9.133288494798013 5.885280682831316
Mo 3.5242333615504067 8.742379314207772 7.6762775496296705
Mo 5.098755104873061 10.160644056165012 3.129404982033345
Mo 7.590211696383523 8.938557902256797 9.906948926362677
Mo 2.953345394059536 8.450422041112402 4.6547734893119985
Mo 8.214742221925206 10.947959238818726 7.921149508442225
Mo 5.879976025794202 10.223790518472034 8.105008602830356
Mo 7.5867402407138815 11.046279076439305 5.940981224089725
