47
Energy = -435.9807231 eV
Mo 7.910650015850069 2.287726452950439 9.089020979744658
Mo 9.05636593990457 3.8175000793767344 7.056582811763023
Mo 6.986914981595644 3.995064457028576 10.945831075550803
Mo 5.412239430071911 3.0075427565268873 9.863476422440096
Mo 3.4039222536668308 2.659649974726608 7.806109433587718
Mo 6.567203618972813 2.4503228545199924 7.348663057959361
Mo 8.36504591589888 2.397902931289776 5.084423989262625
Mo 7.445881914194442 4.958321748654476 8.58387395310547
Mo 4.454244895422923 3.674565785823706 5.162096541811163
Mo 5.1736751584327285 5.669821737259704 10.060533418648214
Mo 10.73561102380915 5.549036167351203 6.112925134834364
Mo 6.326002870053149 1.8781921513357165 4.645102418509185
Mo 2.7891166456630025 4.035972732237671 9.14073843224123
Mo 4.984024550777237 4.715504186409913 7.638352652130422
Mo 7.729302498031903 6.993949749788839 9.886484771759019
Mo 9.084628991016606 5.153807935117851 4.430475528139317
Mo 4.559745533052895 3.1938406603917464 2.27374463575647
Mo 6.7533017181840345 4.675210300682882 5.704448894541155
Mo 2.341788929833718 4.990079949219444 6.611845678798395
Mo 7.0226705562687775 3.731674174504081 3.1160427802361905
Mo 5.430850293055896 8.077777583139541 10.10275434379785
Mo 8.775342717571021 6.595235134508712 7.035920405102656
Mo 2.5652543560959846 4.994550454577586 4.072865145999485
Mo 10.168478993341703 8.264431235728381 8.560820209937246
Mo 5.192495334416938 5.663071849335647 3.170079594564634
Mo 11.02526427179684 8.282062556826038 6.861142150872296
Mo 7.841329355021172 6.0922803063554385 2.402825622408241
Mo 9.596441244190279 7.672982776623106 4.323501114035901
Mo 7.126681713031277 7.167236701631934 4.67102181891003
Mo 3.554130803026789 6.832598607948184 8.381601242415247
Mo 4.410380107360499 6.5105168531879025 5.586403078790563
Mo 2.943134663786369 5.426516856324403 1.3478251897565368
Mo 6.09261423316027 7.493951749941241 7.345946382470914
Mo 5.50814671380173 4.2285263475162616 0.8756885262541964
Mo 8.52536261264605 9.168741626315688 6.304945383596004
Mo 7.359997658294978 9.111694011671123 8.723892124245092
Mo 5.781203133539429 8.197862172575805 2.4673861679399685
Mo 4.786293761763267 10.614582650064518 9.13608015471764
Mo 3.1986243795808584 9.399120864563258 9.236111758180291
Mo 8.334382948533605 8.506547557866906 2.4630241300189897
Mo 2.101402695833453 7.2915642799394496 6.2595357065514925
Mo 5.048110117210571 8.964608381306858 4.528179043108876
Mo 4.19769201114329 6.755513563563639 0.7611040833449282
Mo 3.917649376173212 9.122688627713208 6.838636494822156
Mo 3.1805900848466444 7.281041548854007 3.489193640855471
Mo 6.027992166731037 10.217249708157308 6.8821572687079495
Mo 7.4198467233555006 9.872940075927986 4.381660742541468
