41
Energy = -378.28567341 eV
Mo 4.19277837993579 6.023421421218744 1.6176345578702709
Mo 1.923866940312535 7.264324266001515 3.96140974488208
Mo 6.587052653576136 7.51991090783138 1.4629834506125337
Mo 5.036833137660847 3.864976307509586 2.0649548737261867
Mo 7.047033446401707 4.831287326261892 1.497565672736
Mo 4.198729545793379 8.155835341293791 3.1319722261235743
Mo 3.328504087255869 5.4341709166480365 3.7846777139297796
Mo 2.9194910275415946 10.143482821780127 4.342466651154454
Mo 4.886945864007963 10.570413698185861 4.559455182156183
Mo 2.062999550231336 5.6334350398551445 6.098983423618296
Mo 6.133317820846219 5.968416365243105 3.7523757978653967
Mo 1.7531773542026239 8.484451040487125 6.521010179659634
Mo 8.290257680969452 7.455326249098148 2.3942533595741566
Mo 5.167294198370361 3.217765076035309 4.556279719276208
Mo 3.093183183625262 2.909516602409811 6.529186860586782
Mo 7.310283254171756 2.7211422769012445 3.3090209657020124
Mo 4.546633486261804 5.232275390328824 6.269174092442105
Mo 6.610479471414437 8.49453853734278 4.207241899983193
Mo 3.3573564064104637 9.839420252214879 6.964242681521775
Mo 8.664494504783157 4.719581945929646 3.2815203165948605
Mo 4.198939235148943 7.807217548498497 5.527618567987719
Mo 8.86590889710423 6.729111887868664 4.972925944578509
Mo 5.792857139104291 3.1118735314906694 7.332776147473085
Mo 2.915470940889281 6.885910021087084 7.881629662776331
Mo 5.394611416246912 0.7372317271887925 6.029631720691232
Mo 7.3520976540261005 4.428830931028814 5.564044307179924
Mo 6.0715737210348655 9.536690093607715 6.779705441471545
Mo 4.196368631187123 1.3852114924465824 8.84036821338794
Mo 8.261829929703557 8.728614108336016 6.319383951799981
Mo 6.6268112273251205 6.850002702314076 6.582719213834441
Mo 7.583762776421838 1.7233842322522883 5.497492803136834
Mo 3.109059794445581 3.9446825414058235 8.304975106857901
Mo 9.976765409657444 3.733135813871101 5.617490287986627
Mo 5.257409174479619 5.5764329635774 8.809003054618652
Mo 6.560530216143298 0.766390804178692 7.80906016201133
Mo 5.17735027814733 2.717273212069872 9.879823722197077
Mo 9.197454501726911 5.92421728875551 7.125241824840753
Mo 5.289584329131722 8.248535374726682 8.780768924596181
Mo 9.063305754079932 2.9387304802030783 7.192915086051067
Mo 7.253108465554603 7.812973656005453 8.966756369769277
Mo 7.431887015567272 4.9009631055205185 8.47551542565365
