40
Energy = -369.32929552 eV
Mo 4.235996063033824 10.564677128298088 8.67554298398476
Mo 4.492815979994678 10.572763600145946 5.719137051907784
Mo 6.293979922392726 11.019144269036605 6.250790409534056
Mo 3.5609681926751997 8.82846963809405 9.37097720811291
Mo 7.166756402505585 10.335917968612089 8.952415932507177
Mo 6.261708866984254 9.121503272001014 10.2140373203752
Mo 5.549017403045725 8.648397970524812 7.459110812756243
Mo 6.420632682351831 8.65718055204465 4.898956931398418
Mo 4.030373780350349 7.873367681851854 4.377139787560868
Mo 3.0319854856448476 8.546305138309979 6.8411465238054445
Mo 8.422205821288795 8.795466102886467 6.881471030972054
Mo 6.57771520690539 8.322905275273346 2.6467651905706786
Mo 5.320781491750463 6.434837934602066 9.03956578038894
Mo 7.955464869170144 7.58472998891911 9.076072495027601
Mo 2.873236408475712 6.339928916684706 8.133894806130435
Mo 1.8820051270555993 6.3591240112693574 5.489822006105576
Mo 8.626399609589173 7.148922787991327 4.203665581392808
Mo 4.50467473233625 6.527748483898579 2.0443401373986165
Mo 7.316971989044369 6.659809153817228 6.878294534534529
Mo 6.09485695686135 6.016641866284796 4.243982050505863
Mo 4.546633404942603 6.273463097185598 6.338722628721652
Mo 4.288487606779339 4.0382666081101934 8.915373233466827
Mo 7.284014457581513 4.959126941107832 9.451095429075826
Mo 3.3126723784879033 4.02698704803036 6.678970319182812
Mo 9.06900963753423 5.116182717514283 7.938243870679392
Mo 2.9417297071282884 5.3219814404390435 4.149422162030851
Mo 9.942067596107554 6.626150710096143 6.029594998613454
Mo 7.30985506806983 5.914068011164042 2.061479259328219
Mo 4.870753074884924 4.5461698790122345 2.1613199809834076
Mo 8.133949297125731 4.588897893461866 5.303717369225848
Mo 6.194094087332068 4.2533325018597905 7.244494414078097
Mo 5.982020414430291 2.0065738894532035 8.587492027509594
Mo 4.617929818286185 1.7851358264895658 7.11778960278661
Mo 5.183261137226831 3.633784720709828 4.8276576046603585
Mo 9.551471600686284 5.087055218844556 3.192346551608564
Mo 10.698452144441447 3.8103870979126135 5.334332112241686
Mo 7.450295103292091 3.682565613519893 3.088070947179079
Mo 8.496851973330864 2.754823931014988 7.16734770019399
Mo 9.65958712244358 2.3969161348580923 4.5589200070899825
Mo 6.908649181672109 2.0235907942907256 5.644622401632063
