46
Energy = -426.38938723 eV
Mo 3.272163764660883 3.6844888893981267 0.7720101516009156
Mo 5.142589676475893 5.2832382995164195 1.1307621456898629
Mo 6.049728739059812 2.4510130610907552 0.6739225048620744
Mo 1.9307517003093189 6.086007505701676 0.9189878625141769
Mo 7.389578418253635 3.8787127667327863 1.0210647779471018
Mo 0.7094483692712197 2.0398296703007865 1.1135829095769958
Mo 0.5281091190567827 4.83166265606409 0.55793647291659
Mo 2.2871883296215776 1.2557569728534421 1.769151382569358
Mo 4.463938125189271 2.9212294678512087 2.817820737824615
Mo 3.5454658219794544 5.556286795257497 3.1958318453700167
Mo 7.3779104097941675 6.825390562184526 2.2074844427017917
Mo 6.221190558035383 4.890201033827332 3.4779377284590973
Mo 1.6814011881707465 3.8417779781823023 2.9719254409957654
Mo 7.328419519219489 2.599852817786218 3.339186057975221
Mo 2.8800095217500483 7.84857831581838 3.332489951211843
Mo 5.712352020297179 0.7677603123128369 3.2553836463283106
Mo 0.4263251489583398 6.068713732391211 3.1658440552349227
Mo 0.6490556549273033 1.5641364442878758 4.181416312656823
Mo 8.01357891678593 7.074118417526659 4.7044510290370765
Mo 6.510031206924548 8.750999699088588 2.758781711765865
Mo 4.449538752893264 7.689030059328031 1.602228437898545
Mo 9.83301477882297 3.890418216425484 3.3218165992903526
Mo 9.172411728473277 4.739915139436588 3.9328599750558872
Mo 5.430294260335013 7.298245916532806 4.342590188671171
Mo 3.3941024858586033 0.8325695412795392 4.397937696141395
Mo 7.038449518111176 5.060986010268127 5.879567833647996
Mo 10.696659557489914 4.131262828004871 5.258219938654849
Mo 5.9550106367121645 0.36380972845520043 5.717394694667733
Mo 8.257603303115278 2.792291450065716 5.961632528738478
Mo 9.83301477882297 5.131715047987672 5.736289564938314
Mo 1.8336908243902854 5.953512156953762 5.214139231359078
Mo 5.574723222468883 2.7482667881514606 5.3449798506875545
Mo 1.0802140488171401 1.6926957104977312 6.218533753152289
Mo 8.126338207068393 6.927058244764243 7.499634003499252
Mo 4.379748183356967 5.301476422010888 6.016502855104901
Mo 2.813981856973213 3.1709720846531275 5.203057833448424
Mo 3.4419992485004878 7.752665412393251 6.227275140496806
Mo 1.593189527680218 6.848054323038329 7.586109802966583
Mo 8.205363652491542 3.9308392447922778 8.052933312052012
Mo 6.479463632909595 2.280915816221172 7.844611442236627
Mo 3.8950348980468896 0.9235136384830855 6.711033597199324
Mo 1.948259269109683 4.468738869778854 7.483868729869151
Mo 3.7674001009887084 6.2701461267496095 8.353843504517286
Mo 6.038763507809083 5.113092665654652 8.326223526292539
Mo 6.284197851890543 7.546652760747091 7.066595726789893
Mo 4.262650754948102 3.3627196360527685 7.775468302282632
