41
Energy = -377.89050002 eV
Mo 7.042477874380584 1.4244659766952392 7.376452865144199
Mo 6.984026435054062 1.7563340808061265 9.275066516119365
Mo 7.538852136789188 3.8959523981501607 3.628641647409253
Mo 9.613772597755085 3.2919577471186154 5.559509956575405
Mo 3.9775488042258003 2.546275978219671 4.710200918472999
Mo 5.605836378363015 3.6921460189189235 8.395328088400797
Mo 8.434865080156667 3.5490503297721885 7.768901893772658
Mo 6.353039611662182 3.7009298299300606 5.772570652063092
Mo 10.718699714639524 4.556389378283956 6.6534665038467375
Mo 2.623039060748047 3.790739169390055 4.21965452933225
Mo 7.5474331061262445 4.675416884229454 10.162725034222298
Mo 7.143372288554603 6.399536464392485 3.5718700542633606
Mo 9.704929586120548 5.293210967908191 9.153308520241943
Mo 3.7194257929201866 4.05855824922343 6.824924805698143
Mo 5.197078327457953 4.700235056122025 3.508709107620203
Mo 8.337021804499203 5.55715672081323 5.5863011081753475
Mo 9.503490954405699 7.0531534892914864 7.408688175672864
Mo 7.062284277930539 5.981653845804347 8.039642662325413
Mo 9.372732470181685 7.909583129026036 4.7916334262499545
Mo 3.3996811934889717 6.454568527300997 3.837555046520323
Mo 10.041696526023014 7.694838769478436 10.020220920696735
Mo 9.323805153586633 9.849534610111641 7.056201384658365
Mo 5.345008276867277 6.227522122193328 5.7573136761267785
Mo 5.105481169862982 6.964207838605386 2.1776410176097705
Mo 7.937905974586724 10.685413353231302 4.9748463699472465
Mo 4.974536218526566 4.984270397498872 10.383204402590609
Mo 2.430410669216881 9.023128830760228 3.6765653495922535
Mo 7.252393095498089 8.273642104230351 6.0893073759053635
Mo 5.318238200119598 8.361380711818173 7.930340627101219
Mo 7.877657632618691 8.42607629892272 9.015392768635072
Mo 8.60500082511636 6.869050852454431 11.27399783392855
Mo 2.53191456540335 6.043037654308309 6.204296643371769
Mo 7.792742075912382 9.032132260996852 3.40532840122819
Mo 4.214692994374347 6.197318898400067 8.265979915473498
Mo 5.819562660661083 11.063358349691736 3.961320530534164
Mo 5.261585440757614 8.49490633502437 4.087061446164156
Mo 3.430291720215383 8.248064130421936 6.186869427926292
Mo 7.580052727610281 10.674628704943636 7.804030072856387
Mo 6.132845410133823 7.056363769518177 10.20511130512767
Mo 5.44190672414556 10.337053652875957 6.091016728261317
Mo 3.02310527982553 10.527196949639698 4.509243126660588
