47
Energy = -436.10714347 eV
Mo 0.9077486127570625 6.525820773175528 6.283120141243619
Mo 2.6165605603117386 4.430613285960872 7.422322442126109
Mo 3.1551105453986774 7.027894387185758 7.916052858676826
Mo 1.5216979655096012 4.966476486897899 5.153647327668636
Mo 4.072629999208446 7.448007325749594 10.719111153301547
Mo 2.8076343363810263 9.433827319769527 6.39783984148545
Mo 4.61531394236023 5.139315671545904 9.064633332786748
Mo 2.797800091100097 7.557685186194144 5.101741695857338
Mo 3.643874680866472 2.5356674020768555 6.049413571790006
Mo 4.2402032574486785 5.391693189530668 6.115905469371433
Mo 3.940106775542343 9.100821611287843 8.657643075151528
Mo 6.516673808770478 3.450255848434943 9.92652546713427
Mo 3.6162060505561953 5.60908869661601 3.2578405444850116
Mo 6.203697747134299 5.778875827666736 11.33603302376545
Mo 4.7011335498246165 3.9605694163174636 3.658850187252785
Mo 4.85558073301917 10.259554269740049 4.766172471057784
Mo 5.739220723855785 8.578456938770822 11.049969019072158
Mo 4.908070640660266 2.6294764465401 7.655918286743452
Mo 6.303218377279863 3.451629283095087 5.663244564118027
Mo 5.184772122361868 8.292273256737884 6.329010387066705
Mo 4.979394026650395 8.076155169118701 3.3285564711308964
Mo 6.112512285853941 7.239597774506055 8.76870749195794
Mo 5.139766195879652 7.510294950298635 0.9617819134078263
Mo 7.9182785053481455 2.518546568302158 7.820722255815971
Mo 6.813255510202609 5.006851419772595 7.603993711369576
Mo 6.225717082580341 5.73078899425845 2.1075930776600424
Mo 6.291995510499654 6.227047923938549 4.626009907036952
Mo 6.727484398746786 10.519924646123734 5.78570132537387
Mo 7.918765681906657 3.8583637137096995 3.3950850636008854
Mo 8.351096237297115 4.429912809455195 10.015489147926555
Mo 7.803387364799607 7.811269694691989 6.625677330646565
Mo 8.718733959182464 5.496831646030539 5.530779049849135
Mo 6.48017142034135 10.027221966189263 8.516305667450833
Mo 7.846225157882865 6.959869794160023 10.890020688620107
Mo 7.092595492083633 8.3111558394163 1.467022070461352
Mo 8.63958014951194 2.720277061362836 4.9111307851273205
Mo 8.176571337906095 9.33789471604305 8.988011460119642
Mo 9.487453349267724 3.7666031740721393 7.489604293061971
Mo 8.982207108679786 6.446053689871244 8.3761899626066
Mo 7.299083043561242 8.73822433176328 4.060205280520193
Mo 8.365792222661426 6.574956462759579 2.936594147565578
Mo 9.372158413656692 9.706042365509841 6.083046770305492
Mo 9.872663584510228 7.951323496057101 4.747228379712514
Mo 10.832514372364383 5.260288713563203 3.7123639026812265
Mo 10.472804839352703 8.277335424339869 7.713204005250531
Mo 11.209623189344548 3.9335987264434205 4.9578546485269985
Mo 10.895654440531228 6.262452328285299 6.361137684385664
