50
Energy = -464.64278528 eV
Mo 9.014828905466754 7.091888588031944 10.110327756496387
Mo 5.973200420174264 5.938978599528302 10.966318079558876
Mo 4.147857214883961 5.622590496813429 10.561775862557296
Mo 7.317389476753119 9.36734173157098 8.982044507188345
Mo 8.2236395652032 4.408814885268189 9.54537985649064
Mo 1.7133673087605066 5.504375796350537 9.02440874032099
Mo 4.902451651544026 8.00718535985252 9.256015216391656
Mo 10.299141385089149 6.021093972698006 9.008925618966034
Mo 8.97438484923147 7.680893134082547 7.354824578213969
Mo 2.067155279354793 7.459231453785469 9.076727606726774
Mo 8.173807738331693 10.275435775526812 7.421383629041848
Mo 5.741289528025651 4.142774871615724 8.724620002787368
Mo 5.283857483713101 10.573262287460956 7.386431523729346
Mo 10.083884189651911 2.7735235374346425 8.328035562458956
Mo 3.3747118477427063 3.31661757405135 8.631176003678105
Mo 6.937788712570625 6.586959037753263 8.55883284020083
Mo 4.799902989945211 1.5851592972230077 8.02471367472354
Mo 7.253604723958048 2.5535952150798886 7.668647070378471
Mo 4.1302478798528846 6.068583565770514 7.808894336518363
Mo 10.712685405935021 6.780875580911985 5.923158816191911
Mo 6.189865998201526 8.32023418104913 6.478610416887671
Mo 11.385429811069981 4.656162104353429 6.682782592713761
Mo 1.5276377017142497 6.744371037448191 6.470990363517427
Mo 8.794340860266058 4.843637027933314 7.022413737515586
Mo 3.5674197078691083 8.639944956828746 7.02871145075471
Mo 6.390651053356422 5.711744036655243 6.161600955110722
Mo 9.677348302843464 2.1150447943244624 6.577643776752517
Mo 3.4060592985272096 2.006182003324088 6.154009369394197
Mo 2.5233293363859866 4.212680586150412 6.392581594514052
Mo 4.037849774242417 6.34966933729668 5.249587964625677
Mo 6.358993197323043 10.986543606320762 5.473060403959505
Mo 8.498776455875632 6.404492384192478 4.650405987069508
Mo 2.032670632227783 8.53084609977642 5.1597442623034935
Mo 8.156119211181942 8.899974945688632 4.986930116609381
Mo 5.392569501468079 3.422971305328249 5.924612495624053
Mo 4.6274321666756775 9.61654170361365 4.600788547780753
Mo 3.3839012324057305 4.149398190966766 3.918393382011745
Mo 7.831254795144892 3.5359754972600435 4.942655952294673
Mo 5.967140037433741 7.485391848080266 3.78573430158429
Mo 10.310902267080705 6.037459841620259 2.7745800301848393
Mo 10.232390280217183 4.281083257694094 4.661582471065391
Mo 1.7599617278769328 5.725198451712365 4.053229330796276
Mo 3.1845020923268597 7.797520960057516 2.9957330669866113
Mo 6.66555292022316 9.980142644741376 2.7828275227378545
Mo 6.233754027278624 4.889556552729307 3.5612769794211445
Mo 8.675096958131844 4.9268296397774485 2.24647194079284
Mo 4.225790322600396 5.988154569933157 2.263675115620133
Mo 8.18676346745048 7.845217856995157 2.276936358435609
Mo 5.444310308606643 8.868960888149491 1.5719338059127936
Mo 6.719538795774527 6.485723472394756 1.2652404903767485
