50
Energy = -465.09704561 eV
Mo 3.543144354296352 7.38447787226288 3.294126099854895
Mo 4.633747385078413 4.539818412610688 7.9829278116556255
Mo 9.792939871783366 3.5013627808035817 6.8003472428573755
Mo 10.478048419759642 3.0888939781876 4.168140847792461
Mo 5.109146655763488 6.464029111457471 10.107257263640564
Mo 3.4634139844151846 6.837551252858391 7.206511215032786
Mo 7.897180995704457 2.177259984135457 7.792815938739381
Mo 9.354381375459328 9.308502243373914 5.155786831921845
Mo 7.997023825802159 2.361975554183615 5.038118780632212
Mo 6.659331237033058 4.087904822295862 9.681841125888374
Mo 3.927558645480838 3.212792031303624 3.851596057135291
Mo 9.638815975529955 5.982127141319065 7.300891234260385
Mo 2.989848545672122 9.419037188339825 6.982905902281244
Mo 8.50775873626511 7.547316081174676 3.05574658894433
Mo 6.666784281707976 3.535174200313405 3.6406888682380547
Mo 5.71608347923018 2.7784790771142407 6.122460996059306
Mo 4.808523871473127 8.11569609040761 5.206960370828688
Mo 2.981677121802904 5.604470293893224 9.739979304303397
Mo 11.233975917747818 4.761348151310932 4.9872473398923765
Mo 3.317643799954978 9.87460646408742 1.9662686102785032
Mo 3.9319242285648652 8.393071358631232 9.13109394884677
Mo 2.853773399031977 9.875509256039802 4.332636047137116
Mo 1.8935973547578726 4.710897925270934 7.324590960436428
Mo 7.9655506396075415 6.290472976329193 9.28194221942584
Mo 8.824677615225138 8.145232968407042 7.742160322377388
Mo 4.6320005291831166 10.85665214784474 7.984509905057398
Mo 9.45908315959689 3.9261126726689706 9.41528235317037
Mo 2.5292784568456717 5.327067941739263 4.962339988512036
Mo 4.2251677776634695 4.693968445635233 2.6285020761662476
Mo 4.1983319792277385 3.7345152532575887 10.59660440973049
Mo 5.664669993482592 8.490437770332152 2.1481928574702143
Mo 5.300323054490363 2.056446960658923 8.578859819928866
Mo 6.8779263403251045 9.639310963715854 6.691636226728949
Mo 6.836252029945402 9.38773900786384 3.8916045161332256
Mo 10.292634840343641 7.56235093747061 5.132211607385323
Mo 8.264302147262068 2.3398808848751522 10.212168320319979
Mo 8.619245364164588 5.062845507600399 4.6254508426771395
Mo 5.164658120314173 5.3578900201929045 5.341537365790545
Mo 6.069354905448994 7.07776000178287 7.741317900260208
Mo 4.970303951830814 10.664636620407816 5.505015196635504
Mo 10.229770042875396 5.660846120114774 2.453655728456564
Mo 1.8738126476151902 7.512597149346672 5.226213135692566
Mo 2.968753503383252 2.520499100006469 9.112243542437112
Mo 6.293953392335499 9.317555112889677 8.967139690974475
Mo 4.784562834961285 11.014893606701406 2.796354600929786
Mo 7.326734033658472 4.649940354849933 7.12999916252822
Mo 6.3657152434176085 6.35878531090213 3.19616340704094
Mo 3.133822737414886 2.960721400753301 6.563954989839742
Mo 7.557259262134107 7.1985168876767744 5.607944167268223
Mo 8.500498203732965 4.9549888734023755 1.9210225292055625
