55
Energy = -512.76192504 eV
Mo 7.203340106620453 7.552165387880851 3.193133584830157
Mo 4.501843045420599 6.623901132571383 2.956661294477959
Mo 8.427969898872808 6.308828151761374 5.421724472122194
Mo 5.1546644304590625 9.266953466860423 4.045798806459723
Mo 11.322814380815132 9.391067880357072 4.3532344811314525
Mo 9.685516258287864 4.42666091369334 4.6589480089786655
Mo 6.180699549538093 5.404975576988486 4.874301124233697
Mo 10.384587206171393 7.978460435199106 6.06105145873232
Mo 11.184991781005696 5.894791813518759 4.635372985683096
Mo 8.19092829733982 8.981763069204614 4.195753526207148
Mo 6.062208911387021 7.86807363470352 5.6940252423345195
Mo 3.2811855831945924 7.908924520233189 5.329194315211708
Mo 9.54624485328497 10.734938058913174 5.7701535247543605
Mo 3.5889962022308404 5.474122228160774 4.072857287314871
Mo 6.7506245965300335 5.73392970459095 7.540925023748741
Mo 4.306507501925505 6.325758339116338 6.76170770380054
Mo 10.988679892320386 5.28912832607862 7.047147736263595
Mo 12.799255733032425 7.758790945445605 6.720141199076077
Mo 8.050443674778936 12.64283601303853 5.4703302629731665
Mo 6.4855109972881415 10.812215612741872 5.759274389190408
Mo 8.93599964208608 6.893881231201251 8.242979478502654
Mo 12.236413143650164 10.129802554899861 6.314878012939517
Mo 7.967801545226818 9.089918112371546 7.128860481547418
Mo 10.552942560861323 9.602499783383315 8.2903442587497
Mo 4.2705321287141915 9.367782682235543 6.976089555230782
Mo 4.598558720251342 12.005019774255697 7.2294850375169055
Mo 8.952623314679217 4.193343947471322 7.322308905686969
Mo 6.3596716613044855 13.205675163602857 7.243753204401384
Mo 8.392812879199951 11.77092460015882 8.059823249967897
Mo 6.106955269824406 10.761519168235903 8.72809803659832
Mo 7.084827770668682 3.9522020090943735 9.480689428210912
Mo 10.696876923356218 12.181802333761059 7.3933367315660545
Mo 6.010466738034915 8.028406414438285 8.623420535277402
Mo 9.821810063597384 4.9040237531826945 9.746371865976192
Mo 13.09601273269621 9.622187899418108 9.079238143954887
Mo 3.1964872673139633 7.929468224955683 8.738263717522301
Mo 11.676345818216001 7.0543459957877 8.721704998051761
Mo 4.698900481450816 5.7100990594086936 9.611999458952349
Mo 9.311986172041118 2.450643723660937 9.723861118331266
Mo 8.454459465350983 9.398641478080691 9.833449373742265
Mo 7.639017065595796 11.913954158054233 10.791746990170845
Mo 10.392162449813904 11.548275142867558 9.907652162697795
Mo 6.363608783877135 9.32624210588494 11.175793665344928
Mo 10.178939033058699 7.5622436181410935 10.700039464353347
Mo 7.468272443576401 6.500712720736584 10.427945526706994
Mo 13.148816989928438 8.421832338697474 10.562749131911698
Mo 3.9122696591388775 9.480353683786499 9.910902562714838
Mo 8.66782807925526 3.008211036375261 11.496323132288868
Mo 6.0418013518354226 4.267259899034069 11.336706206764363
Mo 10.848448670453731 9.751049944395684 11.275787220673715
Mo 8.459760550317625 10.931265363837634 12.245577053879568
Mo 8.250633099149695 8.070633037658524 12.298837189835435
Mo 4.85892796611346 7.193776072231453 11.168432586181005
Mo 9.450420849354193 5.500458016187847 12.339752972893598
Mo 7.5101221492929735 5.6037860812401155 13.021588453121893
