53
Energy = -494.63033317 eV
Mo 6.492643825448141 1.0252915262744065 6.552226359112818
Mo 4.917444452839863 1.2631650260703084 5.529523247588679
Mo 4.546711834067416 1.5998007946976767 8.656578372984285
Mo 6.894691252671217 3.1390900612470163 4.804171868788763
Mo 8.731409408610093 2.776478669157735 6.801868173299925
Mo 7.163386326921975 2.896390172144515 8.72059055412309
Mo 9.254178362078354 4.675601322046657 9.049676338623664
Mo 5.402787545636074 3.7052758655475175 6.974244928277594
Mo 10.24264571480474 5.313684640979278 6.4155277634692585
Mo 7.904431250478582 3.675396872387751 2.3887425349287814
Mo 9.566878818373748 3.6828434782064554 4.727659767180671
Mo 4.176288042271868 3.7571426730606112 4.4159130882621564
Mo 3.097541254497368 2.9585251637900307 7.004191783452667
Mo 11.449874122126278 6.301014081210708 8.828504300211106
Mo 8.279694241857818 6.357536730168546 1.7162854337039495
Mo 8.270649677917866 5.7045096857148705 4.179308946704123
Mo 9.881489358272633 7.627791687599946 5.177194568557686
Mo 4.36412993884204 3.2954484284686707 9.598245660291523
Mo 11.802937511786274 7.497783372154156 7.272606512481912
Mo 7.718864053102283 5.026178714934896 6.736154230318057
Mo 6.515076192698661 5.216972427400052 9.312648211750068
Mo 6.025436611514648 4.628386290086945 2.614496773975287
Mo 8.799857891431294 6.206681526826163 10.445125970136036
Mo 8.909287261487506 7.298597675937526 7.74968573727568
Mo 3.3276922184575772 5.822598742711169 3.088470350436986
Mo 2.5461441085667462 5.04709236637559 5.738519587964821
Mo 4.324413588009757 5.762461502440774 11.005673512884735
Mo 5.306484446045496 5.859481100146967 5.221285300336729
Mo 10.35620191050258 8.554112121580582 9.488359309253752
Mo 6.298785341363004 7.171220648768958 2.7433662069520617
Mo 7.26340045860429 7.825529093998933 5.42671770895388
Mo 3.84930424789368 5.557602144957862 8.012483590793295
Mo 5.599094884766397 7.1822999394834435 10.960393590790519
Mo 7.870868980862675 8.466116451353802 9.914853992176157
Mo 10.148555706545116 9.628510578885003 7.213857607900409
Mo 5.869261821007602 7.244649857504702 7.822988760085591
Mo 8.954438073793515 8.178744027715371 2.836419589447785
Mo 1.7149827643166875 6.835766924462276 4.4563871693439845
Mo 7.588109018548024 9.834455044507338 7.430838439950144
Mo 3.3466683685031517 7.697504050932197 9.283092898851326
Mo 4.240640430135316 7.831003955551237 4.058388677705527
Mo 3.1805500683776753 7.6619181401648255 6.463155063041529
Mo 8.712992808581479 10.009923329091178 4.9320849816987495
Mo 5.1797642807624475 9.359890301479988 6.208442864786913
Mo 9.19510506504183 10.926008327537277 9.513621463264444
Mo 5.238571298584821 9.29314441757603 9.113285099030607
Mo 6.547802912051422 9.519653942173917 3.705329374298983
Mo 2.7654980804049507 9.611594558773797 7.808869072129583
Mo 6.745775296747801 11.395893782014163 5.515184152016368
Mo 7.16095842149908 11.036669864110918 9.834386709214598
Mo 9.203636208521475 12.134264905796831 6.779974801265163
Mo 4.799151908281486 11.180456912382828 7.676199807600574
Mo 7.5105521546292495 12.660613372650849 7.6154293734856155
