51
Energy = -475.34822794 eV
Mo 10.125532698348538 6.811251498544137 2.5336264243039253
Mo 7.185832789615273 9.232167198110755 1.3782316079188983
Mo 8.427930908839954 6.958058018740591 0.9978266093907535
Mo 8.244620185216917 9.871709156522522 4.404341229467272
Mo 9.599192777572679 8.410983562720613 5.049959579462675
Mo 8.96888144455742 4.964180723716117 3.0521571701746937
Mo 10.416955484031144 4.934561553805629 5.0684726237895825
Mo 5.5938641475688815 7.950831486306574 1.3624488252387263
Mo 7.175302257391414 2.687901606916828 2.726184503647125
Mo 7.60763289181628 7.423648042744376 3.3437517063397095
Mo 8.414367605542106 3.227006831423947 5.2357348110106585
Mo 5.562889467952006 9.564083616432864 3.6085298243164186
Mo 6.6065810674000875 5.292753951716404 1.8102622592211235
Mo 10.138816880674028 6.932221733240107 7.982955055789702
Mo 8.27271510136992 8.899199229551565 7.25520108548362
Mo 8.55803341182309 6.023653698409473 5.702569522199761
Mo 9.357270176070678 4.175206275210878 7.699405909438267
Mo 6.10093644936962 10.212694199664389 6.066663729584194
Mo 6.398352191795605 4.900157932418975 4.271138543213086
Mo 4.743328091669079 6.958595785680716 3.788546266556528
Mo 5.858274407807874 2.216940956088845 5.239997763637298
Mo 5.157943518136573 2.8386674316599154 2.760895981548186
Mo 3.873182977188316 5.161666703245293 2.168679709085119
Mo 3.269475452800446 9.013355447302738 3.5666126455088607
Mo 6.6414701475327655 7.89056767259396 5.7362878413663605
Mo 2.1722682249282874 6.234511036673788 3.179114479034134
Mo 1.9606263243084592 3.337232267616866 3.1935367337362313
Mo 9.67543052711914 6.351038344839733 9.741379936580229
Mo 7.371367523810458 6.427671487220981 8.240465498780697
Mo 3.754480496721421 4.322740610155821 4.818768060434615
Mo 4.688641315299478 6.241898673085769 6.374446307374526
Mo 3.950877870930226 8.92015979910571 5.90352539713586
Mo 3.204229683899199 1.5879236688538618 4.806679748051739
Mo 6.498950704661991 4.337597829434042 6.967445062250023
Mo 8.200352603223532 3.9304227522414052 9.267616482910054
Mo 7.2693554236936375 2.0718364664103843 7.187073496066061
Mo 5.479358245944417 8.390864503358625 8.257567084639398
Mo 2.3232472645121787 7.115168471432584 5.591120793276619
Mo 7.33473589076302 8.338746925143276 9.668298508618546
Mo 0.991323978678485 4.650782277116674 4.637758757664098
Mo 4.281045538184147 2.9192211027604666 7.0985826019068305
Mo 1.9443018587168612 2.520447015039309 6.10467711962397
Mo 4.688702023852526 5.60682176607682 8.802324169947068
Mo 6.404341749579814 5.613607462004281 10.773979808680723
Mo 2.697179662761595 7.701818567102891 8.302090503582761
Mo 5.391482216259098 3.0899204717444135 9.490999425031188
Mo 2.353490063202248 5.186826518091603 7.138287404155533
Mo 4.681006799562322 7.532492433131071 10.520951336379243
Mo 3.2971325181495637 3.545025744954781 9.505357001342281
Mo 4.493665829038178 4.914019077079622 11.503410940572326
Mo 2.4908235247996315 6.490162295872039 9.943694555253735
