51
Energy = -475.01824346 eV
Mo 3.795982591317573 3.4147678604206506 9.69869745646192
Mo 4.21647143731514 5.849508549028049 0.6272206301436121
Mo 6.401708766976559 4.605433891147934 0.5671421083472888
Mo 1.8047943313486436 4.939230311152543 1.1892925364775722
Mo 5.533423622743848 2.2611938237263103 0.7209722776969116
Mo 2.276226696070602 2.6264245333855363 1.4915372627639731
Mo 6.525662008117917 6.916436890403031 1.82330176938989
Mo 9.047225044138722 5.65101912793064 1.8036171390194153
Mo 2.0695054914033513 7.182126726361591 2.420327556819448
Mo 4.257818014153011 3.915597580179513 2.215917626260643
Mo 9.769676640853865 5.646587127073119 2.7443462603742135
Mo 8.151698339352201 2.8155505329207244 1.8383385470401226
Mo 0.11568634439094758 3.6844885584778995 3.1232616631545485
Mo 7.533419453614816 0.7327979283492104 2.356583231870158
Mo 4.0071205499601055 1.0081111042459951 2.646694565918756
Mo 4.488316068911294 6.653938803154837 3.15673312236192
Mo 6.797463628532396 4.6836739357278985 3.1468507265231724
Mo 2.2609355790496317 5.0300830176233475 3.83159660783459
Mo 5.931891654334202 2.0493141817574427 3.5926340054149586
Mo 3.076957114362729 2.2093475010077497 4.398395413969524
Mo 8.580857108203649 6.806214198921292 3.452647089204725
Mo 3.094902611623781 8.847938593110474 4.54291385097107
Mo 1.2438038115449148 7.2733903865936185 4.821420713833982
Mo 9.256199419198294 3.926387732793745 3.8976293681744347
Mo 6.4278792860952505 6.2523150954563835 5.444638041408843
Mo 4.740974493190714 4.297395960938583 4.779185584030585
Mo 5.025042208351668 10.010496761361882 6.3707703862759475
Mo 8.702253223907427 1.6137790979580355 4.402768891555602
Mo 7.690916728046002 8.21717792820386 5.897806479586265
Mo 2.63988084882097 4.063227714540793 6.409288625831881
Mo 9.711619469995362 2.9090700831419105 6.794464485531832
Mo 8.708009896428106 5.288120852013977 6.01270571122453
Mo 3.6325063405171827 6.651629136305628 5.857497925842129
Mo 5.870967314009501 8.629408666018232 4.443057156510702
Mo 4.828386131992579 2.112327684840684 6.627900668200397
Mo 7.125693328602295 3.3966835197338403 5.705770620824668
Mo 0.4701032087793706 2.4341356053560945 6.175895108697752
Mo 0.20458319011882212 4.948206760638653 5.503359660090085
Mo 2.9288638772793147 9.118261964604562 6.824214870415993
Mo 2.8972969594273366 1.9040796466285157 7.647696666414894
Mo 5.543885960750765 7.9564322668399985 7.375452918295391
Mo 5.164118241598468 4.830294798094657 7.384075684141906
Mo 8.263923842110595 1.4456343882726792 6.948881159098967
Mo 7.4688209554911635 6.1727996969203165 8.269442515121938
Mo 7.564993475717959 3.8256830392093937 8.264486401157086
Mo 0.3482361136280573 3.4017987941992547 7.879480277724953
Mo 1.3401455635894128 6.2230786127560265 7.213050536961301
Mo 5.0068217805787745 3.134945668603105 9.099857159205698
Mo 3.5622555502624382 6.77961909135199 8.602575527233293
Mo 5.698799053118959 5.675940658298476 9.69869745646192
Mo 2.8501898796613316 4.541179234663719 8.913821201717289
