5
Energy = -38.35569816 eV
Mo 4.71106311763314 6.068226809664267 7.359620507687101
Mo 7.2052191473107 5.475740872922261 3.7096505517596294
Mo 6.374818647929011 4.546742750647566 5.035782095990958
Mo 6.527077383570564 6.863936028198884 5.8840296332436335
Mo 5.572650843868657 7.36122086732777 8.31531627275329
