5
Energy = -38.47573882 eV
Mo 7.7844194280279915 7.103917749663745 5.685507596444118
Mo 7.999376647600848 6.795555979158317 8.124846179840679
Mo 5.971745504105972 5.407766873580687 7.28905042729629
Mo 6.593600463613246 8.24348121689285 6.719414353450906
Mo 5.207501161725281 6.005926500992613 5.741362107233557
