54
Energy = -504.60063383 eV
Mo 2.6060550134353333 8.849316100735319 7.652424896712272
Mo 2.448700791765039 6.2651141136855015 8.634725731775212
Mo 1.0536041982830973 8.347298415093709 5.308269161092389
Mo 4.887989138412755 9.622104993225081 6.647733671412998
Mo 4.483490352350733 5.076646460537123 4.473639799307069
Mo 2.6719178043848837 8.128834257993619 10.502398706116402
Mo 0.8602211994612726 6.411537688270795 6.31727870777873
Mo 4.713416637006955 7.2426139799693425 2.922510041732055
Mo 5.406831673321609 0.8426913569589517 3.898757653953506
Mo 4.298273391345723 2.681975866718186 5.502161930247105
Mo 6.099412686683588 1.1518582411254963 6.842712815266949
Mo 6.7819463282225945 9.666653252982721 8.586224010866047
Mo 7.4713564068587655 9.544428477684553 6.363133134436189
Mo 5.621185502362133 3.8832337437357802 2.2591664976181334
Mo 4.53318714513308 4.914787127820738 9.204238662186883
Mo 5.33989637454052 2.319754081051654 8.190597136313713
Mo 3.7973937284227413 6.700581530986942 11.164751602791865
Mo 6.185720673464901 6.171898265431055 1.1398659843739138
Mo 5.94270440120288 7.458189230259851 5.573921974380547
Mo 6.748621771949943 3.153553001605805 4.795870179568831
Mo 5.6145812983748105 8.69698318580856 10.634809350533038
Mo 7.910989967393687 3.0406420420833675 7.003076290200628
Mo 3.1106334637021913 4.255468059098902 7.199281013984935
Mo 10.581245567650306 4.0134347777094534 5.8479681469646145
Mo 7.993997329729251 8.842966530046445 11.01086266967052
Mo 6.605174637270789 6.365007453898403 10.353617518367964
Mo 7.243408609188303 4.448023837763025 8.861963646037601
Mo 4.895249773606346 7.458701507827188 8.468508847520324
Mo 5.671298624527276 4.9356691872940965 6.840333952357014
Mo 11.850725375549704 5.63130433913017 6.106698383710565
Mo 7.089951637430178 5.824975729551007 3.456251483220322
Mo 11.134584608181193 7.112347218033852 8.121113099720933
Mo 7.191424930152958 1.9754713126340702 2.4113924054713785
Mo 9.665897122505974 5.208859189279784 7.911945155569416
Mo 8.957569968222895 6.73586520139752 10.037452226304506
Mo 3.417040021223114 6.821808133460251 6.064716599088262
Mo 8.824112025843815 3.8777986466120082 3.399366926077906
Mo 3.294216766371057 2.7548028279387817 3.185569859958137
Mo 1.9450246851335937 4.599377961844168 4.88212837478747
Mo 8.154253133543078 5.522016160229821 5.9335768730201215
Mo 9.108053387893081 8.993009966265394 8.833762163000568
Mo 4.803484371691745 1.3083464733081513 1.8809363837468132
Mo 7.437167581625711 7.127836507398789 7.856686555345529
Mo 9.95986883827295 6.149741664416992 4.230699562271812
Mo 3.8094587732814764 10.127139078045191 9.040579125343939
Mo 9.726779954637552 7.740722212331841 6.471049297269397
Mo 2.0207441296122326 6.69181167442209 3.7345551505778274
Mo 3.37607201778835 5.095226213698425 2.192322137439546
Mo 8.133211504775844 4.308610308271034 1.2332506359140216
Mo 8.113342148738928 8.065054899266375 4.087000916051212
Mo 9.174979846369665 6.450150142802566 1.766827624123605
Mo 3.5644479041084685 9.070562833723404 4.69605772623038
Mo 7.3617171708832965 8.200840701940887 1.8737300438222357
Mo 5.716758121906178 9.413987957905727 3.807923232321122
