55
Energy = -514.2375576 eV
Mo 9.851754890365605 8.066992812599553 3.6331712540005863
Mo 10.341151709108308 10.37692439063276 4.884299502773623
Mo 11.854498730591985 5.405653688424916 4.438022423828021
Mo 9.162533415682454 12.074507701835786 3.8426567880796556
Mo 7.547215117473195 9.91182764932366 4.313291934422506
Mo 4.760278907313584 7.048966087550063 5.167315970055051
Mo 11.527558934419288 7.978646339519854 5.003266589724198
Mo 9.417071207163822 6.138117650311575 5.513276487465566
Mo 7.010569185698179 7.193225639016099 4.520934523727218
Mo 10.486605976967471 10.612131431724274 7.429035954353926
Mo 3.972040757006081 7.654504733986732 7.836796378863482
Mo 9.337847368380453 12.76912666335064 5.896189060117221
Mo 7.146388785541315 5.055505523984139 5.8539344753807665
Mo 6.750122495968446 11.965154703514507 5.334299868513659
Mo 8.816238592680099 8.565174037665276 6.159166299741921
Mo 12.062921613815789 5.359188730216181 6.288205781189852
Mo 4.114013365782955 11.274212956486178 5.810785698385567
Mo 5.636371694275868 9.30472343362814 5.976901548027854
Mo 2.8385656512842274 9.182740041275814 6.220154789984363
Mo 11.07352785368073 7.760795442412635 7.635589817539961
Mo 9.633598614254188 3.585550674278511 7.093915731400885
Mo 12.680507183785366 9.467686638715183 7.405624182661971
Mo 6.717080900545327 7.134573332116888 7.288836697959745
Mo 4.786699883729303 5.411372789995644 7.026017686617321
Mo 7.800158585148648 10.7732726116168 7.135134112020085
Mo 9.012202146531639 6.089906512274922 8.059867738190903
Mo 7.187884697393131 13.528474751804449 7.579113034920006
Mo 5.18294188425604 6.067261873662863 9.758812372070803
Mo 8.932037000958045 12.96927769480206 8.65410081784468
Mo 5.841409528125766 9.038735878861862 8.924413015484548
Mo 7.095051006075172 4.491230097798509 8.30601511941642
Mo 3.1502067403339917 10.217507887418732 8.20683979546278
Mo 9.391975583993453 3.306295038383909 8.99072155991691
Mo 11.331891799995082 5.22040042586517 9.03116949350475
Mo 7.26066980669225 11.540356612995092 9.601569641383293
Mo 12.878171537507356 7.250582727679784 9.598135242877955
Mo 5.27001046791895 11.575927100551286 7.841797811131491
Mo 8.622804998636495 8.915534568784505 8.858225530248863
Mo 7.50846297108106 6.837982925403182 10.095754012174895
Mo 6.89605397673733 4.085330069375002 10.852107871537639
Mo 3.4358876947077923 8.697303862110845 10.389582295184292
Mo 11.950624507483901 5.107977052993026 11.155030200132247
Mo 7.477728276044935 9.395752268509096 11.36126262953701
Mo 12.20922281519713 9.459439123128664 9.739664306240602
Mo 9.83187406467282 10.737624117934748 10.107780261205836
Mo 12.461935479418544 7.765762722909514 12.319960599076616
Mo 8.691211371133969 11.328005117021034 12.032329770157355
Mo 4.79243064312996 10.421249474144537 10.646092640844664
Mo 9.375339743501414 5.286779166908974 11.1282483937368
Mo 8.4544192880797 7.4226506834003265 12.629434896892253
Mo 5.442229313795224 7.70869119480184 11.525775384757488
Mo 10.33490608967209 7.629643954592787 10.378790435765545
Mo 6.691307883425296 5.361464898009015 12.364816196624403
Mo 10.211815062689361 9.17757737950801 12.33205402258946
Mo 11.045427453882978 6.588154367917808 13.117166607989368
