51
Energy = -474.27651459 eV
Mo 4.413375438400462 3.779804516246904 1.1253493634717204
Mo 4.8436615457458165 1.141391291666993 1.6526430257459568
Mo 6.896955591762804 5.414116237022002 0.8852067787439476
Mo 6.560741048300443 2.517581220539417 1.4782295910993137
Mo 2.302263832711999 5.1170823531954985 2.060711281197555
Mo 2.680867124115562 2.764908510790787 2.8927580895327294
Mo 8.61586422363476 4.506509582917753 1.3087530218331638
Mo 6.113233398609166 8.563706703226373 2.186595901564679
Mo 2.6074501306799607 7.609091432101682 2.22521808818756
Mo 0.2950843634434412 4.273786627967467 4.150459197475292
Mo 4.857992344146909 5.813485878181108 2.536674776767679
Mo 8.527336762235134 7.125393090014446 2.5547957718320276
Mo 5.109785177727679 3.2411959559595043 3.6251005190162586
Mo 6.3920109115883585 0.976236324706687 3.7551121891475403
Mo 3.8078874721265024 1.111934752961335 4.457202464955344
Mo 7.435669635091958 4.737724139179071 3.5933582733417007
Mo 8.87123738827954 2.2865987669667622 3.555471428646082
Mo 1.2367703653542172 6.965958972145393 3.957685944615803
Mo 3.003926129764046 4.881080092745143 4.489743796650676
Mo 1.8479090895765424 2.5343865469930824 5.5020964057362
Mo 7.389320229957443 9.68979264361695 3.1208683722515254
Mo 5.291134440192468 9.876937335120967 4.980447612627436
Mo 9.944020704282705 5.251346646728031 3.928381079613575
Mo 6.673016179152147 7.341303915296566 4.4897704904866975
Mo 2.1195707632088965 9.02451834526217 5.106011339468388
Mo 7.099071927333394 8.900226421695582 6.251974535116019
Mo 4.058279133278208 7.7775904458906995 4.199491198803981
Mo 7.99945851619387 5.677159091832486 6.052533570079922
Mo 9.278150774872845 7.981728653698921 4.491839611685658
Mo 10.338343632385957 6.227149416562482 5.935599719694105
Mo 8.42205909756421 0.8043772913115266 5.18218400122027
Mo 0.03900642388435756 7.694186985492079 6.588230534132165
Mo 2.7777888241574873 7.00164135469526 6.3310168037657135
Mo 4.298877368581604 9.065294404310203 6.965093317667659
Mo 7.000900428310365 2.9310142113666613 5.782549312303738
Mo 5.4920743185850025 0.6406599226972443 6.337576254077248
Mo 9.557833235710985 3.4240197801997097 5.463305735477022
Mo 0.8223485795043689 4.9107122504069425 6.085014242457264
Mo 4.315323346784783 2.9891882058744623 6.239469157420527
Mo 2.721204659890965 0.786291428466601 7.290802744141998
Mo 5.369023138106893 5.361552492260152 5.460183437599191
Mo 5.740258714214862 7.155259671294308 7.316089086326819
Mo 1.1171830315931037 8.849760206164182 7.653737884511532
Mo 7.216288152776547 1.4801772504030632 7.7829967076528295
Mo 1.4146438043475467 6.057985049310589 8.671568898327433
Mo 2.991688351105564 7.227518473639433 9.073762825222241
Mo 4.719632121100563 1.833975531672673 8.55186276628774
Mo 6.1886978392138525 3.8753663442556507 8.11298164696235
Mo 2.3695114842485863 3.0318115870227365 8.08351722825774
Mo 3.9144677952841245 5.1310632488547165 7.875486855669742
Mo 4.14315573741925 3.8807731256074325 9.844841847668677
