52
Energy = -484.91018228 eV
Mo 10.210365495321772 2.649954674942988 7.788564953051681
Mo 9.12666442708982 2.0709243745542874 5.306731514559369
Mo 10.61756433496157 3.3398725038080506 4.878229215608128
Mo 8.275194024482998 3.5373925282546335 3.2504612896049965
Mo 11.38090682594438 4.242745316121019 7.634972190995206
Mo 7.2343956277205095 2.35175257210545 7.506832121588271
Mo 6.473613231642291 3.218432206241607 5.194670902236237
Mo 5.110189394251404 2.3626508896512446 8.876431158308474
Mo 8.807530679412391 4.339863241493437 9.048119516317769
Mo 8.8340341976066 4.7217223886555555 6.405470619760917
Mo 5.836124826059353 4.4448014148373085 10.349567245579689
Mo 9.403800446370413 5.572928804850337 3.615689055752776
Mo 10.915246522027108 6.250077172655031 6.0338740298637665
Mo 5.671587148572161 4.035758090713908 2.7247629085789846
Mo 4.4008280801144775 2.6083282329650044 6.7983361086114185
Mo 6.949430977519087 5.642324551253878 4.776347484937111
Mo 7.263312335259355 5.791637802013122 1.9293135448508794
Mo 3.8635310805023155 5.62336856725188 10.978653298734942
Mo 9.65612010180476 6.668755520421789 8.139523396438934
Mo 6.428595755762586 4.600976810793056 7.718618557026402
Mo 4.480890622335127 5.325940709427903 6.010916008807894
Mo 7.4690716655783085 6.181743771567016 9.834854462065142
Mo 3.596398005115855 3.7854957554884865 4.269005809035655
Mo 2.028632327462875 2.783032554353995 7.942050503853748
Mo 7.274067448763767 7.0947828300697315 7.13441063283581
Mo 9.16575356175962 7.536047743416898 5.137180253562136
Mo 3.674720245160047 4.737159837909832 8.595445225025586
Mo 7.581230250922039 8.763029046205025 9.315141788321423
Mo 8.716197471219942 7.812186427079596 2.0766024713855513
Mo 4.7689172736878245 6.364511660257341 3.3561821895116726
Mo 9.026408371622567 9.029737200767611 7.3216313824758625
Mo 5.234427715532167 6.472197771241466 0.7746806124878499
Mo 5.033818156610148 7.08032832594661 8.603848636425091
Mo 5.558523608230141 7.543921162185007 11.139104483314048
Mo 3.0795541961301574 4.788039884137118 1.71805002108761
Mo 1.3707654863874124 5.571858775703645 8.950751750744637
Mo 1.8277597433931456 4.080679863004507 6.4689362258253205
Mo 6.9668367011714 8.101972106117685 3.585977415033729
Mo 5.139664159573491 7.911604120577916 5.820443122773864
Mo 7.167496719553936 9.762084589955188 5.662123991794342
Mo 6.649677717539074 8.301978396443701 0.7043505098624712
Mo 2.5575368781300214 7.2497561442770335 9.72335476743715
Mo 2.2743589562173967 5.910948034531508 4.217360955882816
Mo 6.051683183838117 9.741341109551465 7.780021588791818
Mo 5.052233356864822 9.343959458687358 10.117491729486257
Mo 2.5580405530400467 6.837516067333331 6.889482489568694
Mo 2.4803422612640427 6.689925514720641 1.7495806045116344
Mo 3.1787157004184863 8.253917933176856 4.4990524392642595
Mo 6.3136152243253205 10.488285268864763 2.9901741128997648
Mo 3.475837811046732 8.88935957275692 7.526321257919799
Mo 4.887970306238883 10.401184712035773 4.624803280352261
Mo 4.729565434102238 8.796426166197852 2.228155021950885
