51
Energy = -475.91373781 eV
Mo 3.658017376983667 5.960881823289964 0.19582889209695076
Mo 6.5870082319286185 6.119444203147162 0.7762764084904502
Mo 4.823493775971803 3.013318885463496 1.1109583719628702
Mo 2.714638748929277 7.113184085508443 1.7139437537492799
Mo 9.42447026994599 5.440417549611593 2.7393209507782386
Mo 7.157220951324794 3.8556013103411475 1.5889032862728132
Mo 5.288209615269735 7.843381997759444 1.5893549796166155
Mo 6.826375389097082 1.1583937016238957 2.366105445787848
Mo 2.271293854056595 4.125643932619358 1.8780300927802693
Mo 8.005397059735296 7.81767022414915 2.172943214993043
Mo 2.3222255974777175 5.4285731860901345 4.032866254285513
Mo 4.643610506660903 5.1102099055121055 2.3870289345933435
Mo 4.664241103741397 0.870331370753214 2.2467224522611122
Mo 3.929269778092143 9.390333482663145 3.1658891204326314
Mo 6.996445442814726 6.032861332572491 3.565813126296926
Mo 6.15828184861974 3.089877698020766 3.764044061579148
Mo 1.6875967323689682 8.085938784986427 4.61793186169701
Mo 1.6445274455738867 1.7823701652687272 2.848935188009173
Mo 8.580643745475648 8.290297251353703 4.541108142729789
Mo 4.334587572213021 7.311597962436572 4.087833047632958
Mo 0.6812386143342254 3.454495548254653 4.363069875941067
Mo 3.506363511737473 2.7119790812175872 3.9113648031020056
Mo 0.44279539323573924 6.917262144207452 3.499828304735632
Mo 5.273563920001381 0.6362523514346413 4.784656970187965
Mo 6.358639133617532 9.015059768641947 3.927101082644191
Mo 8.892046720015736 3.8419333678088057 3.747661548235151
Mo 5.228407676477332 2.69522896571298 6.493942806006563
Mo 0.7784978390628543 1.7823063423200334 5.935024551058401
Mo 7.643207576408576 1.4684355212732243 5.484115917606811
Mo 2.693036645161305 0.1687877400352681 4.676252069751448
Mo 6.534130981653548 9.57046743458089 6.597888651835416
Mo 6.3604554037826135 7.077482396167758 6.0508307330964675
Mo 9.078164915180654 6.088851426119103 5.594257445767627
Mo 2.5682223818648713 3.846756507765917 6.385342734689747
Mo 9.42447026994599 4.222645020264959 7.000012726878699
Mo 3.1381313986441386 1.1071091831876867 6.603856654979424
Mo 4.561660441163583 9.340049975465778 6.103191994533045
Mo 4.802527325869315 4.970009216107435 5.152011235073592
Mo 0.5985824160304246 5.936139826881798 6.252372615403791
Mo 7.325584426616599 4.320642446789793 6.102018107932122
Mo 8.593211444296506 2.8519205090298563 7.6447424425025
Mo 8.737081403891594 7.826074279498045 7.162235712532616
Mo 6.651238728385717 0.8612054247337104 7.295749529497945
Mo 1.7325699101297718 2.583332122532736 8.700844060309459
Mo 5.55317482418638 7.484738721955649 8.3720419093261
Mo 7.5633604198573705 5.9282750697158395 8.094403587360626
Mo 2.1666163023132134 5.1982565082224514 8.364687793967898
Mo 3.6772608785133682 2.7777437675576118 8.883241805190613
Mo 3.4111545082735395 6.785617859845983 6.608147490758579
Mo 4.822478397762203 5.196732638845486 7.894597012094248
Mo 6.815903106178226 3.2828384573425535 8.713628717642834
