51
Energy = -474.83744714 eV
Mo 1.5500254214789881 4.031931410118708 1.2082443978398931
Mo 4.138931667513364 5.008309557649109 0.714379579785875
Mo 4.591295167671074 7.615155297731494 2.0242143709032465
Mo 2.4413069403272583 6.4884808790601385 1.2102819668215907
Mo 6.218429658217748 5.810979467055591 1.6235933952541173
Mo 8.386002821425706 6.3799637655948995 2.798124656739435
Mo 5.906018403133257 3.242920743478053 2.2595679047565493
Mo 6.957943984907327 8.94922077149965 2.655019838495832
Mo 3.266712495541621 2.8473847535694397 2.3936797165369077
Mo 8.839805160565485 3.4421419144371135 2.671658687305991
Mo 1.2405653361004685 4.645784816868664 3.197919657043007
Mo 3.9152245042209604 9.073910311938851 3.99516388830038
Mo 4.023213188841781 5.225056455350873 3.3828586229759696
Mo 2.3037583180066825 7.151268671440543 3.6063982358133155
Mo 9.956101341680748 5.5386531917174695 4.25689422679549
Mo 8.399368308448649 8.695020912838746 4.000374151038661
Mo 8.984298559510274 3.5299683080267155 5.535596495898744
Mo 3.9174558721012156 7.272511244492688 5.859228661775279
Mo 8.033611214790483 1.9027645899345453 3.5608900599448763
Mo 6.806177080141877 4.443803271403137 4.127513856567571
Mo 1.881866149202066 5.471057615582169 5.77443255184087
Mo 5.16790199334264 2.064633669786576 4.293450278342746
Mo 6.125337514343411 9.349879367115577 5.424808662955013
Mo 5.953214213212515 7.020910009666617 4.242735014755808
Mo 2.987417613287309 3.1686626708300683 4.899573089005213
Mo 1.4389635011229964 8.44809697751821 6.016849508330837
Mo 8.132058485709962 6.382550174274734 5.667712753784374
Mo 7.978544092384422 9.120814355381702 7.182679013376405
Mo 6.72165875560838 2.497224833013187 6.255406283291198
Mo 7.4551927202010795 4.59265882235696 7.610284528438044
Mo 4.836195154311675 4.608647460708975 6.051061576618437
Mo 4.082277177393721 2.013456451840034 7.053003687460644
Mo 10.367430766987537 5.0393852136680355 7.128421430466585
Mo 4.108987100239541 9.73388188292052 6.70372947881243
Mo 2.524403502732872 3.322726711362776 7.608483948424156
Mo 6.110404436901811 7.249942686868908 7.294681660142084
Mo 9.954528805903486 7.697374017818908 6.442054544144202
Mo 1.0466497613547754 5.876561616235034 7.709235766445382
Mo 9.066105158662815 2.5055561520414757 8.060836433111746
Mo 1.9255488523848525 8.439105894895906 7.883296480752466
Mo 6.113281887105731 10.012220277494375 8.189780780708297
Mo 8.647231279472205 6.722643205636923 8.432622152942816
Mo 7.035657628508164 1.9693528482191427 8.774703320732025
Mo 5.111114001977749 3.7511236567005937 8.610031330035582
Mo 3.529262545455347 5.814044557942893 8.16441992980643
Mo 4.4985562665773 8.091134342369127 8.831161415145234
Mo 9.990829353878736 4.592674073594159 9.285991695414532
Mo 7.233280287698732 8.139149467366243 10.18172045547434
Mo 7.7125057827552155 4.163024427912221 10.12141689109252
Mo 5.956571762501115 5.914309122380306 9.670573977912005
Mo 8.179706754044973 6.680895852179252 11.102167739531666
