54
Energy = -504.65852936 eV
Mo 6.941476694689056 4.836652621646801 10.416756898872213
Mo 4.147835241131901 5.285016529161992 10.716692800113627
Mo 9.674952746295903 1.4868448096013644 9.047836461195164
Mo 8.015979897893182 2.0959116303717136 9.650704498915804
Mo 10.05402079852565 4.245723983165751 9.869511551570593
Mo 5.2227482624104775 2.9643699454850405 9.537198540606237
Mo 8.522596957725204 6.5128873689293165 10.12862299992422
Mo 6.095467674489021 7.259199412889035 9.07845315890008
Mo 9.955269797407 8.706382634047142 9.249428332394071
Mo 8.54454065146395 2.288454534193305 6.731280764816717
Mo 2.921822264246369 4.3204561075723795 9.50951837184987
Mo 7.8665167194718775 4.5427618666942085 8.19377010910195
Mo 10.784789769527276 3.964452482504338 8.010253888106776
Mo 5.949794135782251 2.0618032514032647 7.586656105445191
Mo 9.666888075212903 6.285525225047754 7.920070096135559
Mo 3.809007117341503 3.20618852251528 6.932476169009406
Mo 8.061288728568652 9.26421351190676 9.343324142682624
Mo 5.230047539747318 5.05917145318597 7.971904794265906
Mo 5.238203405129064 9.521380677364162 8.760976704650904
Mo 6.989113341988487 1.1182357553323383 5.1766276725144165
Mo 6.493373936282459 3.909829161648632 5.811021856271809
Mo 4.902706510626511 2.4809703832538514 4.63870001665328
Mo 7.268304452509204 6.678948086254622 6.459549620368078
Mo 9.30900511748572 4.391581086667783 5.724771969185539
Mo 9.21984171089359 8.799130095833055 6.8512068868821006
Mo 2.5351860495325895 5.5854187790508485 6.946460295514434
Mo 3.4400206435369696 7.186864435681907 9.014415338989927
Mo 2.1861327982467924 3.4306412415586873 4.816902106422258
Mo 2.844580400065174 9.38019421647557 8.183900198339956
Mo 7.852701246338641 2.9569575568807767 3.916731584630071
Mo 9.758207823159982 6.814040910705284 5.164259163097825
Mo 4.560280462243137 7.5344014934497086 6.769138353603656
Mo 4.449044278905932 5.381623610295076 4.983783828876468
Mo 9.726718396018542 4.990182994925339 2.851561563585989
Mo 7.400088629604347 5.815674728562084 4.056691043968215
Mo 1.8111988155897982 7.819792505246935 6.6076678578553105
Mo 6.82750844101608 9.257336497908106 6.698061779516577
Mo 5.74725029429762 4.182353042327932 2.806464669296459
Mo 8.353385865405764 8.569826622791078 4.349077618962231
Mo 1.9644787926034615 6.02871156915764 4.394562569974017
Mo 4.41241487953118 9.954682334853205 6.114192249184413
Mo 5.6776828641413974 7.821098377926814 4.19960705969374
Mo 3.00452297083167 3.761675453581466 3.006937869379583
Mo 8.246743877814291 4.5850468892705525 1.6079949800620197
Mo 1.9412517451843594 10.502201536037205 5.341933460783522
Mo 8.629956608233929 7.411861828286527 2.2673439951668732
Mo 3.1059903396874904 8.157224371671385 4.398780681069478
Mo 3.9289286872650284 6.3082797590719375 2.517500977474992
Mo 6.130736522195572 6.673187309512995 1.766303978390513
Mo 6.100937908074213 10.198486155467203 3.9827639787955427
Mo 2.9928438163617916 10.912033664766899 3.854468345358487
Mo 4.225256424613509 9.069635998861306 1.8805711381803412
Mo 6.956176003485327 9.123586255344096 1.8856020318657318
Mo 4.947820314389092 10.877367128053708 1.679884249446535
