50
Energy = -466.75917644 eV
Mo 9.925120809688652 2.3060354120128923 5.169760804455292
Mo 8.292725077442636 0.7746829407117255 6.620540949286101
Mo 9.44524943209509 3.334930308729491 7.4502920265241075
Mo 10.94745750981872 4.88852216874078 6.127479810086369
Mo 7.589317817576345 1.772885100275352 3.494537539879227
Mo 9.773293040192277 5.4810223767654955 8.733613330892931
Mo 9.568599234381004 4.302545262112678 3.981440671678267
Mo 7.14219884109533 1.741428962706745 7.877675158438788
Mo 7.59228900066967 3.290341002856099 5.563257983696934
Mo 5.891985715477987 1.212285843486961 5.144629329809828
Mo 7.006935488772257 4.675765347379357 8.038402434456051
Mo 10.867589719749562 6.924917144274515 7.311182323170695
Mo 10.271064464114735 7.047601664348751 4.335274944107956
Mo 8.563629859604399 5.751815692737512 6.10297409377066
Mo 7.284691608641001 3.975875473304587 2.8731901838650096
Mo 3.2877637965902293 2.9141087519927207 8.352479970830224
Mo 5.094903905125543 3.04140508833148 3.8035209227374454
Mo 4.995755898466408 3.944529883002973 9.5112746394046
Mo 5.016822259991866 3.135969004764741 6.708984737448081
Mo 8.45400350996368 7.578719516832188 8.340644860069801
Mo 7.973467956389498 6.484583175826291 3.4243713410455707
Mo 6.195900652503915 6.527027838733527 9.593366861532107
Mo 6.035358043411077 5.39920210911439 5.228887764367676
Mo 8.959276141770507 8.343082467282443 5.642762004712629
Mo 3.0750221735060475 2.487602165604712 5.301289217771828
Mo 4.192667871925699 5.542701715057435 7.65799576672554
Mo 8.471620914416253 9.12101476221977 2.7517590363327296
Mo 6.605958650482677 8.880568440990887 9.565262564076496
Mo 6.262179157537077 7.334533058359605 7.1059796392556605
Mo 3.5080949338691214 6.505156998792196 10.205929507679974
Mo 4.966915302014932 6.141865754362443 3.0259634509232014
Mo 2.1943205837682074 5.203851848352083 9.688185199477788
Mo 2.524047639860985 3.9569121286187716 2.797076940384967
Mo 7.0375673012355024 9.687305186399305 7.204079683855572
Mo 6.954936884522142 8.440190220046716 1.810945545760575
Mo 3.3927835607142653 4.9234757444033015 5.11336390350979
Mo 1.8043941570945519 4.566582714821258 6.947716854382376
Mo 6.4852027484012424 8.204485857549912 4.58965249765359
Mo 1.0376711060436152 3.9692391351144685 4.009899235433847
Mo 7.34495588609098 10.846344025205498 4.774218979803003
Mo 4.3622955728719255 8.483919058508313 8.211472095397257
Mo 2.195711483517184 7.167209486015781 7.756438342061854
Mo 3.961131256737866 7.50039249946835 5.52600393430537
Mo 4.396648737861754 8.318639452288332 2.8725889817389483
Mo 2.0641022681376007 6.8498163937423175 3.461222291639788
Mo 5.699544033904883 10.65542577118923 3.617649650214984
Mo 1.2045814155630525 6.738359921910869 5.226956161595576
Mo 4.871183381341586 9.926717085719469 5.954243711848448
Mo 2.085446816145498 9.435971573064315 6.343025934894369
Mo 2.6363618833682265 9.670221877646606 4.478670153197658
