53
Energy = -495.63189637 eV
Mo 9.225399562273312 3.5010753940737205 4.592724585872608
Mo 10.577654188672406 3.9726602071415518 7.158408323489868
Mo 10.013820240821941 5.833523139486449 4.090412047501068
Mo 9.869254519381176 7.393912736342615 6.3473392010843055
Mo 7.676956531697968 1.944056095680286 2.83744612881107
Mo 7.382442572544026 1.7530229105170407 5.042507254853923
Mo 9.43796035442197 5.905394723387713 8.800379073094254
Mo 9.238708997477461 2.457182795628957 7.09539143035189
Mo 9.697917013001394 8.487800185775011 3.609459424179195
Mo 8.483691876711891 5.389880330284807 6.380050646205164
Mo 8.380867492109571 4.863281841203834 2.523050881647959
Mo 9.156917238305242 7.660815123772162 1.9024612126575609
Mo 8.177187795754536 3.828845838139757 8.91215414449181
Mo 6.66532564002413 4.174475149423671 4.41761460180595
Mo 5.258221248391257 2.217895340239799 3.5014974524784432
Mo 9.27879441900993 8.424413871188758 8.642013356350668
Mo 5.8896645294649215 4.172777889965051 1.9315853879440772
Mo 6.9867276716510425 10.80510966147008 4.901761419054076
Mo 4.593629694013152 1.4232941881929186 6.031304324969828
Mo 6.342500619021389 6.671284650200984 1.7025274246597926
Mo 6.85610886083334 5.673358515409151 11.105535327571618
Mo 7.614598537375081 8.427657270988451 6.283570375587029
Mo 6.38304482030737 3.5620176379428004 7.1679245835948375
Mo 5.798507517108414 1.8493975905285527 8.666895667697162
Mo 7.0913822588496895 9.096851655588015 2.9350604882262026
Mo 7.575028104967191 6.83182961280426 4.136151290204725
Mo 7.122909535692181 6.5403238896596925 8.703798622942328
Mo 5.168075599622888 10.986207755769877 4.048961274544777
Mo 4.8352615287955025 6.130418576798322 3.6303897007355954
Mo 5.921877012012351 6.181238197228269 6.1887974194922535
Mo 7.31520075927511 9.495239720039493 8.483498850543961
Mo 5.680353625995447 4.2953731598516205 9.978718115527409
Mo 3.3699631330741666 4.041417055595271 2.4848981060439006
Mo 6.044859916846629 8.379851224730112 10.491088806474066
Mo 4.10389628425347 4.146659694696955 5.503863047157455
Mo 3.339770469812821 5.838569960578995 1.4913636612486367
Mo 5.179402941957124 8.551968205491795 4.925724424668456
Mo 5.268527729392311 10.500486443380224 7.023373822527326
Mo 4.854221875465878 8.636074742947537 2.3337243475315486
Mo 2.8955406070746763 2.1481545863029172 4.914890495380736
Mo 4.983386093373741 8.034750086039574 7.851658893613594
Mo 3.7868379422728142 2.6628673428684366 8.015105853915099
Mo 4.22349812089412 5.362277763393117 7.980324816248845
Mo 3.1661225634261374 6.893644509176093 6.027882913479997
Mo 2.685950890431302 7.617731637067899 3.504046960712958
Mo 4.392994730238821 6.723547643596645 10.346953344331771
Mo 4.285613647279255 9.53391694597027 9.642450578286361
Mo 2.0025062038751966 5.560855848780886 4.159790873923542
Mo 1.7315710147270003 4.4359167601550595 6.8553772456677144
Mo 3.374543939370054 9.606587649746647 6.410384270064759
Mo 2.1680936270435027 5.270359718083013 9.199900480903406
Mo 2.4574933744735925 7.531760684038181 8.77749459723903
Mo 0.9159322788472017 6.492026499658111 6.8303486416865455
