53
Energy = -495.0240867 eV
Mo 9.308610086151628 2.894662579280902 4.669955627048319
Mo 8.430911466554353 5.628050403620695 2.4893153678691147
Mo 6.672109107408487 5.6793188269215005 1.0778154660128454
Mo 10.021783599146275 4.057722112434083 6.5061664055418955
Mo 9.988074738585901 6.101084510821489 4.797611150659511
Mo 5.786452919369696 4.490823342411637 3.009400950455196
Mo 7.719455553745191 8.253142150630646 1.2278814172191128
Mo 7.641900573973906 2.605969920024193 6.68592569550642
Mo 6.636151590471918 2.07312821146777 4.040775628027484
Mo 10.482435063723255 8.834963668364873 5.761970655394921
Mo 6.374579480747875 1.0141080346064764 8.39931195889474
Mo 9.575510883931495 2.2328782270883796 8.190854404057296
Mo 9.00593756591395 8.200565976793655 3.6850337910707607
Mo 4.749909819658746 1.9565005771279527 3.6398055825845055
Mo 7.719417256811821 4.760279357483695 4.806232259327407
Mo 5.330673362182667 1.1084002494791243 6.62820631899605
Mo 10.152513375501975 6.662138121638667 7.240325446305398
Mo 9.832618748915376 4.7023977302834865 9.334986324481923
Mo 3.990799382993181 6.369061298632776 2.3896168362593126
Mo 5.723209988059783 8.406542207095873 1.3177470134441025
Mo 6.541217588771438 7.113760308942054 3.5019119028290353
Mo 7.783199492098191 5.250027529163419 7.589433070004362
Mo 7.970260587456724 7.314491708719089 5.914138063824161
Mo 5.109498222691598 3.7363400411481638 5.786394100115836
Mo 7.955501413342428 9.992617771106783 5.5648656950867865
Mo 6.592713630317314 9.71338533917033 3.466763507642713
Mo 9.115525698703804 6.820081358183109 9.548328179124864
Mo 3.0849609052838005 4.420174798699572 3.6362961081086844
Mo 5.583705466593722 3.524451560207618 8.380488518691319
Mo 9.197487541592869 9.241071569359484 7.590328106111102
Mo 2.9080872306815357 2.7425766646724803 5.563466354593259
Mo 3.9853818747359773 8.807153619874294 3.8420179036373963
Mo 5.645414258188401 8.572204999971824 5.7976051600561025
Mo 5.396932167245468 11.323315468986362 5.021845632290212
Mo 4.456801703980591 6.1550336590004235 5.036665045933526
Mo 7.941715940787927 3.2300640035913055 9.520376633669914
Mo 3.405476707966115 2.327992678466011 7.857359619647919
Mo 6.962033074793195 8.12293731923376 8.24604646481476
Mo 2.0619828486771627 7.127262527537009 3.5853567051003656
Mo 5.182129231627324 6.3986585995369465 7.630362993048716
Mo 6.818337672762855 5.766606511477181 9.966219787053822
Mo 7.285961510914124 8.742978207746567 10.93589417964214
Mo 1.670963741820149 5.501561014680297 5.265917591375099
Mo 3.58271484426716 10.170513966500911 5.859253647525221
Mo 6.2458739883541305 10.649654069767735 7.278587186812979
Mo 4.357626492712529 9.09257183031272 8.348456736936775
Mo 3.073606224173522 4.7398132179981864 7.462193182148112
Mo 6.559780995539041 10.236160785267447 10.088896599937334
Mo 4.368628626610326 5.12198105095325 9.788555664901319
Mo 2.8857445984734023 7.678634974641544 6.277776554282311
Mo 4.918721145925545 7.778910181013932 10.07082136442078
Mo 2.3600297572558757 7.055381974106161 8.95260399995247
Mo 0.9418749296275957 6.595215377091795 7.808179745771529
