55
Energy = -219.66218277 eV
Mo 6.229212412164269 6.229212412164269 6.229212412164269
Mo 6.229212412164269 8.048063261521648 8.62934980342764
Mo 6.229212412164269 8.048063261521648 3.829075020900899
Mo 6.229212412164269 4.4103615628069015 8.62934980342764
Mo 6.229212412164269 4.4103615628069015 3.829075020900899
Mo 8.048063261521648 8.62934980342764 6.229212412164269
Mo 4.4103615628069015 8.62934980342764 6.229212412164269
Mo 8.048063261521648 3.829075020900899 6.229212412164269
Mo 4.4103615628069015 3.829075020900899 6.229212412164269
Mo 8.62934980342764 6.229212412164269 8.048063261521648
Mo 8.62934980342764 6.229212412164269 4.4103615628069015
Mo 3.829075020900899 6.229212412164269 8.048063261521648
Mo 3.829075020900899 6.229212412164269 4.4103615628069015
Mo 1.0488433689055272 6.229212412164269 3.7497000832624123
Mo 6.229212412164269 8.708724741066115 11.409581455423005
Mo 6.229212412164269 8.708724741066115 1.0488433689055272
Mo 6.229212412164269 3.7497000832624123 11.409581455423005
Mo 6.229212412164269 3.7497000832624123 1.0488433689055272
Mo 8.708724741066115 11.409581455423005 6.229212412164269
Mo 3.7497000832624123 11.409581455423005 6.229212412164269
Mo 8.708724741066115 1.0488433689055272 6.229212412164269
Mo 3.7497000832624123 1.0488433689055272 6.229212412164269
Mo 11.409581455423005 6.229212412164269 8.708724741066115
Mo 11.409581455423005 6.229212412164269 3.7497000832624123
Mo 1.0488433689055272 6.229212412164269 8.708724741066115
Mo 6.229212412164269 11.677994222298391 6.229212412164269
Mo 6.229212412164269 0.7804306020301398 6.229212412164269
Mo 0.7804306020301398 6.229212412164269 6.229212412164269
Mo 11.677994222298391 6.229212412164269 6.229212412164269
Mo 6.229212412164269 6.229212412164269 0.7804306020301398
Mo 6.229212412164269 6.229212412164269 11.677994222298391
Mo 7.620926229314239 2.075936125655401 8.410735092947002
Mo 4.837498595014288 2.075936125655401 8.410735092947002
Mo 7.620926229314239 2.075936125655401 4.0476897313815385
Mo 4.837498595014288 2.075936125655401 4.0476897313815385
Mo 10.38248869867314 4.0476897313815385 4.837498595014288
Mo 10.38248869867314 4.0476897313815385 7.620926229314239
Mo 2.075936125655401 4.0476897313815385 4.837498595014288
Mo 2.075936125655401 4.0476897313815385 7.620926229314239
Mo 7.620926229314239 10.38248869867314 4.0476897313815385
Mo 7.620926229314239 10.38248869867314 8.410735092947002
Mo 4.837498595014288 10.38248869867314 4.0476897313815385
Mo 4.837498595014288 10.38248869867314 8.410735092947002
Mo 4.0476897313815385 7.620926229314239 2.075936125655401
Mo 8.410735092947002 7.620926229314239 2.075936125655401
Mo 4.0476897313815385 4.837498595014288 2.075936125655401
Mo 8.410735092947002 4.837498595014288 2.075936125655401
Mo 2.075936125655401 8.410735092947002 7.620926229314239
Mo 2.075936125655401 8.410735092947002 4.837498595014288
Mo 4.0476897313815385 4.837498595014288 10.38248869867314
Mo 8.410735092947002 4.837498595014288 10.38248869867314
Mo 8.410735092947002 7.620926229314239 10.38248869867314
Mo 4.0476897313815385 7.620926229314239 10.38248869867314
Mo 10.38248869867314 8.410735092947002 4.837498595014288
Mo 10.38248869867314 8.410735092947002 7.620926229314239
