53
Energy = -492.8883276 eV
Mo 9.4918935906881 8.960352253987011 10.083375716671886
Mo 6.6964711064368565 7.334926930228614 10.648551780459652
Mo 8.874370694379223 6.165865033580748 10.699280534350372
Mo 8.633244004606814 3.8512538179810565 10.76985008715409
Mo 3.8766571670872607 6.118210353325544 10.624276475972346
Mo 6.935077687431523 9.44560740736157 9.195575099125648
Mo 6.422200326295588 4.804691117058661 10.879412958437232
Mo 4.656398787850374 8.241273244891294 9.023825316582055
Mo 9.49062627957117 9.66189045038032 8.319282184829529
Mo 8.239380075354351 7.162832290391268 8.464282145637148
Mo 8.152221642372565 4.503485918296069 8.438288377920278
Mo 7.0389443055067265 10.65151692650419 6.9485214051787905
Mo 6.850901344687106 2.342353121060217 9.428835322225398
Mo 5.779436340552984 5.810709976810498 8.622626486219021
Mo 2.4227754359810563 6.848645909819441 9.444695330456263
Mo 4.823730485075459 10.725426988300876 7.831492091217897
Mo 3.1228973932928725 4.682890188696577 8.23783388132614
Mo 2.5634886507556303 9.005813880677954 7.39037732503162
Mo 6.198958077103979 8.253319786462404 6.8785326469840795
Mo 8.755336828315679 8.329331487179672 5.907327142894275
Mo 9.73526708954518 5.981519559330151 6.516300385037265
Mo 4.6871836809534955 3.2815911032644007 9.583600092653182
Mo 9.247921597513171 10.96294595013797 5.254815401104427
Mo 3.7645243980693937 6.599142713546068 6.813261051569744
Mo 9.59340937542968 3.5843285000254044 6.459911600663264
Mo 5.026391134236307 0.7676943854857158 8.378320296523817
Mo 2.32720026321269 8.713365001415351 5.505622930105845
Mo 9.348797861678646 9.932778681704939 3.6827680764960165
Mo 7.266733224117141 5.754166535800062 6.053309955543121
Mo 7.646158918766444 2.120779163510042 7.026218563657707
Mo 6.8058141634600595 9.807049456648516 4.359273617662988
Mo 10.146810859997686 7.0630863587450134 4.108654754260405
Mo 5.582603902714673 3.60652606419976 7.027187807213775
Mo 4.527613431112004 10.222838798748938 5.596275324667783
Mo 4.886906161148414 7.805564550946777 4.6521150438764804
Mo 7.499200065567951 7.177686763050769 3.7740291524305762
Mo 2.6312151060850595 6.020622365155199 4.492049594814595
Mo 8.997705326154076 4.888903955870383 4.18234820148501
Mo 3.536977930426304 1.8945452900797515 7.368089767171921
Mo 9.728865974332036 7.900012335696623 1.7854851561462817
Mo 5.3301320503551075 5.13407060525037 4.469495260644598
Mo 2.950032772403983 4.1102649318698905 5.739791620875879
Mo 5.776918885902845 0.9590551357123958 5.929374074225599
Mo 7.184372192202223 3.1560360763242925 4.713227499336749
Mo 3.3466273921533523 7.880426579582917 2.7949520011337086
Mo 7.043096007122035 8.701252562801761 1.775570052437298
Mo 5.149571376559502 9.715695455802901 2.485735092879219
Mo 9.043768660823611 6.1125680607222685 1.5670485433599883
Mo 4.448423319903394 2.378980193540375 4.704131897576567
Mo 3.9574439007515747 4.716399126460984 2.618568667577468
Mo 6.901118687177124 4.707822135210442 2.396139013880543
Mo 5.291386949010566 6.792200796754452 2.039726268928226
Mo 5.733606529514889 2.7540808400177204 2.62792634459134
