50
Energy = -465.52045407 eV
Mo 1.804837747279135 2.614995720261653 6.683650996024183
Mo 2.567462051939694 4.14601239737347 4.931468298050793
Mo 1.7882504573157503 4.937974849702291 7.726429011441503
Mo 3.828746674425318 1.772481318023366 6.107522854910302
Mo 3.2939790265537194 2.380820897649078 8.89785781070024
Mo 3.804631611496001 6.030792927332608 3.7305604727909043
Mo 2.403605244263408 7.2941119867208934 8.692409947966098
Mo 3.0133164294086554 6.556641066791958 6.128464940194114
Mo 4.800864327897509 3.472864549992232 4.373202592053768
Mo 5.229865028874213 1.7064521133234642 8.440012939150733
Mo 4.161469715904168 4.134960311970259 7.1257443176522886
Mo 3.4175661811505162 5.336567828136766 9.642976726227472
Mo 5.558943427518682 7.537275929470643 3.047053295207638
Mo 6.431139620109447 5.175721659475396 2.316557104576249
Mo 3.0450027891988527 10.16597830498667 8.499803883730358
Mo 2.5868664408057165 9.354319517499759 6.7906012861265035
Mo 6.626010107297579 3.208862540010578 6.546981265145314
Mo 4.714930844618072 8.39214648086695 5.354733520054218
Mo 5.71957799449427 3.95918777819153 9.351332611005505
Mo 5.750322646912342 5.713437390450604 5.305465855360857
Mo 4.32404895361277 8.176126865841619 9.998268496327205
Mo 4.986317155674963 6.659158705207259 7.855581145744629
Mo 7.239619247394409 7.6111354969654625 0.710847853676161
Mo 8.221343871536767 2.957481636783845 9.102824075355677
Mo 6.890216115851146 9.318458044907185 1.3237471134486223
Mo 7.289995765403442 5.374417677726945 7.946109358325081
Mo 5.123301343518175 11.15135871932422 5.428830670739576
Mo 7.410555928693509 3.866036517574148 4.091196620323728
Mo 5.657776386441186 6.374423726715764 10.482558728683724
Mo 6.987775929311626 9.337048189470892 4.18001638423277
Mo 8.719333002750563 5.4724347457411895 2.048664693091263
Mo 7.213734653567164 7.948436812699224 6.556730233754861
Mo 5.304893555116019 9.406696617427826 7.702183365323502
Mo 7.891547382111129 6.721658517238373 4.135705862542017
Mo 8.205269598986733 4.601199474951475 10.378300065932914
Mo 9.07823171304884 8.279740479774281 2.711359304841083
Mo 9.264260685088308 6.24331283262817 6.422646199586383
Mo 9.04441037716646 3.5558411794935085 6.470587021230851
Mo 10.24550202843905 4.5835381387408205 8.389887086206633
Mo 7.183001309551027 7.995690852779278 9.222171648719367
Mo 7.897089649225882 10.68315724841679 6.160298078745773
Mo 5.5508463675493855 11.91148951680213 7.126743829803322
Mo 9.768168362237205 4.6040255928589495 4.194062076601861
Mo 9.555811431323045 8.865224133968464 5.088397770480659
Mo 9.359269341504218 6.748329614569328 9.242132342427361
Mo 11.873615934658924 5.003382709658897 6.491301306969215
Mo 10.786817226960492 6.844806190612529 4.468026637635731
Mo 9.482369566107666 8.710732836184254 7.652818456307848
Mo 11.714624250893106 6.883373154953113 7.122937491419414
Mo 7.785132961531391 10.34777660289397 8.415683472639934
