54
Energy = -504.93823713 eV
Mo 7.154785644868043 2.0160184030251997 2.998016584304874
Mo 5.756134528315141 0.9975910100438521 5.096640430357549
Mo 4.186139283532249 1.6409426439729355 2.991479713756706
Mo 8.051820320705382 2.034604632547362 5.82178670170022
Mo 5.2005776980985425 2.780987892762219 1.6681978754686793
Mo 7.3087766233658895 0.850450765116439 7.554563691439523
Mo 7.826364073066464 4.432190156528139 2.183593726864654
Mo 8.866026779955813 4.127334324082227 4.028981399503449
Mo 4.511276589780751 0.7448014204802869 6.914792373015091
Mo 10.53339847973044 4.205326972983865 6.369854725547804
Mo 11.1989378250175 5.355812648361635 4.9111275458117865
Mo 5.952625729912979 3.626376467854569 4.324465391697578
Mo 3.4880946084686464 2.65937014307121 5.641681890332326
Mo 8.427766246839735 2.9582077822215918 8.37045042124375
Mo 5.7244978156822866 2.892321705412228 7.517043860352727
Mo 5.291252078690181 5.656564169880099 2.2056559465624113
Mo 3.60486537274003 4.394239986304046 3.434611454215274
Mo 6.574443528557469 3.117952142763407 9.994251859732838
Mo 9.33525004409619 6.85479030582993 3.1908383738870447
Mo 7.320059872870016 7.521183460722649 2.090420142890849
Mo 11.28836976109557 7.205046694551205 7.310654097731542
Mo 7.507673407130625 4.606655746722106 6.495434028750672
Mo 6.945618349926382 6.177573409634006 4.191626976293335
Mo 9.037189882808036 6.607698116615597 5.962476018360452
Mo 9.33803239354292 5.339151201439985 8.48160641884576
Mo 4.38814398708832 7.940122650970579 2.0420971004405186
Mo 11.24306853228868 8.166118118525372 5.664441340213809
Mo 6.471822156293724 5.806720409216429 8.679524265280644
Mo 2.8013381987744217 3.250762017071858 7.78957134185619
Mo 4.7683968962022965 4.960107712303401 6.29742621132985
Mo 8.611460275269245 8.768210513963032 4.366548486158836
Mo 2.527824686827918 6.734503454096064 2.735613178510911
Mo 8.374271082890614 7.547214981280447 8.641094184422052
Mo 4.368215196064921 6.80525890581336 4.564708352743296
Mo 7.767840484033818 4.7831733867139326 10.528341311651502
Mo 2.105619703262042 5.114476448744786 5.511872198487106
Mo 6.037102957703692 8.85840662876179 3.96852620153585
Mo 6.595409122710687 7.5657027911990555 6.378809977343547
Mo 4.150501436688851 4.768057252545834 9.029045751793266
Mo 9.035659355039867 9.18834306861952 7.074421937761955
Mo 4.121450023878797 7.141454244038926 7.618077838370993
Mo 4.95372067107136 7.283905631944432 10.34558420488718
Mo 3.0870747760057253 9.3616305040957 3.8784060969708203
Mo 2.059825836647394 7.745904844137572 5.217310127711029
Mo 1.9074288398074564 5.75942272475562 7.557350819631713
Mo 4.317178845613084 9.179021277409792 6.144594768835909
Mo 7.099582614761816 10.229641910127082 6.138345867175369
Mo 4.835180674713198 11.58650642184402 5.33566073039637
Mo 6.24298368562794 8.973595716732342 8.395985991849557
Mo 2.980981223861747 7.16342801016499 10.088406075525256
Mo 1.612376604927489 8.785375335274164 7.637606466360153
Mo 3.825935760521819 9.458698366728605 8.78359955361361
Mo 2.05741235599664 10.40597507080202 6.566992799988632
Mo 4.847574375552398 11.621898284299547 7.247857225689977
