52
Energy = -484.35514297 eV
Mo 9.420613148673038 8.36955619522535 6.989327105606199
Mo 7.948971956610164 9.985639544026043 8.618251834423017
Mo 9.771293198490572 5.101032406043714 6.816561542219819
Mo 9.165518885223243 6.438972595754376 9.134966988246001
Mo 8.86366573319454 10.51749612633063 6.401960835300009
Mo 9.920656622289258 8.507612463811808 4.3927753801706215
Mo 9.108121384851405 4.6021850368315045 9.72960395235265
Mo 6.128206491228039 10.216568354053473 7.257132907624153
Mo 7.003469049917929 7.620878894011575 7.801519753678652
Mo 8.143385916389697 6.520999186872773 5.3029675400468985
Mo 5.624814782858961 8.248587905333274 9.72955214621905
Mo 8.75573778538677 10.211858696559649 3.7250077394217107
Mo 9.858923300705825 5.5477482019268916 3.8260892642998674
Mo 6.30254397365001 11.451162236869903 4.678080699365112
Mo 8.847205500153697 2.5997467479607024 7.546250422490279
Mo 8.082580336263318 7.829131690495888 2.7255199037148032
Mo 6.485823807445364 5.52590487484432 9.964553090731691
Mo 7.128060182952518 8.9452900266029 5.236315311853946
Mo 4.254406476947165 8.5889735789367 8.059009254068734
Mo 6.834476989411677 2.997094716519997 9.149585140900658
Mo 5.72586543970595 7.449158335877748 3.3335291898949237
Mo 8.764327921604398 3.76698434714493 5.015662771963199
Mo 7.377202470120187 4.875648804930129 7.428460143351339
Mo 5.610244391508726 10.23954427945842 3.2615714771052904
Mo 7.5699536617874035 5.330451720454723 2.846470560243321
Mo 5.170428383283382 7.0137581562488265 5.77339240283149
Mo 6.10176343283474 4.69405413173591 5.174533384509302
Mo 5.617114640163007 6.437747577748898 0.9075648493869635
Mo 4.826518113256415 5.8833814935820214 8.016244087461768
Mo 5.353865104631771 0.7777138421734671 8.364368567939025
Mo 6.958883800958451 2.1256093164320573 6.343826090616286
Mo 3.3638921693133748 6.450412582666752 9.701184853205822
Mo 4.350241817189811 9.351086248208775 5.254310655028267
Mo 6.615948434083158 2.8086815284197066 3.4207313685561345
Mo 6.127576926947327 3.6822960700676832 1.3525722653556405
Mo 4.838129166775224 3.287980120933391 7.401391881302185
Mo 4.608459079818416 4.016965748712273 9.95481270407915
Mo 3.7742329546260427 6.838393815073973 1.3249751483371965
Mo 2.2858180246533197 7.144231844072308 6.716528953605133
Mo 4.606731857064177 4.868294649445523 3.097574695802067
Mo 3.1129702616747728 7.3926592525048305 4.07525801004037
Mo 3.3486545591219827 4.882533355482243 5.573976078227416
Mo 2.7123726829443844 2.2664555568531997 8.639150997482176
Mo 2.3401428550582866 4.736246624757203 8.12251717675043
Mo 4.443437991468601 2.4166805055825478 4.741882901041525
Mo 4.418338950618124 0.5083093603278707 6.753539203351846
Mo 3.179218539002482 3.7760572617796115 1.1605583996540465
Mo 3.947598022255172 2.240022527049558 2.0804548960990585
Mo 1.933921147037827 5.40328658687917 3.0966179092989212
Mo 2.235617347003709 2.475877950133736 6.656132225601071
Mo 1.0472298385116463 5.91493670378755 5.696760627325727
Mo 2.09396408859933 3.3232415339444517 3.890476883036194
