50
Energy = -464.10760974 eV
Mo 3.6947864284205485 6.163953169361155 9.137644710375486
Mo 3.0948923853268413 3.812867056038562 7.619015941998478
Mo 4.498502707098086 2.7874103296584347 5.811850250115432
Mo 3.8380354661617138 8.495796871141694 7.573599428103485
Mo 3.976274639292937 5.953575875876154 2.1443132180505824
Mo 1.7491644398151822 6.567934955610174 3.9752814023798626
Mo 4.3569029890505515 3.973238734845399 9.742299652538303
Mo 5.98146582898491 2.7107883086696627 3.717827337736923
Mo 5.94771650445334 2.533003464072095 7.670407858969948
Mo 5.261693147650273 4.114434183979834 1.2195394846541212
Mo 3.9977407956591002 8.560895589344415 10.707179471352763
Mo 5.697195790151593 7.63758399856604 3.0202727288351294
Mo 5.958760227115781 7.534564453848719 8.88773694912113
Mo 5.542962107870201 10.156783950182533 8.763460633453057
Mo 8.709305073791704 1.8912255347250337 3.2877264712400214
Mo 7.970705729861237 2.955770004349863 1.9620406369563048
Mo 7.028841011143584 4.5322217076977385 5.462286856860985
Mo 6.6905944339941374 5.312967401795492 3.0178433123478934
Mo 4.972149050082693 10.06082832124678 3.20027226902656
Mo 4.334481101994063 5.221461975022246 4.486058274951996
Mo 9.300083641850593 9.285410136946664 5.134875843359738
Mo 11.381144416787665 8.618914347719935 6.20325533508846
Mo 9.530966282914747 3.7266009972776653 5.496685675752639
Mo 3.786888205396311 3.2318387242426017 2.753000040861857
Mo 9.344844595902815 4.727141176869864 3.7578523310614145
Mo 1.6474212245757573 4.801540955202776 2.985424253101597
Mo 7.998475155041061 7.239861356267683 4.584435974179048
Mo 7.347564505341272 2.0186009836918144 5.707074976444625
Mo 8.13833532468311 6.2555211190414015 7.310825183904785
Mo 10.831563782831807 7.647845854565535 8.151943212069822
Mo 2.1773967195821338 4.113986144064057 5.358920620917512
Mo 5.688150335164558 7.311309756490297 5.942764713278097
Mo 6.761118382609462 9.849205850566307 4.200827547677643
Mo 8.063155996986943 3.808937590201419 8.037307424890999
Mo 10.147330923038924 6.5662589113887355 5.697557677167474
Mo 10.506389027500418 4.916675744697064 8.059418829324537
Mo 6.752139606979018 11.385348363640533 7.294913893633292
Mo 7.492876919467455 9.033284068717991 6.890742119071747
Mo 5.32657395881618 5.111151278231693 7.36038751665953
Mo 3.6952764473738924 8.191042192365837 4.608314652749838
Mo 4.885007071433942 9.99592093926917 6.0078875710985535
Mo 9.688560246117579 10.16891735043897 7.735926668672712
Mo 9.543300895448107 5.590199815333416 9.683083964514974
Mo 6.603573768363829 5.162623252023802 9.618938628432216
Mo 6.607959863064275 9.067886032501308 11.048376553590982
Mo 2.8937273848633165 6.304731710696206 6.458889488432982
Mo 7.550714194533119 7.150410149297325 11.299496460153996
Mo 8.576842395351367 8.159191976783195 9.19407086683732
Mo 8.290621977385253 10.70887290711431 9.331144974514038
Mo 4.753688973202263 6.859464032526843 11.408085165727181
