53
Energy = -495.12578478 eV
Mo 9.916988606801281 6.089496529387908 5.049835841379905
Mo 9.602173014878408 4.659380653612941 2.834456355963542
Mo 11.077590306747117 4.141106729314961 6.847399571714613
Mo 10.093008353264256 3.2416427194575523 5.343941193478335
Mo 9.33376529588767 8.50268124441109 5.917451682822401
Mo 7.369014906294328 3.979456102216871 1.6939456944053763
Mo 9.07198778764697 2.569043157394801 7.988673858986758
Mo 10.17487079056997 6.475121975792712 7.742672153596369
Mo 9.360193763578293 4.629046601496102 9.428990888746139
Mo 10.223840204561322 9.035083224236342 8.52644241114474
Mo 7.6716009268387575 4.4839900305169 4.420569389127768
Mo 10.158070291617207 7.837672092212732 3.3532491012278687
Mo 7.71774779895288 2.200625920569589 5.885729508732544
Mo 8.843350874659555 7.11508448070143 10.272096896148122
Mo 7.215900710373773 7.043708204851122 5.215784577607547
Mo 7.4367766452763835 3.0858537651326783 9.798678843342053
Mo 8.299216889618663 4.854378214305702 6.985028795768914
Mo 7.468906323232434 2.3214459522322444 2.8971128058903854
Mo 8.256216859775872 6.68202100411469 2.737571892813559
Mo 7.806523241820079 7.526464468545899 7.796896573746771
Mo 4.894093628756665 3.309510257627194 2.6658950731812663
Mo 6.224931776705891 2.9680803121209625 7.762194546101964
Mo 6.732696987764021 5.492158529523446 9.1313355588967
Mo 7.390855514804709 6.008534233121807 11.4815960547447
Mo 8.183022795199541 9.36818762652738 3.8681613310978973
Mo 8.527047235872853 9.86596157233118 8.803341834763417
Mo 5.499292266919698 5.315610797351758 6.365498123235271
Mo 4.553524092834194 6.332851680693771 10.732201197803521
Mo 5.682221674599431 10.030473787688072 8.443200766118318
Mo 6.566561524562179 8.229071508854187 10.227997813607686
Mo 4.3062286476776555 4.256567205737314 8.800110027216727
Mo 5.397943665864845 3.1243402022936717 4.986568666451232
Mo 6.339355264254673 9.356574355632537 6.091776618340152
Mo 3.467766145934645 3.228093276339067 6.8577267246522595
Mo 4.9274703679855465 7.292074119497403 8.09868386558674
Mo 5.573260324178895 5.6050953280782245 3.2210765777726267
Mo 6.011755526051419 8.428846932438393 3.2582220331150986
Mo 6.237621675078911 11.094617019014663 4.290646263899174
Mo 4.287902297782868 7.688230619898101 5.41763911256537
Mo 2.3590330212247403 2.7318707421563584 4.298898847141201
Mo 3.438598357684974 5.10287312087571 4.531585918896166
Mo 3.467481206948528 9.964560111241932 6.7449510995091595
Mo 2.859573133142389 6.492879753602816 9.780745158233726
Mo 4.135031671135767 9.077329385555757 9.651104305818372
Mo 2.8259072389285205 5.655704882153775 7.135095342639742
Mo 2.680247642685493 4.71602857108149 1.8363525726483647
Mo 4.363076075396911 10.065833471047096 4.068350493302162
Mo 1.1602667787839167 3.911280255698589 5.252806782544224
Mo 3.5170551578596183 7.315066331330537 3.0769228337748573
Mo 2.418398944645768 8.388795047488324 7.514580293347169
Mo 1.4760673867528105 6.930920623265037 5.239242113748595
Mo 1.8516019941853883 8.829182366540218 4.570139708864189
Mo 1.3141103302917534 5.62196969161676 2.6705991437482077
