54
Energy = -501.72146411 eV
Mo 7.412708211597426 5.402080953921052 10.614329993953051
Mo 6.9957302542037425 13.91334673159246 7.1655868905825875
Mo 9.460961809555714 1.7930509148384406 6.97551448619751
Mo 10.917264087974331 10.81303024672102 8.35208568147938
Mo 9.503213220385652 6.099006547280941 8.48774783405972
Mo 9.325133611207859 7.98261514488616 4.489854129801345
Mo 12.106419246584169 8.997522850344629 5.015827549770813
Mo 8.617942866761544 5.565743555483572 3.9828931379336865
Mo 8.047622658200595 3.4895658346150955 8.621934311922944
Mo 4.19605009094143 10.130735923345432 9.11514120108944
Mo 3.7832173400179334 5.328081852404093 6.610389320949277
Mo 11.002236255820142 7.5171195365779795 6.5500567707084
Mo 8.686344527658182 4.415101798413757 6.298950079815042
Mo 10.167826773159845 10.245607642342149 5.592028373836668
Mo 6.9197505746530625 8.478705521471687 12.414485864989018
Mo 4.522163166256501 5.034877660528096 9.642591027703148
Mo 5.4214294055510255 5.781135543653993 11.966155576545749
Mo 5.60292078667841 11.415967886115462 4.516452367553873
Mo 12.197408120950893 6.367980221231754 9.129903384559059
Mo 6.306103110633626 8.995702335367977 8.111928408495022
Mo 4.446943611112016 8.795943951595126 4.069277082312869
Mo 10.769966438943007 8.611670996315498 9.362524985638222
Mo 5.877044110233866 3.2733361550926983 9.987384331947895
Mo 3.851447615491539 7.577546435017397 8.133725701137575
Mo 5.427482749468419 7.565651920244785 10.495141740957779
Mo 4.538211174406843 10.05008254922013 6.479436332134058
Mo 8.060438435600535 6.896351935491027 6.400265806063524
Mo 7.476138409990615 13.198266912622609 5.182814146955608
Mo 9.072625388722049 9.095572243565654 7.404500573589812
Mo 10.134620798524628 6.626533237260433 11.06268835477674
Mo 6.287357304245005 4.83721497641748 5.3518872986752255
Mo 5.444387226041636 7.452211944388522 6.024586063698297
Mo 6.395457968196218 10.222824666255995 10.706363241957373
Mo 9.85579666964516 3.8537236663002767 10.251672171840843
Mo 8.279268545097352 6.473154603447679 12.615575703725181
Mo 9.100154706481085 9.140668990709452 11.566733167181491
Mo 7.177334384463975 9.16757395970433 4.964955896914056
Mo 3.874720237414001 5.792044233466506 4.63330452613483
Mo 7.30483364318431 11.099757540345797 6.687998335319452
Mo 2.822360450710043 8.045902551958367 6.21392071613976
Mo 7.933105873410716 7.898341929558397 9.829405194258683
Mo 6.385979396374994 5.816191778517546 8.157837445387893
Mo 6.048628796309548 9.751975689911934 2.82532293186768
Mo 12.870314128248149 8.798251829666187 7.728617553273715
Mo 9.325884446031134 12.270687669035155 7.184541784404732
Mo 12.052780720436862 4.897751871898582 10.646700088162872
Mo 5.715564669059062 11.810876477679644 8.748831280939429
Mo 10.843167304704767 4.1297902547314145 8.169171604347582
Mo 5.702337307196036 3.4521632041046373 7.530560148758277
Mo 8.404194294354339 10.663975181957932 9.461994956134642
Mo 6.760876900377946 6.802623446375259 3.6993061756882977
Mo 7.754546874698278 1.8780353887421368 6.303966104721363
Mo 12.723926181856676 10.711587898215814 6.658573544535069
Mo 5.061281372890197 12.811491816438851 6.574455665415189
