51
Energy = -474.29833343 eV
Mo 3.32378147780268 5.007812300967044 1.2687480576644157
Mo 4.894468828572993 7.053109245762575 0.13893201478782036
Mo 6.317166852594419 4.517419766479544 1.0552836649387725
Mo 2.424986210511971 6.6982634839713615 2.0235363762525655
Mo 2.893823766733235 5.270567233991117 4.028362975033589
Mo 4.4653633621127575 3.617706250907042 3.24817609026395
Mo 4.610190953923194 8.660256226423995 1.4819624743906108
Mo 5.128734704750025 6.37515690742927 2.8590903527309615
Mo 1.2528305615637265 7.342804525485839 5.0354977922825945
Mo 7.03096973940057 7.1541796646057785 1.0862271900570055
Mo 3.282649460234749 8.26854245506627 3.9758304692122306
Mo 6.676344215472951 2.2223611651882984 2.844815327178223
Mo 5.358747186412619 2.368924774154202 5.425276126837421
Mo 7.590238616182182 1.4015043729474164 4.82012216070727
Mo 4.998219445278233 5.000316043160156 5.736859258870184
Mo 8.158060731135434 4.285845973210998 1.469954598137362
Mo 1.9196999181038186 9.309663612735621 6.060690599480206
Mo 2.7360327696694995 4.322071676050611 7.207906664021085
Mo 5.6182970910573165 7.639463876451142 5.080842358241694
Mo 4.960317020873539 10.401204130535307 4.317951898736165
Mo 6.8927352412275935 4.600153030777532 3.9267859876251183
Mo 6.654672877488294 8.8430388628435 3.100405277005431
Mo 1.0050853054073074 7.0235136793953155 7.874419588846139
Mo 8.138675715827109 6.726609608938987 3.4947116560652067
Mo 3.206849178267949 6.8337265561026115 6.402134582681022
Mo 9.118519993789272 3.2405430454835513 4.069810092837985
Mo 4.338926056267136 9.197827127466441 6.7154350097620945
Mo 7.552465956994782 6.318224456301576 6.30022333372209
Mo 2.3655463439708857 8.435086925305686 8.584450666733295
Mo 6.603023832923595 10.50171625285916 5.470879820169393
Mo 8.497577614837876 8.424343020087521 5.069370633788255
Mo 2.9735506058770302 5.619808423726008 8.911624597985613
Mo 7.592208077248892 3.531104830027056 6.361747648589463
Mo 5.111808915163478 3.811856507145363 8.01706516656202
Mo 5.369994955064915 6.767895429355147 8.10391599312658
Mo 9.664380121589721 5.394006777974206 5.3357414637685805
Mo 5.922315972776656 1.5540267171832585 7.542499961872664
Mo 4.969275041703092 9.42592174542495 9.404737883772981
Mo 10.255540136800017 2.537797757186961 6.065433330408996
Mo 7.027785745995858 8.703431816240466 7.43390570947577
Mo 9.313052442615376 7.219026341090125 7.913156753317026
Mo 4.370639520102131 7.873314394327012 10.446598295729403
Mo 5.410007645855288 5.162653742345397 10.64266894465254
Mo 7.431261261962155 5.1890976475890085 8.689839413980343
Mo 8.658949524819178 1.88675995120255 7.659067448717896
Mo 7.115116917010866 7.694177592038355 9.81864081450712
Mo 7.045290350318001 2.718735021179107 9.946782546826753
Mo 9.845947453563497 4.568264693194781 7.5704948711130315
Mo 9.214163930703391 6.427664449103665 9.984402662721212
Mo 7.115500799221832 5.210701463001766 11.472352900792792
Mo 8.890335031155747 3.2654592841761167 10.044472763533673
