54
Energy = -504.65937804 eV
Mo 11.336752725410166 9.062661122928755 4.992018851623178
Mo 10.403468799687879 6.834980263759783 6.704324786410004
Mo 10.001160409862305 8.917453910576592 7.491367732282921
Mo 9.11348663802036 6.767283914397064 9.272637603841218
Mo 9.136921834946865 4.271126815372274 7.9559592557689705
Mo 10.479362064913945 10.685908660649494 5.361495944022125
Mo 9.674735713720143 6.967257456814736 3.8664225009806588
Mo 8.955309494087679 5.053966269691651 5.194078075387704
Mo 8.713125036597047 2.6661398772223674 6.261776358718107
Mo 8.955629963353978 9.594778411622013 3.0419111665501717
Mo 8.52675580089187 8.597070324510106 5.3198391355979915
Mo 7.222729489943637 2.5271538092184493 1.949717549016174
Mo 7.935583122616754 6.82758522717121 7.256734466535537
Mo 7.537444995774501 2.936541202915189 8.993966552987612
Mo 7.9260101115055415 10.99710858266502 6.960386761956383
Mo 7.513446138995072 8.885853633717693 8.86360401001699
Mo 6.9600802052760296 5.3584063351868885 9.446990233548915
Mo 6.427281611517273 0.7030934578606922 4.694845875680635
Mo 7.769575575382982 7.945827654233535 2.3545838972008117
Mo 7.595765695521195 5.196537281754357 2.8300770944712625
Mo 6.611890369888181 4.442572103973286 6.7915945522842875
Mo 7.5074775916051 11.1995458373118 5.079097571758681
Mo 6.739866597172022 6.593189501550527 4.834756699900136
Mo 6.460285753985758 1.6300488297839357 6.962263841586121
Mo 6.96439666063676 3.33310104026195 4.354554500774295
Mo 6.310150796459809 7.767458093985754 10.553328828466128
Mo 6.105339527176323 9.168311453408934 6.504107255031772
Mo 6.123589370824909 9.259518006444091 3.765764905425015
Mo 4.338130620126318 7.643505717147622 5.189365354146547
Mo 4.854310262249116 4.899733881975449 3.988451288560191
Mo 5.641594925948827 3.73741459194216 1.5769542015435225
Mo 4.224203947029138 1.1096433236483692 7.819187592138538
Mo 4.883022997304559 3.5865355433093735 8.51419528541952
Mo 4.498009263162113 5.498111230526201 10.265652567128901
Mo 5.367075938056239 6.9578342186843 8.049434983781534
Mo 4.761636727999335 1.9327318027624378 3.271162410454907
Mo 4.281664293807672 2.701304948272722 5.626953679314452
Mo 5.0182776774879825 9.738107495609917 8.753722731157223
Mo 3.799993949257094 8.734115701713948 2.726503887442158
Mo 4.519633216750717 0.012461552181204597 5.697885525999348
Mo 2.537865229692133 3.6592976501814944 7.812884899975154
Mo 5.0495878539427315 7.055453554382258 2.41809944969035
Mo 3.7401326469184175 10.34401002458634 5.4120320935945925
Mo 4.037074777191234 8.151951894410427 10.174552094453869
Mo 4.017832736015987 5.36726864356115 6.387761862190952
Mo 2.7845907718046434 3.6366834285366374 3.1602644985902004
Mo 2.8210263131684 5.995023354227786 8.677958691247964
Mo 1.864080807942317 1.3223877326713056 6.267989692295742
Mo 2.2132425934276942 1.1706173470827894 4.3842660960465585
Mo 3.275692138011626 8.52110422635151 7.446719561180033
Mo 1.9202392208826131 3.9047236989972465 5.292602275090459
Mo 2.1693462028672825 9.326449771675938 4.965398195262187
Mo 2.6914961173989522 6.342589665726645 3.855338093171602
Mo 1.8799789264693798 6.618096677221635 6.253409573877719
