50
Energy = -465.44020315 eV
Mo 10.37988865163967 4.190109843823312 3.397409167125657
Mo 8.147114625145926 4.113994139442395 1.596878812955769
Mo 9.131949937397213 2.958672779104446 4.143845057375069
Mo 9.310605946144966 6.672241686287784 1.7035826103611573
Mo 9.591827604873783 4.996379464600656 6.1382477656728325
Mo 10.248154743937617 6.932974539775266 4.285453235862313
Mo 7.746537696942505 2.368207605010211 7.825588141799196
Mo 9.545055293764602 7.218393529811536 6.907305388675781
Mo 9.902442214290902 9.854602510610249 5.513151898163149
Mo 8.051489247390537 5.581510864933357 3.7963446564626557
Mo 9.68976894815648 8.60339591259727 2.6443233872893255
Mo 8.335738618897999 4.781077979107135 8.358636165788392
Mo 7.083769199429884 3.9078761408446123 5.749109934968182
Mo 6.496668565195402 5.57473224066898 1.374465070576548
Mo 6.295877512324184 3.4496648446036633 3.2289920930808673
Mo 5.126785300306145 2.0996145102438084 7.287317104041255
Mo 6.08886643384596 1.5026726169203652 5.1552107539987215
Mo 6.654526857805417 2.8350347329979844 9.530630014399712
Mo 7.053430916719696 7.716859996694138 2.350422186300796
Mo 7.948573769807634 8.16145740163811 4.661730685607668
Mo 7.17179799430631 6.5061339974724826 6.419553929878813
Mo 7.825299315124984 7.112530701012882 9.105434392134912
Mo 8.241686024527484 10.793675107499782 5.302470970322369
Mo 5.658077668676384 4.6541391777231516 7.711377707903363
Mo 7.666227052834234 9.271315705620417 7.255663953025835
Mo 3.932521458687336 0.7614857590806265 4.96684218497842
Mo 4.2145414770383915 3.7048905849815585 5.263650037664016
Mo 4.156893936244599 2.130124572492662 2.8071712210915507
Mo 5.471852820185844 7.6567077644082975 8.065817470435091
Mo 4.406154376272216 7.351580577960245 2.5562721983522376
Mo 6.619702290052614 9.454521171279701 9.928072416831776
Mo 6.113062283690219 5.5172984973612715 9.969356328374841
Mo 5.498213372501477 8.632959863179197 5.276867021151192
Mo 5.400805243331241 6.117862645923153 4.322132889415116
Mo 4.0370762660463075 4.703288422684713 2.3689221946506573
Mo 5.581406243955441 10.27331911132599 7.209626014215087
Mo 5.761020273920969 8.001713773006156 10.924280878008206
Mo 3.1401397293376423 4.056616637086874 8.29583746983003
Mo 2.6473129839000924 2.1463038891483706 6.51001785851733
Mo 2.2819707515385885 2.899433725542564 3.811790644254783
Mo 3.711168253458579 6.307764668811056 6.544752295009027
Mo 3.8986551330173684 9.149399209796037 9.25027925890704
Mo 1.4622341317764753 4.521210236372603 6.160744784123709
Mo 3.096532059914305 7.972335781942152 4.555137862798822
Mo 3.6024214219881188 6.359629216311098 9.362493432778972
Mo 2.511815134027037 5.486036819280071 3.91634984215753
Mo 3.237791160968193 9.07424619636397 6.954654442032373
Mo 1.1730480287275398 5.211133888285391 8.582289528157617
Mo 1.0903925198095534 6.72512657862702 6.069678462538559
Mo 1.7702359271282606 7.613911981441788 8.252265054075536
