54
Energy = -504.17841293 eV
Mo 10.970564291472217 7.834906116320147 7.105445176098335
Mo 6.469648159807623 11.582801490681298 7.207766540158303
Mo 2.634292142764128 9.32706138896284 4.9549769323962405
Mo 9.333733029953832 8.181900623189234 2.881605914597481
Mo 4.901118281653915 1.155695033101626 7.739325089238331
Mo 1.610289401293843 6.776605021040836 8.851019884398275
Mo 8.478922314034971 7.266729551752722 8.030987703267805
Mo 2.5878194108036143 2.6318370958286113 3.564209814004558
Mo 4.005164013235312 8.552292446328382 8.965261242758093
Mo 6.355718378134064 6.39225833509383 4.814314155941739
Mo 4.656285528847871 4.319855332566448 4.556196403635013
Mo 4.704644201824473 3.057914226745981 9.032616439877458
Mo 6.4053673496281744 2.8286190190464495 6.669177523630718
Mo 11.380385901725065 7.281917032483936 5.099632479061517
Mo 6.61752004476353 7.356734390476633 10.087912416215245
Mo 7.877778028567905 5.1008094072303045 6.575046356308744
Mo 3.3416166803532477 6.995249399584616 6.566562056817032
Mo 5.401736005615692 5.361495771193789 2.230417778579184
Mo 6.461030330678315 9.388450103914964 9.048224187927014
Mo 5.166950047405552 8.596836850260365 4.7314403989274645
Mo 7.40332052236879 9.191820005985758 6.301707517432872
Mo 10.06668828836429 10.00581557952826 5.187820139097644
Mo 7.052536376614685 2.4191027808625556 9.430156312701524
Mo 9.201857200660779 10.087921052053344 8.294190965485516
Mo 7.7869372829487045 0.8537540382752612 6.917666891522504
Mo 7.685838285328304 1.2265208568632415 4.685498331748834
Mo 9.453345366255153 2.8901612611076852 5.496908504154266
Mo 6.882815302180938 4.90322648551758 8.947320042282898
Mo 4.934319167275634 4.936419968930517 6.984625484072807
Mo 4.485436952833586 9.861016918978745 6.962182638662292
Mo 9.371604823109827 5.309432739595291 9.245988986900871
Mo 8.121964822344571 6.077603924690881 2.811098473921538
Mo 8.88158464164292 7.3103958721520845 5.148805063136917
Mo 5.414034542477881 2.6126047772776606 2.6457643627458904
Mo 9.216774812432186 8.992596643772222 9.834012413779822
Mo 10.426770835575116 5.366594534331353 6.982096707337495
Mo 5.916396281815385 7.366519674957737 7.413794211402156
Mo 5.187008431747657 1.5509681942265066 4.594957273174221
Mo 2.127673770976938 4.8086255797812285 5.341206190832799
Mo 3.4712876276117797 2.6440322031499837 6.449902777490856
Mo 6.211739775828007 7.4794751535187585 2.348033105561465
Mo 1.8480000208952188 8.997079321913562 6.938515403120633
Mo 0.6453125248335281 6.444254466835959 7.198118234988157
Mo 1.4223404604322647 7.0325832863348445 4.539486702988609
Mo 5.988340425037974 11.344825233248542 5.258575541253425
Mo 3.644815837575207 6.821625730586904 3.730953046002247
Mo 8.887500904823561 3.1103797855260655 8.046012655118592
Mo 8.913934113222316 11.422443336782049 5.444135228419439
Mo 4.334809028576469 6.211162277353713 9.319177060152505
Mo 9.87551154198357 4.813834633007724 4.535565229094334
Mo 2.5977862557390727 4.292502691799406 2.667018843032039
Mo 7.169715066572652 3.792007899707707 4.080032091333713
Mo 2.569391165078741 4.43320211450839 7.900684738355772
Mo 7.6054276548049815 9.480713555670173 3.794047927859015
