53
Energy = -495.5794078 eV
Mo 2.302457628832479 5.937133566991051 1.4356607877060892
Mo 4.583030312667304 6.282169911332683 2.3577247805005337
Mo 4.763287051786111 1.015866026281333 7.076004573249248
Mo 4.710193045045873 7.628499659516511 5.1435377369097885
Mo 3.5546054681226833 2.2224744036012734 4.783897003804769
Mo 6.031245325804946 10.000792504047602 4.903315395053219
Mo 5.703307329441809 8.871758467106618 2.7979007319444116
Mo 2.343549798170582 2.161438952104704 7.819928158364481
Mo 5.967270437848651 6.224484854439607 10.329889685556163
Mo 6.774536659360136 3.9239203936670917 8.346402212520005
Mo 3.9048999349240106 7.973363926102941 0.41157604825701394
Mo 2.007085498343714 3.62069188861759 5.547112310031127
Mo 6.87214583961499 6.408959082313501 3.6317406958215153
Mo 8.378264022101455 9.425960559267345 8.05707662778203
Mo 5.153359630197772 1.9147895488154114 9.147590524167027
Mo 5.903854970172578 8.05876246815595 9.761116071404333
Mo 6.845743266374994 5.2272976240325075 1.0657406291899851
Mo 6.341145178335987 2.6616900723434087 5.488867945347878
Mo 8.745453044648166 2.9190826669108216 5.529417712820662
Mo 5.26207118309629 6.297781917232879 7.601810080456646
Mo 4.342575728817051 3.6734227416463447 7.059424207877917
Mo 3.3932602327581005 9.965918839884644 5.603048295208315
Mo 7.9076393958871956 6.674990659656225 8.313554305899851
Mo 7.6129521002036755 7.692013341511717 5.845629557093107
Mo 2.7698119823027025 6.103730517086416 6.771739849881285
Mo 3.150157024296937 8.475886280070034 3.254005933861187
Mo 7.265994844031931 1.493802178656419 7.608085514225178
Mo 9.471045578392692 5.670259539461222 4.659196338580608
Mo 2.298973269786167 6.335910831655865 3.9303402797935227
Mo 6.8818162267617335 5.104342562214607 5.857272708803897
Mo 4.417470092966354 4.954074757888544 4.805644837158283
Mo 8.557036153096345 4.646028871398526 9.926369383558013
Mo 7.531829876323186 1.9878216153078532 10.472683824343525
Mo 10.217725351515375 7.489827143517139 6.810411975744405
Mo 9.224747083332172 4.931060361575115 7.12916558433115
Mo 6.838806793441101 7.349121363370734 0.9569584222121083
Mo 4.07808069176501 4.3210630609208245 9.490934395106157
Mo 9.236263374934383 2.845902186790818 8.626064896139466
Mo 6.3966262546140635 3.500609014722292 11.143570110172256
Mo 5.4566049255431395 3.767231339389683 2.9449159240523244
Mo 3.257842000869328 6.653200694152135 9.238793776716982
Mo 1.9590886130502843 8.48022290423494 5.747924203379091
Mo 8.473795544336964 10.181968758911673 6.22722653203304
Mo 5.938176246195582 9.110739044355286 7.213180360927795
Mo 1.8283491263143963 4.095355336661098 8.385023245444112
Mo 3.5775386765134516 8.569847411002476 7.89920759552554
Mo 9.000695440747002 6.756253826014641 2.4486076374371804
Mo 8.158731688490601 3.979845503839533 3.47913719198982
Mo 10.167157105402152 8.168663966869442 4.885467664861126
Mo 8.11595545055775 8.846467815288028 3.3440872151134706
Mo 4.576229220707235 6.345072422324426 11.14357011017226
Mo 3.804814975446005 4.05537825170034 0.9350868811109336
Mo 2.6783778194308216 3.7307228787625117 2.921921729320831
