52
Energy = -485.67881746 eV
Mo 4.819078204266772 6.289273356639115 6.099978035326264
Mo 2.443514210542295 3.5108203976950865 6.98915945504668
Mo 8.695953059382424 3.9552957504840425 8.239675131102468
Mo 7.948676498058748 5.448908362532834 10.575265391498755
Mo 3.3839149923415044 2.033838234124184 3.1869427177717498
Mo 6.637346862430735 3.0505072871140877 9.465309722614792
Mo 9.419875090936427 5.6723754723110265 6.792395629053363
Mo 7.376229703715546 8.460734508467084 8.11027982592233
Mo 5.084871981919019 3.681492328720093 7.400757119248683
Mo 9.509832924074171 8.383458874875771 6.611785489511141
Mo 3.895391948202074 4.064141890302443 4.779000072217303
Mo 5.166617458941816 5.00034453237544 9.94978938773775
Mo 3.322478697617779 5.5698081068445005 8.35264190535291
Mo 1.7292487698036325 8.287735967694775 1.9225067729521432
Mo 4.143684536168932 8.788193437093677 1.8273772109771165
Mo 4.655411171208618 7.54093181888234 8.683288683132883
Mo 10.169911474062637 7.353185805316224 4.587933120211709
Mo 6.6912041687597155 8.899373121073516 1.5378665617066343
Mo 1.5372841431904438 8.627055403749722 4.773290832370214
Mo 5.880728320473671 1.0364031882328004 8.301640597663523
Mo 1.068603391851114 3.539421339524633 4.588357618596909
Mo 6.994239153228053 4.117925291529188 5.649630623976121
Mo 2.77044243844085 8.178080587535039 7.022701126885905
Mo 7.474357772927019 7.195551604488041 5.707109376355001
Mo 5.1225365948715185 8.724626280254448 6.50255558465189
Mo 3.2769165166283796 1.3574888337938202 8.219550781881951
Mo 2.449791921154991 1.6165397179757304 5.348785041568993
Mo 2.101294898099643 4.169738429754089 2.661999563477138
Mo 3.2593581791638297 9.47683181352286 4.473996961708761
Mo 5.828214541132087 2.9481141307244583 3.17960556084429
Mo 8.920361946290008 5.381611225202113 4.139809167864339
Mo 3.7004507606685384 2.694558177236599 9.562128392383244
Mo 7.349929234830265 4.799614831040404 1.8459972405341438
Mo 7.2532780464813635 1.414899053873768 4.6757064256057586
Mo 2.5051470765988504 6.611818584133825 1.0497526285738439
Mo 5.865310273565687 8.524743562214438 3.9651223991892603
Mo 8.784555970560323 2.8630328841710537 3.4183423846180663
Mo 7.430215898301455 10.143867152774684 5.772685447558529
Mo 6.843004629866061 5.800509676054826 8.019444360643345
Mo 4.9376466686547795 1.7382334614296635 5.701037014612402
Mo 8.338667768973767 9.563475582232165 4.141354764836153
Mo 7.997226841346127 7.208860454803293 2.6907439302032787
Mo 5.488046080123133 6.882485044677464 1.3454992565725248
Mo 6.069073447346651 5.6522844847391225 3.765311632364011
Mo 9.14518954363607 7.002944548486964 8.860320152205874
Mo 7.593828460721272 1.9321862356531372 7.0388331181202926
Mo 3.4670195106497403 6.700894145328065 3.5604950656930026
Mo 1.0819745536333332 6.1725568350747295 3.657982297172298
Mo 6.748326479513928 7.092587522247599 10.517465072452506
Mo 2.178285245163789 5.952344051967971 6.018496092925704
Mo 9.527462929307509 3.0857799917644364 5.425733132566685
Mo 4.512834101077047 4.397361712169436 1.8814092128445057
