5
Energy = -34.82649694 eV
Mo 10.213085607022414 7.552776513021651 9.875652310781973
Mo 6.376825309669993 7.977511462893191 6.573673753099298
Mo 7.635280825913359 7.5855766111746075 4.5530965161764625
Mo 6.3380928167372685 8.028416778148319 8.388943614453336
Mo 8.339022656414159 7.9342535300230645 9.673846383573018
