55
Energy = -512.70860745 eV
Mo 6.623027257380378 7.815768359150701 4.24155390393252
Mo 9.819121713690485 8.039794193186344 4.142951064723239
Mo 9.59183201714886 10.923291635811811 4.936798954864725
Mo 11.74738106002054 10.577701954429497 4.652495725604068
Mo 10.709816091192469 8.978459613342972 6.653040537631014
Mo 7.7302918449994475 5.900588097760034 6.489535885323221
Mo 5.511519471462276 7.327861663545995 5.640997540099749
Mo 8.198138097927357 8.462806431784312 6.246800368458578
Mo 10.336686651178974 6.591335874254754 5.341967596386174
Mo 9.989278306930748 13.08256019488932 6.487490487844728
Mo 12.715144323071584 8.229025594141486 5.109614460549071
Mo 6.115822261842449 10.095587676947865 6.358008293493916
Mo 13.470372970110233 9.342837699155965 6.892232645293707
Mo 6.178972986401788 5.586422149928786 8.178409711770122
Mo 7.154377326937922 12.523100060623683 6.290008288029818
Mo 6.681854726129993 8.017325505261548 8.308771294111244
Mo 6.281440131475658 10.878495336514828 8.62930132676964
Mo 11.617350946513634 11.389891677657893 7.077068917594671
Mo 8.64206795204736 10.80414438123909 7.302833926432891
Mo 11.896445727826803 13.70302988780023 8.565633747602226
Mo 10.044092875099002 14.688049745217786 8.35230787334124
Mo 10.438477763616781 5.046296458028697 10.738962672450668
Mo 11.532597828558627 9.172599649223466 9.11930843969964
Mo 12.45601912336649 7.014082611141697 7.412531291329882
Mo 13.966356330071793 8.629967375194276 9.471325139958788
Mo 8.947283323769678 9.135840058898095 9.17816466309629
Mo 5.276608414114955 6.937817041799385 10.598525985727328
Mo 4.271637443272957 8.823358017888028 7.9612743698209885
Mo 9.79323621229629 6.722448289140331 8.16185480832907
Mo 9.593072704004419 14.075417412340743 10.787051361214893
Mo 7.650922697969452 13.124759893209758 8.385008016895108
Mo 8.369967148655409 4.604242011087408 8.80145732149656
Mo 7.903799217100081 3.68324673571709 11.421254127543891
Mo 12.44439585457058 6.728470224516245 9.751113977610038
Mo 7.916827029889186 6.4522347930658945 10.350595961913664
Mo 10.101782090841748 11.868328972373913 9.265967387366725
Mo 7.731656973795824 13.677862948005847 12.20245764013691
Mo 12.962911231813266 11.2687563691997 9.846085579167298
Mo 14.08856401108158 7.670629169523376 11.858354730996515
Mo 11.425419121643564 12.421746814385676 11.349015476176158
Mo 10.222846831797158 7.843037187382764 11.050044744859914
Mo 4.505120586264256 9.310479345746437 9.915093473051565
Mo 12.327179676360995 9.702150253825023 11.556816498244373
Mo 5.406259598764694 8.102270286094415 12.66014684466297
Mo 7.113916968408296 9.015371986024874 10.994959951202453
Mo 9.739292024871293 5.583666235771361 12.542586720393942
Mo 6.236104999880507 4.13007328695697 10.668495050791362
Mo 6.86321056415824 6.110353693803961 12.718178575031637
Mo 7.896508664999363 11.678208077426593 10.706044637019641
Mo 9.796613701282807 10.359149322221494 11.718990043054319
Mo 5.742442892765679 11.056957354959817 12.008058610022136
Mo 8.223831333253106 7.993673596955794 12.958766937533596
Mo 12.393960855710167 6.898810502826831 12.391414123477011
Mo 9.269909704391273 12.494258386724976 13.100944490853703
Mo 7.216907219146713 10.586032787769156 13.332002680889023
