51
Energy = -475.72550345 eV
Mo 10.01851402219438 4.809129101555346 5.091209548927018
Mo 11.09829937917113 7.524233034237339 5.6087322136033
Mo 10.810621976421785 6.25621138733252 7.184253182862682
Mo 9.14352326878369 8.207321268090054 7.571997641597525
Mo 8.764055567872429 9.021415668669265 3.0379486684942334
Mo 8.485566480130005 6.63717491506547 9.49048164736582
Mo 9.764267754384598 6.264623102991241 2.881599639353721
Mo 9.156048219748163 9.662794229160124 5.656022142803819
Mo 9.137179078889965 3.6175088584054755 9.005562982105552
Mo 9.876274794139581 3.1659214812924965 7.143860551531166
Mo 8.549142458643743 6.831169705532864 5.248293204921029
Mo 8.762588499974221 4.389783544197963 2.711564726736168
Mo 6.633142563065775 8.748684143041148 4.838900874156954
Mo 6.908607927234103 9.484845749213077 2.2863513517983987
Mo 7.252972248517637 10.030830770056939 7.122687096111104
Mo 6.55719610618401 8.651648023398286 9.568253040259037
Mo 6.480877604802238 7.3802832634541415 7.398674375823568
Mo 7.211140392004236 11.286443015020328 4.543265415869265
Mo 6.560150076448805 5.547682835926717 9.778198666268246
Mo 7.176208478325215 2.705711063924922 7.620040664867421
Mo 7.314321126503495 6.815568668324881 2.7165768451796426
Mo 8.183193190511812 5.351001801988551 7.398693723749282
Mo 7.6772912359666705 3.786659230386541 5.234888125924242
Mo 6.728664797587496 1.096098466940764 5.5144492084325485
Mo 6.7792059677225405 1.9606038885506483 3.6747804391859287
Mo 6.073280722941556 4.556018285491283 2.853974182759498
Mo 5.781808980738428 6.045172653886861 5.188042558840602
Mo 5.474484614873288 4.622184199995638 7.633820329839891
Mo 4.919503452896179 9.429999781634164 8.60276062622717
Mo 4.814408615913048 7.44352056714682 3.1223553161147293
Mo 4.995222967520814 3.4113019308732677 5.349639844387247
Mo 4.503211656836666 9.742124886012592 3.9606593004934068
Mo 4.60541767973341 1.8335763406309775 7.1475595031176145
Mo 3.5553483503715344 5.158232204161566 3.513898846924344
Mo 5.549270004746088 11.18850262099604 5.871422610102936
Mo 4.2601739531087635 8.36454414207503 6.091000386783728
Mo 5.353759841074372 2.6564419248436955 9.631406864218492
Mo 3.982790951548487 0.9464389550738296 4.447028226308362
Mo 4.3438355385877125 6.873232072583899 8.8401937273039
Mo 4.871748247906182 5.807260968654433 1.3409140347744692
Mo 4.17498728222976 4.286417070252315 10.173379526244126
Mo 3.853502826240338 2.33616717404371 3.1518685996419205
Mo 3.1568664930735877 5.61141484205663 6.359905477460852
Mo 3.099095681774399 3.530228918116035 8.098810237288433
Mo 2.519170514431046 7.415624433280772 4.745068430795558
Mo 2.2884557280353346 3.2501878188499527 5.344315247364553
Mo 2.207245655430385 7.909976758301986 7.699739131264412
Mo 1.2427124909237552 4.895241148818534 4.22358697967158
Mo 2.025637998247155 5.989519749520662 8.817528022286275
Mo 0.5439275799654874 4.5053025196322665 7.012022908728562
Mo 0.36269640652054735 6.36137805601842 6.4102657669908165
