55
Energy = -510.83161777 eV
Mo 3.794619801597491 2.6789463853190014 6.999718815448644
Mo 8.041705503014285 0.22126355047288396 6.796391762859511
Mo 8.565892238844816 4.529033398736761 4.5211311587927865
Mo 8.874976029615711 11.262844521106476 9.758172038381655
Mo 6.327759168057826 6.631737153703151 8.13665706256052
Mo 5.411111018681386 8.731671935773248 9.371942448459713
Mo 8.196787332852077 8.937024233184413 8.41204070767811
Mo 7.23404712315767 9.352552012077833 11.10438352621577
Mo 7.519313821093854 2.4779371955785505 5.1912510813669535
Mo 4.127830428263334 9.717792332134206 7.454667894553984
Mo 11.57841805818655 5.346475127183256 7.245020648763753
Mo 5.7503424016523095 8.616569262762493 3.49503726348647
Mo 6.433599335101128 5.175913912267629 11.555428897059459
Mo 10.438361478837322 9.971967752274178 8.09234409461921
Mo 2.6054334473648733 6.0902783624850585 5.130342822891303
Mo 8.392774929013044 11.325820454478343 6.841688270842297
Mo 8.274334082923833 8.515624527940636 3.922069992631073
Mo 4.202686054620785 5.292307745283477 7.113980354634846
Mo 10.585091554870857 7.556052465200964 9.051491463989672
Mo 9.562857689057626 3.69417407204107 6.940583191665813
Mo 8.114070670619245 2.435378789543695 8.750704329884373
Mo 4.0391579487379605 10.09744646673517 4.904436542291834
Mo 12.38711404885482 5.5072134841577105 5.108962090690967
Mo 8.190267983165182 4.749150995193866 9.329491643180084
Mo 2.0408244854697744 8.316242240304616 5.692365754186539
Mo 6.399404656044161 10.906910941815926 8.928777573934308
Mo 5.454778958536302 3.970616637908265 9.246571883010668
Mo 6.9664676103605405 4.1510510571507275 6.941123915357976
Mo 7.913905415494942 7.135498063108073 10.241097537987851
Mo 6.123592920998748 1.8182604636424227 7.677103072102625
Mo 5.917436642211914 6.950821385336804 12.068534805978743
Mo 9.64532648041913 9.575009421450428 10.852176062806302
Mo 7.25077213779299 5.917687773217676 2.950193142828493
Mo 11.646815302645749 7.754815444005759 7.057308181304637
Mo 9.655933126057311 1.1385382088102722 6.51849201888082
Mo 11.00238478441925 3.7865532360152097 4.848825367823868
Mo 4.622902344743532 7.558732391737579 5.663302731186205
Mo 7.091496051867221 6.699991525760481 5.343914888823235
Mo 4.90752358074051 11.128970581840354 2.58070490957102
Mo 3.166989005332597 8.148243769779892 3.2020483855515276
Mo 4.4854174586612015 6.284193276402009 9.847236357038732
Mo 5.441682965110892 4.609323102843155 4.820256921718462
Mo 6.332863880278879 3.735320256402323 2.9455843920219027
Mo 6.498499247107439 9.243291914811241 6.3638815814965195
Mo 7.293142672067317 12.975479875002222 7.918261596969624
Mo 9.076626836386776 6.388783021560616 7.3475772116977645
Mo 9.377278465566556 9.016873056459733 5.899137424595191
Mo 5.718952838226469 11.793202037027568 6.376613953136664
Mo 4.362574663534457 6.349558411665235 3.164651707631443
Mo 4.931360918385211 12.510350683430199 3.8340010451216404
Mo 7.109971100175724 10.777140083468367 4.485870617563021
Mo 10.099559165437903 6.532444165490704 5.031857482994267
Mo 2.8099729082959892 4.805389535323426 8.822284319952017
Mo 2.979647695724948 7.625105802461655 7.806572378258334
Mo 3.684928253610751 2.1380102200229008 8.953319395409832
