53
Energy = -493.4203516 eV
Mo 4.519196148930533 5.318120597852532 10.11897044214111
Mo 5.804685517974065 4.033481715379367 0.547046505112492
Mo 8.077951915263595 2.3474841344917516 2.029746185319004
Mo 3.0004611591019548 3.0370113423588974 1.3463911148222836
Mo 6.880338491401499 6.935422219637956 1.0352732338304558
Mo 1.8173568783591731 8.255005521036153 1.1936560024409248
Mo 4.986302547921272 1.4510744379771456 2.537899941711028
Mo 8.450064192172684 4.853337736600653 1.8534793962771152
Mo 2.0456733729653434 6.040451966339998 1.6424740385392311
Mo 4.214697952609371 7.998312086829703 1.6001328573877125
Mo 1.8121506446546984 1.3692296864076208 2.501056136510127
Mo 8.656557618622658 7.610619712260348 1.9469888463998302
Mo 4.4302700831226325 5.5467061190508335 2.4410411801671277
Mo 6.323307899652686 3.494490171052954 3.1853923639639525
Mo 0.7463495062397161 3.775590404374447 2.969601175578822
Mo 6.567405375489783 8.63756586417263 3.3530302661154474
Mo 9.376908190705867 5.530633875334387 4.026418284658346
Mo 8.958438799003758 3.0008050946055915 4.093812194841197
Mo 3.479253201255507 3.171166781465197 3.658193824832289
Mo 6.845001374104962 6.135745377501281 3.5371334804426238
Mo 6.921162546599181 0.8019757575810731 4.223369732476203
Mo 1.3901645396952467 7.87266951033333 3.7921010545741223
Mo 10.147642202960293 5.902468344502852 3.0329596596495465
Mo 3.3727735143221875 9.516705091264779 3.1104622635315473
Mo 2.2712324002579596 5.571183477918165 4.41982324274638
Mo 4.1912009163801365 7.741972626351679 4.482550704932064
Mo 4.897062821570121 5.124853513363461 5.011195133635367
Mo 4.08891972867836 0.3948519026639337 4.634740959557045
Mo 2.2804007754875717 8.960294472455734 5.85677752724561
Mo 1.6723251030546007 1.8265600817088408 4.936580904265979
Mo 0.3909507056136067 3.998472717641307 5.507307765539974
Mo 0.5707555981185859 6.663254921124236 6.017555342733045
Mo 7.45459634127236 4.43038742169081 5.61987224457471
Mo 6.4014267433598455 7.15741766447318 6.0835118470726695
Mo 5.385653337363818 2.441034073335844 5.53770768960557
Mo 2.9418322422187932 3.7169062969155204 6.335928911949721
Mo 3.394682599896623 6.512423133563995 6.836172022492655
Mo 10.071895049668177 4.120117068927935 6.483774364357534
Mo 9.27605137943357 6.049733201437155 6.70822255509749
Mo 7.759952695468472 1.900838748531401 6.4562993811523075
Mo 5.95063513330947 9.917629453830228 6.054364006759487
Mo 8.262839916077741 8.033762920959246 4.794882211589496
Mo 3.4959976055209743 1.2458838036421467 6.998057900308616
Mo 5.349619050565377 4.470203711843275 7.434906350140717
Mo 1.649759187120706 7.752033401288072 7.752953829481587
Mo 0.7848427357572547 2.6264656829033424 7.781861937132083
Mo 1.3179685893999538 4.617803067798529 8.129846679696232
Mo 8.017308456455648 3.8094639335760445 8.121342566810007
Mo 7.10697570871633 6.036759097854689 8.293119239451334
Mo 5.719809186657087 2.0137872529604017 8.118689374689572
Mo 4.066340081968382 5.452513395074391 9.577218920621364
Mo 3.43440793556751 3.003925699876037 8.799699782215864
Mo 5.651008321231564 4.453957727198626 10.11897044214111
