55
Energy = -516.45508218 eV
Mo 3.1530855093352854 6.641538241902125 5.600394236916025
Mo 12.243646360721332 8.816110127795858 7.466945136848654
Mo 9.747381702828827 5.6790710861556635 9.579529064728321
Mo 5.930285898744626 3.049277975021945 7.456110603831515
Mo 10.307089845842317 8.472959518751974 9.086977690985984
Mo 6.644013973526765 5.740971269953782 11.692754862032249
Mo 8.154934996559042 7.292213587781802 5.085465016989186
Mo 7.448049037134586 10.022785964624829 11.462703834227224
Mo 9.514896449282912 5.151033836574371 6.9926248432354585
Mo 5.353448323735207 7.149874913069477 6.645069746544294
Mo 5.697129058185023 6.797604124863649 3.9598468736138006
Mo 6.8593242265204735 5.425449065614855 8.871383858150512
Mo 3.178770629091152 8.732494794007312 9.938101893302953
Mo 3.1004788908998115 7.399262174271816 8.489487401785452
Mo 4.613065803572838 6.134593806506167 10.312797713752108
Mo 7.787452473445014 11.36962279048385 5.2668384428296395
Mo 4.91271715830695 11.192631683700888 5.172897313040449
Mo 11.761888725404264 10.311487852895153 5.166942973124078
Mo 6.330065849218168 11.770511536429574 7.634964860352285
Mo 8.147110855080555 3.2843122110776157 8.137697153921836
Mo 9.471836543769207 9.604777561263925 6.632945256156031
Mo 7.921013071759039 3.7129276691525286 10.861565223486398
Mo 5.992558853483204 3.3702909686353086 10.195432606998708
Mo 7.774773889841906 9.877956986460793 8.837024327312237
Mo 11.60365084015337 5.932544447080249 8.30768327992339
Mo 10.612847360384748 7.386585893151143 6.120165953392294
Mo 5.422613042643518 10.575290558762472 9.98065105127419
Mo 8.0053918620664 7.632080709368683 10.547329053138366
Mo 8.20921489173551 7.327649664378397 7.764864110897197
Mo 8.978057489243351 6.46022164616713 12.833260558617583
Mo 5.501002138051683 8.145210974379038 11.536866357703207
Mo 5.7720234306022045 8.062091187931896 8.988797925654275
Mo 13.032990886216318 7.917916789504832 9.79500555216418
Mo 11.25581666515965 10.987107966805848 7.85134520239986
Mo 10.53814939051412 11.845911290923912 5.169799137714945
Mo 9.782401223333009 8.935144963146215 11.897525322970857
Mo 9.568604402361622 10.957776826514998 10.070721462353426
Mo 8.901111506127535 11.9812406634248 7.685939242159626
Mo 6.868567101290072 9.430669411406736 3.765844208654996
Mo 6.9000395151526135 4.987329115236947 6.018481946362298
Mo 6.926508102311797 12.431962288987936 9.841026452280678
Mo 7.049861127260725 5.120807159573329 3.3990446010732085
Mo 4.434269892132512 4.904172198782043 7.6714075843539264
Mo 11.121660713434173 7.056928162736403 11.160981482303736
Mo 9.427068246413706 4.891995773985963 4.460000249956052
Mo 9.374426222833732 9.530366084908671 4.005923388322004
Mo 7.6137721451422955 7.817928279073855 13.402969916246036
Mo 8.382509947330428 7.260442314237769 2.5626110657589196
Mo 6.7346010286335245 9.334482876163872 6.342459250496583
Mo 12.25147767242369 9.730653796289234 10.375628409922696
Mo 10.42254676353139 7.444253780544359 3.3694653199537057
Mo 4.424895326490378 9.844927516578148 7.598407580444499
Mo 4.320290597361132 4.90964682625601 5.145213458946686
Mo 8.441124113815736 3.155009963866973 5.334547556130429
Mo 4.397243953477112 9.321646846751703 4.769288108180176
