53
Energy = -494.97188684 eV
Mo 11.38394949051907 6.123915482006642 3.304210911653223
Mo 11.640877873337612 7.672194321641206 4.362356257798193
Mo 11.305826749264009 5.624164531086558 6.195384825771832
Mo 10.26337978571993 4.122176535336373 4.836214342501235
Mo 9.849372145842715 6.055257008409218 8.213332462766497
Mo 9.793846816536794 7.985345558729947 6.674499508064748
Mo 9.338067358811584 7.950173640537216 2.5979155586550458
Mo 9.024616914324431 4.138532433651668 6.830552954266963
Mo 8.964617480396363 6.491943161967809 4.8714200521433275
Mo 8.506979199873232 4.843513431085699 2.6189859456606834
Mo 9.268679522224549 9.234603566802214 4.234299236893036
Mo 7.605258931032408 1.8936595152471287 6.88997489789776
Mo 5.405475143235736 1.2399533667534384 3.4235753496276358
Mo 7.461967129037679 3.989833169559357 8.827247418594109
Mo 7.432470141281091 3.3152549164307046 4.659689485896775
Mo 7.475004843651996 6.392756311870782 7.219407461242154
Mo 8.337757779747076 8.461284148128454 9.11176330997002
Mo 7.854287105618079 6.582756927070349 9.987718597453387
Mo 6.625959280659194 3.666172897700395 2.132682244432226
Mo 5.662579890137658 1.5024575720029814 6.056924495240157
Mo 7.316183651789997 8.960265516327667 6.442431781832721
Mo 6.8890024920104835 8.471359065162975 3.7207470206896245
Mo 5.323633066127512 2.4206217790018782 8.807752714914452
Mo 6.965381337891123 6.555613695335232 1.9693909990437102
Mo 6.006413170797387 4.286862848130392 6.65401443839987
Mo 6.357534420966514 5.73617095927373 4.309578087385736
Mo 6.2238985797107285 8.952371405676 11.033232188321348
Mo 5.503505886220857 5.103944333070538 9.589737229209733
Mo 3.52316797364358 1.2390525895241058 4.127955790756036
Mo 3.964852217998219 2.780454450192152 1.5819682929219843
Mo 5.6771694053431485 7.807507403613625 8.645918454382878
Mo 4.621854199605445 3.638388645850692 4.209966841621235
Mo 6.4129108973621465 10.342273010946625 8.420295044717777
Mo 5.3239094220251415 7.266073259458237 11.38189687286903
Mo 3.9528364850991506 5.642708825995025 7.562956383807086
Mo 3.659068181229774 3.0672977297602158 6.748270076276575
Mo 4.615678439876436 7.869523954075278 3.07804926975106
Mo 5.1793124820005625 7.4690980696169715 5.8882834788782095
Mo 5.4147165883769395 10.117198203911078 4.876078511021456
Mo 3.6173835297441217 3.5873515752627916 9.423882873139709
Mo 4.641000220432617 5.3678103200682585 2.0595449039333493
Mo 1.8141227489748641 3.4031743909454195 5.149109869866864
Mo 2.513167770268919 3.8153689576008323 2.4996034810195544
Mo 3.1184222979006795 6.966648383561767 9.723477750278402
Mo 3.324732056324191 5.829721351227743 4.761439541947656
Mo 3.6901599502576103 9.066984989347539 9.636022588783131
Mo 2.7569116023476905 7.764971530598404 7.289984639387377
Mo 4.544332482217638 9.89016966396226 7.2832958972186574
Mo 1.5663481164130544 5.048622481473091 6.6635430603345025
Mo 3.3259711214961927 8.940263410824837 4.78537751721239
Mo 2.444660881528138 6.886221313243664 2.785205989703739
Mo 0.5252371960947652 5.613952423044755 4.051126991360346
Mo 0.8833394221147245 7.206896112329792 5.153465622127751
