50
Energy = -464.2308042 eV
Mo 10.460052226283922 2.987507198510365 3.676381619375494
Mo 9.306652945312607 6.050531645502434 2.9619897219251556
Mo 8.038748568249526 3.028389401112955 2.9828323699055623
Mo 11.371265847826404 5.139115494088823 5.264748382561917
Mo 9.571508406919895 1.8349540378105396 5.044385072610045
Mo 8.032802415585289 8.048041404321129 2.6870222613448838
Mo 5.377319273192437 3.179361680693679 2.7288134627776413
Mo 6.801713945950426 5.305062192235641 2.8764836286319837
Mo 9.861805065066864 7.363692385708272 4.93289316666327
Mo 8.637556958537282 4.542340615673182 5.049839545378992
Mo 10.857605350191898 3.9287902078803634 6.727433084109265
Mo 6.823905477039502 2.526585964758939 5.041618327829234
Mo 6.231473956705616 10.031505642960312 2.8389829513504035
Mo 3.885752401125058 5.596201656975003 2.594557919508545
Mo 8.402262017298582 9.522843333891046 4.748966227612462
Mo 8.389190036027582 2.8819487785597446 7.248340993834003
Mo 2.9325281579557188 3.83648483099184 2.4017724839362953
Mo 5.485635393949685 7.694441612952851 3.0414681696788044
Mo 9.375073179161234 6.02026663150481 7.114201360180467
Mo 7.358072653336888 6.900332188938439 5.068039543742811
Mo 4.052831598988146 2.747586758013396 4.839996668794239
Mo 4.368622558462503 11.538453364798482 3.357988347471991
Mo 6.597365113757037 11.80794278358077 4.898078661800572
Mo 5.428428480480395 4.855409531894094 5.054472901814345
Mo 8.015386140502457 8.328691563798461 7.129932491736757
Mo 8.853184532781592 4.207875011699684 9.230536798629768
Mo 3.649895608004716 9.590261002075058 3.9390899149535272
Mo 5.873519434099495 9.120758789810035 5.290175619161075
Mo 7.650532380763946 6.847788286140682 9.179667101879465
Mo 3.8284414981753425 6.956317391420983 5.054274593491798
Mo 7.4330672931140205 10.912867480010057 6.8454588275621475
Mo 6.833170255265959 4.92913800201994 7.348295380458507
Mo 4.607944066103958 11.350283422764555 5.977443135645126
Mo 5.438988601786916 2.6648190617902823 7.1979307800839045
Mo 2.467681868932566 4.543670461556127 4.870241798446232
Mo 2.694564769630046 2.384546584612861 7.065892175378885
Mo 5.521505924286591 7.181932637905356 7.295357840519328
Mo 6.894007984101827 3.3524536599275057 9.707397740300088
Mo 3.342824537104489 8.866810448533759 6.734061238029912
Mo 3.7801502622520577 4.962572790248611 7.208617420697927
Mo 5.639776607090436 8.03614832741529 9.77719559402386
Mo 5.3980983406487075 9.867239844723096 7.856586611599787
Mo 6.970029673319657 5.477223943562022 11.030536257420646
Mo 1.7468468710838914 6.730848823340961 6.806893254880435
Mo 5.118588998645031 5.560223514206572 9.615542369470065
Mo 4.147130627636505 3.1514902406512184 9.270849807717461
Mo 1.0934610749047482 4.542789328866058 7.3916773902390585
Mo 1.813587638398595 2.5622295646138786 9.044043534457296
Mo 3.149591556621911 7.39314775733727 8.705013996272484
Mo 2.2265678415332304 5.177502020595058 9.353858929948675
