53
Energy = -495.54582893 eV
Mo 5.425284834850963 2.7986105977730698 2.153709728601694
Mo 7.168354931778747 4.246168777094373 2.7606172319898223
Mo 9.285999841827163 5.804566309350838 3.040123593060654
Mo 7.091639000616289 7.0634775209339535 2.7542082603585376
Mo 8.847354201488951 4.373208532827406 4.955882370432373
Mo 7.665900144088303 1.8794143770914968 4.314648575185571
Mo 4.901733051855813 5.573318896395054 2.79383846528119
Mo 4.410886693308336 8.155732934429842 2.108888897197458
Mo 2.9243224726664803 3.9914062383600273 2.820554634195835
Mo 10.854556462908006 7.714809033056994 4.039038837279329
Mo 8.860854114656222 1.6039379450415974 5.71393303499522
Mo 2.186777111547094 6.073838218572167 2.3764420745679917
Mo 8.835090314979775 8.902098151378004 3.356798343664495
Mo 5.042167607645763 3.0554498011802536 4.357153265595487
Mo 10.43731201861839 6.065110334644034 5.960378820371073
Mo 6.281815772497563 5.2234757435762775 5.08501527122274
Mo 0.7746781708549024 5.349961672220561 4.377770001366377
Mo 6.028526239892017 9.36184133621142 2.3841798049478182
Mo 5.304962424144204 7.8214064942666965 4.762449183231648
Mo 9.822878174910121 3.701131254883687 7.5071256281641086
Mo 7.011793178728205 3.193102910171012 6.837678432476631
Mo 11.468191840178712 8.435477811684663 6.335274820429354
Mo 2.303132077070088 3.2126932431891566 5.2693204745364035
Mo 2.4493643678031494 7.840654345034596 4.207426538295182
Mo 3.449854519041944 5.705492285871279 4.982291768519794
Mo 8.243831328035158 7.326463082499018 5.155065241072694
Mo 4.080666862298025 9.952923873398344 4.3504849197186735
Mo 4.496405359435399 3.5143717001103556 6.812152004721041
Mo 7.928405209276965 5.705036939685534 7.435762602738569
Mo 0.9771708323848614 6.878443488003484 5.988270788656579
Mo 2.334896231610537 2.2078592417293863 7.904961712305768
Mo 6.980544859900778 9.915923631101146 5.014650409926556
Mo 10.789117487793146 5.579759252280204 8.312135277458713
Mo 7.470332355497265 1.7814742315725949 8.815410283836611
Mo 2.034899454415106 4.871724443552789 6.975323427205557
Mo 4.766132927784548 6.004411901041916 7.481038627657677
Mo 3.423849870147959 8.190836339355393 6.709342991755239
Mo 8.421669738421482 4.213158125297083 9.448997308047831
Mo 9.78516260408312 9.790685252869107 5.578036455613689
Mo 5.380248610875165 1.7642595796646914 8.685529709352497
Mo 2.5450638514048998 6.532929112031945 9.03991761469775
Mo 5.925210161656478 4.12140244545943 9.246187778195896
Mo 9.218294075344922 8.044995469499767 7.628894391614969
Mo 6.4385140560992715 8.177510645751427 7.221711598768046
Mo 3.0254406228713693 3.5247596749809764 9.149276356994447
Mo 9.069181470068564 6.697314699570462 9.90305849136431
Mo 4.77391396605941 10.226796885555794 6.554346306736393
Mo 4.050151518729005 6.0911070048221 10.225778968319073
Mo 4.639783538939312 8.532166620308637 9.049362329832796
Mo 7.917590393112715 10.490600551784643 7.102282313070255
Mo 6.710274818107864 6.67402017095936 9.60216239227576
Mo 7.52094741966469 9.061580343820205 9.572951848079054
Mo 5.994626469039307 10.513131122447666 8.911741224011081
