52
Energy = -484.61212138 eV
Mo 0.9607743485755585 4.807501837261511 1.720247147857313
Mo 3.084530685418711 5.469789263733072 3.7387187204686967
Mo 6.725855472417377 8.367395411786184 3.073073238656194
Mo 6.244410235483221 1.4641123383375687 3.5509678060775522
Mo 0.1336605902142846 3.6212591505538647 6.527379064670898
Mo 1.6383438052803765 2.5714215014021433 0.188287397694619
Mo 4.845652177264634 3.3765731401820935 5.18741079746755
Mo 9.168936124013744 5.411354015844805 5.825269172852726
Mo 4.47646246619704 2.9609478802187823 10.460167701751642
Mo 2.4887258475098117 7.041665349617336 8.451901571668323
Mo 7.9038124742992 3.3476628114516185 7.526416034597292
Mo 4.835614309621793 7.72825456440946 7.04052166022116
Mo 0.44878957873742903 4.147238624783948 4.160359183878841
Mo 2.6497640593741245 7.7859450742469525 5.418911458106884
Mo 1.0821545538523882 5.791330732697103 6.316985907911636
Mo 1.787762429970771 4.201188108244399 10.333939171078459
Mo 1.2396055818923812 1.1401769753108835 4.726078001855366
Mo 3.834494826924068 1.023497346638138 6.928540607092408
Mo 6.329989231887019 1.4434039651699895 9.07229577768468
Mo 4.876329687844183 3.3725321382558278 7.793631721240336
Mo 2.4189129728359253 3.209704442090139 6.02672598473139
Mo 1.6453278155671744 0.6246110056602878 2.6528294013688942
Mo 3.511819983518531 4.38880932009617 1.18172886045946
Mo 4.769475995688937 5.871802333867157 9.165429231967959
Mo 7.697781027297368 6.007981883746012 3.374370450951899
Mo 2.604145698809914 2.92846289825861 3.1810606954307437
Mo 3.7223233991710987 0.794922799553592 4.674666658892771
Mo 5.552430022620412 3.891914396131249 2.690697184837642
Mo 4.215188491019503 1.616150213212342 1.5355731381147788
Mo 6.097489898816697 4.260286810077201 11.047160384558191
Mo 7.444985455699363 3.724769422710251 4.885187585513246
Mo 6.675788497510463 4.264321068024285 9.544577060022926
Mo 6.463805474720753 5.368543844517748 6.875269973033351
Mo 3.7280109440400313 5.5634858586203215 6.459697356162125
Mo 11.150714048444266 2.5761923859466025 2.505170747276268
Mo 5.41297224883412 6.3478215083294955 1.7106502548276639
Mo 6.738537692298287 7.052726500146057 8.662055237537142
Mo 5.236945869508351 2.4194340983359863 10.333939171078459
Mo 5.5788763355623425 6.200453018376603 4.515454453040345
Mo 7.878312469455554 3.4875344359723726 2.1229893452577393
Mo 4.206787640528761 8.33584337911419 0.5902985508422602
Mo 8.486742533757864 1.7679918759160806 3.811682294286019
Mo 6.430410423467045 1.7328287270809617 0.9800116321201777
Mo 2.5203076271423566 6.99029490987275 1.0560389756704611
Mo 3.923364165946672 8.021334984485115 3.144014426860131
Mo 4.241742795049443 5.9548255749347065 10.62208085309987
Mo 1.2518861115982933 7.027233541672805 3.756891876847434
Mo 6.126489963637002 1.4655963370274396 6.223282322414101
Mo 7.720471429830868 7.322343790035348 5.739667524216977
Mo 2.1724958189584473 4.933740527935211 8.471726973780193
Mo 5.6047337055871225 8.928589778831407 4.883958661994579
Mo 8.89895512155047 5.513581736794127 8.067460338423361
