51
Energy = -474.79264831 eV
Mo 3.8238698066115293 8.90260461363119 9.76254593279517
Mo 6.446257028470704 8.259874645817188 10.040688813038145
Mo 5.244792864654362 10.596512079621547 8.407493949942127
Mo 4.1362329416741 6.3478317685465 9.774170933385628
Mo 2.9730530569834075 8.414006580562962 7.937907590732223
Mo 8.709916312497592 8.005698115153494 10.502007084355245
Mo 7.597749625818715 10.018575558138462 8.422460343796653
Mo 6.612621446333098 5.976490117588998 11.284050739858207
Mo 6.324719009860608 11.524521791123636 6.589104563988213
Mo 4.716949136631007 9.852315316310339 5.822505719773167
Mo 5.598405384314701 8.02210483410765 7.489253568753763
Mo 4.932740328758394 4.169090324323875 10.816993075259562
Mo 2.0684602445522526 4.599444466534324 8.731433296308536
Mo 3.212964321781708 7.746612879428876 5.237435649759938
Mo 9.620328388384019 10.704949384738844 6.448133280239608
Mo 8.353635669807884 7.376952372282269 8.191595144029364
Mo 10.174632345120196 9.136838686990204 7.467428452109913
Mo 7.469258389008731 9.261788756873246 5.823453944507309
Mo 8.746939397363132 5.516716448603505 10.413272659581438
Mo 4.5172442385826885 3.6778835473299814 8.50431334939034
Mo 6.352328805937577 5.543064788923545 8.719176059544914
Mo 7.933108832030542 11.849478951771603 4.501739049670093
Mo 3.7719272907722727 6.010704505766706 7.1911660054925175
Mo 7.3426129584571935 3.4739244627722163 9.932729179811226
Mo 6.016072901741307 10.243812704197422 3.8035200860981266
Mo 8.880073659563411 10.421026685001888 3.500690562220532
Mo 2.0504733651895592 3.708586200673512 7.078090713452361
Mo 3.5320329716393633 4.867518119400208 4.92815233772182
Mo 10.461900109935234 3.349544009150646 9.14522584824288
Mo 10.685382404721883 6.246340420033767 8.585525017448457
Mo 6.206492710406987 4.608822913106936 6.055233850045465
Mo 2.0141057394108905 6.5157029615213125 3.250084615669351
Mo 6.707094870843874 2.50529884531129 7.738585414342399
Mo 8.589633658488035 4.683777878346261 7.695330002494745
Mo 5.529443005397609 6.972564904472981 4.794658189960351
Mo 4.434680527751757 8.23051951990179 2.981282148265381
Mo 8.054851230825639 6.629609810681478 5.706634457552847
Mo 10.5629045802262 6.254627492170269 6.3835577484649
Mo 7.497850450443768 8.062864528665594 3.261088312257918
Mo 4.570510266171588 2.7340091643943665 5.862511347663923
Mo 9.958513754246553 8.313538561133859 4.763000160494755
Mo 5.564843313821396 3.1055227790714848 3.6623415581048615
Mo 4.553714298434854 5.362578297630211 2.807156722543773
Mo 11.21522082165066 3.6827884527193198 7.4054921348068845
Mo 8.890923069016623 2.109610103953248 7.24101218827486
Mo 3.035697769882303 6.771792298643706 1.4560314483300818
Mo 7.464914840000675 2.3447998055342714 5.134825750777149
Mo 7.208531683790661 4.982682097117852 3.6018075249141095
Mo 6.274527617257012 6.802344449428349 1.7377457549550686
Mo 9.074024835645801 4.044037404653451 5.202219977233758
Mo 9.50262630332986 6.565612797724696 3.4213040431572046
