5
Energy = -38.76989092
Mo 7.445636137731572 8.157784987028007 6.64182013450295
Mo 8.280209612048779 7.9666097602002015 7.559066199498323
Mo 6.362246257657226 7.1472387893164715 7.867805176607411
Mo 6.4654769468591855 6.298522357126877 6.954618649149193
Mo 8.03354523679617 6.4077729152353005 6.954618649149193
