5
Energy = -38.04172546 eV
Mo 5.417166161415304 6.354405539969034 6.439727871304666
Mo 8.788555202074983 7.560417074562518 7.423481773670733
Mo 6.371681459707469 8.627014251927424 7.83978341091562
Mo 8.225326638453664 7.050129075710293 5.805656358844614
Mo 6.435047881310879 5.5701410575343315 7.663089980703101
