54
Energy = -505.14813464 eV
Mo 10.36951913638893 5.2751232537709445 7.580721197027274
Mo 6.792175912832205 9.258328004994118 3.3636067032650985
Mo 7.012942647580909 2.482623811665206 2.801380051606453
Mo 4.640602937296208 9.65719793518137 2.7602765009323456
Mo 0.37011000167188246 3.1843683855296017 4.396550278407118
Mo 4.995192607139512 7.085460872014627 2.645643315818815
Mo 5.949105528836345 3.6267500461408093 6.794852829199285
Mo 7.764244680561974 8.803264102826521 8.620235128819745
Mo 6.092866974489269 1.1657946470946159 6.995063632982686
Mo 1.0040201500889439 5.136491700227182 5.988671048439072
Mo 1.603930802670752 3.1221940392371788 7.6280723947562725
Mo 1.270582656819511 1.033461263306489 5.516456254177008
Mo 9.431796035773749 8.488482620569423 4.383215032461757
Mo 2.4777848851709527 8.43999246463362 3.597216564467521
Mo 4.823342937004103 10.465205807829193 5.036875295958417
Mo 3.6269400121551194 0.8512211996796144 6.458995113533745
Mo 4.270010775143783 3.163476984978267 2.6679461158857833
Mo 8.407949904017805 2.7568728234549393 7.831635821735264
Mo 6.0082641656429345 7.071156466449074 9.451442361209384
Mo 3.7375240761712507 5.304682122040334 6.63735809158212
Mo 7.218144904316921 6.784404678934275 4.371396313053555
Mo 0.8141606365156268 6.06574025080697 3.791733729375835
Mo 2.3965444323481724 1.1805158359859713 3.7864497129536505
Mo 3.773497339317888 7.376223748618024 8.128046280566835
Mo 5.184098942569788 1.6413701050881941 4.705489754157792
Mo 6.202517688862923 6.6105248374287475 7.051272449706181
Mo 4.922679574611211 4.837595681992967 9.063765578826132
Mo 11.03002841768339 8.41371843117526 7.936300242071787
Mo 7.775460306667529 2.369821260698387 4.769312789826701
Mo 10.5218426443605 3.8106114847239776 5.9102676025246845
Mo 5.722470087258902 4.538008772677754 4.365706660233715
Mo 8.957100465574 7.355832142186947 9.48091284786626
Mo 9.44900735275331 9.725437164404362 6.156540563855439
Mo 3.8587924138534015 2.7064607560044265 8.150981354951611
Mo 6.191225901166557 5.020337952584452 1.9124758607419516
Mo 11.57259984687549 7.583079378487314 6.3041467450267765
Mo 4.639903220749977 7.768132091812558 5.215542918779565
Mo 1.6010495528436615 3.7311168125049643 2.7421926348955643
Mo 2.155200409062138 5.040423160233534 8.669302844787913
Mo 3.8099066465451443 4.959437731470967 1.2743572803705818
Mo 6.96811741966441 9.202028368445996 5.820934974158484
Mo 2.3437320859376163 7.372214982277136 1.8547755095662575
Mo 10.13635207656514 5.924535366660091 4.614770208249636
Mo 3.08362603256052 9.735522226930716 6.423965371578834
Mo 5.0040193667377295 9.368534495439013 7.654910232115929
Mo 7.725149955694913 5.156301699802983 8.662789379376745
Mo 3.077048357999054 3.220027514406306 5.278889681375604
Mo 8.628704897462265 4.591458062301744 3.2020659300494447
Mo 2.0449825034635416 7.311116012812292 6.172804584150547
Mo 8.815601601676759 7.149520187195898 6.718720549806624
Mo 3.1594860401100804 5.65101530327918 3.9497140486850224
Mo 6.738850761650723 2.6392323048969555 9.154533760002021
Mo 8.173685048673894 4.744243130106154 5.940166584698946
Mo 8.307130911906551 6.694934187498551 2.260175960843868
