53
Energy = -495.34695924 eV
Mo 5.577887080107624 2.660767815089467 0.1687391444340905
Mo 3.7859733583411863 4.988709531266148 10.11937716414939
Mo 5.092772275735991 7.065282223660266 0.9715396252217354
Mo 2.931465700656531 3.2374260940009694 0.8360386466268038
Mo 7.168906850271166 4.803830939742837 0.4405990853619343
Mo 7.014116601159306 1.960792387146419 1.8631379636101353
Mo 2.783320429150644 7.85242670194704 1.1682724289498407
Mo 5.315019818266973 8.787837473556529 2.528463164212235
Mo 1.0508639804870392 5.4554890242895535 0.5599756574107623
Mo 7.291619910157563 6.646649931416408 2.210951503183071
Mo 5.416496524426225 4.2857920358831345 2.152196112531192
Mo 0.6264110979912464 4.290577413569097 2.031123105893763
Mo 9.233587825478862 6.5541974552170785 3.9930060441703517
Mo 2.149721015171098 0.9470340633894426 2.716254438268199
Mo 8.280729676639076 4.009532275161843 2.335728388211826
Mo 4.506094401490794 1.2168115377592605 2.110397111244807
Mo 5.704013031187957 10.010624774321922 3.9061601714795713
Mo 3.016622524813973 5.664833137110388 2.4656022453335296
Mo 5.004410829431911 6.810900479189158 3.7524507235353988
Mo 7.09281422630053 4.992789843863836 4.358027984591448
Mo 2.9577540485692646 2.982119619813688 3.5240820335949357
Mo 5.66162970862557 2.5852368243774655 4.20648063764496
Mo 2.780687169406905 8.357395358381497 3.532837879880602
Mo 7.632293270352952 7.848566306500642 4.662263405630161
Mo 0.8074673712670235 7.029769037900823 3.0645428695314365
Mo 4.164973169216353 4.640178268707263 5.0334696657012925
Mo 1.3557447169841395 4.813472963238735 4.734265998522797
Mo 1.1544108017497403 2.180892324086472 5.503928142146449
Mo 3.8220222473366556 2.453657157223923 6.397741077996626
Mo 4.893633822548744 9.076654211555686 5.553038346227097
Mo 8.276700981790754 2.2947173904345566 4.804879987538346
Mo 3.586587332392399 0.416896337701542 4.67032018023293
Mo 0.7858434912013046 7.106805871534881 5.426745949869399
Mo 3.116267970627337 6.845655250772693 5.9787429154208
Mo 7.167667101961498 8.484311343846628 7.616058305907898
Mo 6.583133428645753 3.753456035766437 6.669207673182372
Mo 9.254346208805044 3.8818632388770693 5.524819426717817
Mo 5.875701372743022 6.446236392963604 6.257651316053096
Mo 2.9810725476473627 9.315039271326603 6.389049078977189
Mo 8.447507827305722 6.251498780646788 6.554327035974641
Mo 6.058263231749075 1.0071936822417593 6.043897449232325
Mo 4.490961101245613 4.909035283375545 7.894759613373987
Mo 1.8765860029493884 4.527565101344202 7.069354207986263
Mo 1.4847732836025835 2.0584478278481346 7.507944775372205
Mo 4.47406489981238 7.990258371244535 8.054107188915408
Mo 2.578441136306444 6.5920226244600615 9.02596447797427
Mo 8.23196420128283 2.178741762008969 8.00012469981186
Mo 8.825710101735536 4.022631679675823 8.358891613031394
Mo 5.334677095200215 2.1845843770346773 8.556542235072474
Mo 6.8719546352432985 6.735062396374475 8.666290097168522
Mo 4.184789217490446 6.148754909742136 10.11937716414939
Mo 3.276362242151051 3.2279886587303173 9.141474800165547
Mo 6.4237135054703085 4.052209716079098 9.410002555972424
