54
Energy = -502.44412048 eV
Mo 6.167616761210995 2.745928514254128 9.332902207936844
Mo 7.785297181924967 11.088937781649525 9.99752479997741
Mo 3.188941319872684 8.312549167760304 5.388866868549457
Mo 4.5295641273368235 10.148207470112618 7.892593111275809
Mo 8.019556092494279 2.635149910011283 7.415189171763117
Mo 2.312916926968881 6.974524726002313 6.276702606583965
Mo 11.098427085476247 4.853963080906261 4.500596019770909
Mo 6.794139548697652 11.07540131593313 4.710822755785089
Mo 9.353238063964126 11.023097465376917 4.835937005424717
Mo 5.159933882144997 10.735350119534262 9.96531130890294
Mo 12.23383165260662 6.606694089543826 4.511873542050836
Mo 9.910168168341094 7.2651240228168685 3.2678438092438093
Mo 6.93502576768202 9.070458879638092 8.521184344799828
Mo 8.831179822783415 6.997121103951098 11.30523495811609
Mo 5.1210432780824595 7.673750973332851 12.79492608286082
Mo 4.590032061955825 5.410811846817905 11.067266080855978
Mo 10.79542440919615 9.32845745421534 7.654377775804701
Mo 4.57234555794938 7.47301106102888 7.780685818196488
Mo 9.190118950593076 11.368676209744189 7.764986472258213
Mo 9.552290751172595 9.170583274103818 12.727453721444041
Mo 5.358933715705056 7.834337799032232 3.1371654573186833
Mo 9.174516163902807 7.352886957189072 8.522558489138646
Mo 7.119454704999209 4.216647598014099 10.857263965421655
Mo 6.758444475956548 7.203630201348803 2.0461412262342007
Mo 6.9404817007855915 8.876820361915687 11.380046820271508
Mo 7.124321771656071 6.5516626705647365 7.122616696594023
Mo 10.743435775357563 5.6636497271945005 9.826441485103722
Mo 6.177100626611439 4.836071998149391 3.9889341307554167
Mo 5.921558967716688 8.954278596954806 5.68856491578821
Mo 6.545138412301545 6.761180043329161 9.933777912630216
Mo 11.142068846070426 9.035208172124662 5.129945178242289
Mo 9.41090635373064 9.49276311319147 9.955845366845125
Mo 7.596913267571007 6.89056667224393 4.592449373357057
Mo 11.87082125286221 7.055878866120878 7.551895196568309
Mo 4.394928772336489 8.275405677605528 10.083770721606435
Mo 6.380170762266802 3.901395299110462 6.534639248586663
Mo 2.644147521292097 6.741755540617184 11.121322464142365
Mo 8.424113979760332 9.229742894432139 6.2581276146613
Mo 11.356602460960392 7.594302834862303 10.228765170669053
Mo 2.8085353595089133 6.020403886353796 9.052286183846627
Mo 8.04125883285678 13.266652634846878 6.052605572458342
Mo 9.901302130395853 7.060406682566701 5.9396693219432795
Mo 10.035332100775681 13.102476328444073 6.16552354050588
Mo 8.146658478053567 4.659895927177757 8.806735446204444
Mo 12.44670760557574 4.761241145340354 6.5724993328268875
Mo 10.281159301040413 4.750697125187272 7.291983211202707
Mo 7.892567730376768 9.242718011830526 3.368714239727564
Mo 8.231854540346118 8.421165694441813 13.751233495231917
Mo 6.683667256618566 11.290886776471039 7.322851625060344
Mo 5.038885020180621 6.103417393556067 5.497335193414442
Mo 10.287149118548689 9.483154146666166 2.7986422344031334
Mo 5.134213897440833 4.845777235295562 8.705899223699248
Mo 8.463531383592198 4.592321285102188 5.405487602979465
Mo 6.5660952305191405 6.302914987006403 12.825461447023727
