55
Energy = -514.33655555 eV
Mo 7.643268826755076 11.15045372648984 5.016879704026247
Mo 6.147693308677323 9.351667116174877 3.187026644038628
Mo 8.701334103738517 8.535689161402653 4.350932621935533
Mo 9.02842402257963 5.944289369782795 4.54632788864306
Mo 10.525568808452551 10.462885056966963 5.236260075691875
Mo 6.884981983378864 6.631452909492223 3.926813116506788
Mo 8.554795644033817 3.613651611928417 6.31549936578955
Mo 10.989920212015118 11.530998623500814 6.96631698287349
Mo 5.160638699139644 13.009139450738758 6.313360955357716
Mo 4.674969705994271 6.855687383842939 6.636572054321608
Mo 4.697245352432609 8.195299952098297 3.967754480582393
Mo 6.939979762836831 5.713079162435459 6.217397658437767
Mo 10.770657265918999 5.252090845036621 6.5195081435228435
Mo 8.623400314362966 9.952867194873559 7.165569086856155
Mo 13.33496250678209 9.890747691184101 6.14269626285114
Mo 5.035581118323387 10.666149079280922 5.247181213341486
Mo 8.46300668408175 5.49061324123675 8.306362468982252
Mo 9.055795512323922 7.421813871991031 6.657017252012907
Mo 11.161855544587054 8.90448323451543 7.5747657771788495
Mo 11.55353782478978 7.712670044475951 5.303452803839367
Mo 5.8741035230759895 5.6932475971259 8.910909851519492
Mo 8.04224007764174 12.606095548489042 6.507460884002522
Mo 6.628629609834235 8.510805994260387 5.820707385264352
Mo 6.220412073775207 10.80707217543567 7.606341022175187
Mo 7.034679018729613 4.427014892223733 10.95632328963745
Mo 3.9511844735206276 7.2693172625250035 9.390290197764413
Mo 13.490032943820859 10.423699416330372 7.890558510074926
Mo 10.668854992967757 2.777263636615485 7.913461195893129
Mo 10.76167562270881 6.537129237903193 9.083714864226963
Mo 4.141923183196245 9.002515237007183 7.095256488606113
Mo 3.9571332522306 12.026044952538957 7.591886105699307
Mo 12.645359563867085 6.6418523713021305 6.876950779435029
Mo 11.282252814264146 10.548276505688984 9.827571569531504
Mo 6.683775626246793 7.967084519749396 8.469630723126688
Mo 7.727825326074742 3.119117123935622 8.153910907331067
Mo 11.861807444959899 4.061294004086595 8.67749703369999
Mo 5.876624098040283 7.664087863198146 10.977594407079907
Mo 6.5486092747569495 13.103097369976785 8.993291218604119
Mo 4.488570536410654 9.515777231428117 9.53545056242245
Mo 8.39591717440018 6.488765914250764 10.801810239691413
Mo 9.329359502108854 8.762461022719316 9.465363974859097
Mo 9.030036053223474 11.673418474516968 8.918867834704741
Mo 12.330159405014447 8.380387202038838 9.928906978414927
Mo 5.214016615990626 12.136745570444171 10.158126533924161
Mo 9.519683277187562 3.9039335248979334 10.18621272474289
Mo 8.078192596583232 12.600993324355686 11.36519980042652
Mo 6.836868032168953 11.233960336529448 12.405846302091689
Mo 7.12804494774655 10.26399970331246 10.014416986210119
Mo 10.774112897163015 5.6674234398493075 11.482767601204184
Mo 6.959270108373994 6.291509568526354 13.16483287058175
Mo 10.6790980653123 8.237172199008908 11.618091124696601
Mo 7.913229058477382 8.794473014153736 12.099011436295413
Mo 8.731470940590754 4.177209808703272 12.468790788906285
Mo 9.534277046123469 10.686398861211044 11.727202963344675
Mo 8.875518948968658 6.8771916949715886 13.48061561378168
