53
Energy = -495.43400336 eV
Mo 3.209301291118342 10.018375441084864 4.889444748113015
Mo 5.2426136231062195 6.116141860143543 8.342766694173244
Mo 9.222698667278767 2.628878774971947 3.537327173567742
Mo 6.863261070582686 8.800014114380485 7.341915111311662
Mo 4.664997337854515 7.278690053560176 10.836581008447693
Mo 0.8672444085305853 5.672958401044067 7.484274909845004
Mo 5.243180029993975 3.892952518145883 6.791837853121298
Mo 7.031138838054736 1.9457190991662228 7.489424553282526
Mo 9.493289535615803 2.9785508379179664 7.330204233939046
Mo 1.8579296464329027 9.423200289341437 3.589243602584665
Mo 5.3443185784479 1.636103941857866 5.368009451194898
Mo 9.393446075278812 5.762046810341791 9.766937680304698
Mo 6.656227283505243 4.965272969167067 10.55154883562526
Mo 3.113213444225691 2.9636385651419554 5.327483385685558
Mo 10.379653831791476 3.835306405223448 5.190142043793199
Mo 4.7341312555373305 8.67825166381843 9.542244331992135
Mo 4.351707211804514 8.305603124197589 6.6647877384923735
Mo 3.4967014402716767 5.730202573778866 6.080717628251741
Mo 8.941943377502884 7.66212085933447 2.6446730658841777
Mo 7.111654536426458 9.207095777267583 2.342264791305257
Mo 5.246444662270593 4.527898706746611 4.211920325759214
Mo 2.737423922719935 6.891206683622796 8.500854512922947
Mo 6.365720919452342 6.5255162767165835 5.855763959296129
Mo 6.379420994796706 1.8968773760063076 3.425147970636531
Mo 10.606008573273211 3.8430471597312197 9.523790684437683
Mo 1.8144352501264687 7.4863769600807455 5.728917820693642
Mo 7.170785360771099 7.199394001032519 9.499580736878377
Mo 5.320540946618903 3.5121404259581492 9.287865240868355
Mo 4.541649897180914 5.4233474823427334 1.740973097066919
Mo 1.1739507408198235 6.838030141687465 3.055392403222915
Mo 5.436718880250726 7.8120262609020426 1.1856906734818593
Mo 2.6168503568460277 7.1779577896010265 1.4925475787643327
Mo 3.448084411444681 4.852826958126742 10.04368475981493
Mo 8.359685850063602 3.2152386714252086 9.722211518952571
Mo 7.564718725088465 3.780094638776584 5.210999448099733
Mo 4.117289674915848 2.695205844360728 3.006725392668603
Mo 7.163009556815636 5.9629552337575635 0.8394015953808751
Mo 8.012788676607704 1.17359999491569 5.827003177812027
Mo 4.007488130908474 7.363593561202185 3.863644311406694
Mo 8.690107973833811 7.730893665082718 7.405052398511277
Mo 9.137530896705638 4.841249394647314 2.8867208875196844
Mo 2.634982549210068 4.984749552453535 3.3145519777177506
Mo 7.70982722438161 4.978618621659427 7.88039823621032
Mo 6.925162288878086 4.09609551151276 2.062131538393621
Mo 6.01634832701136 9.204432464177446 4.535330689393396
Mo 10.355826559345996 5.403602421255762 7.446965467757126
Mo 6.761975535128286 6.663575328952786 3.2958062850993066
Mo 2.315834357901001 9.140550288827978 7.5402946578257435
Mo 8.33791935996101 8.512561926991664 4.837118240399039
Mo 2.6946703290886425 4.019055682739082 7.908178503369946
Mo 8.923402226065376 6.0125229169963905 5.278558233713385
Mo 1.2139109372802392 4.6374969621552955 5.35176072758028
Mo 4.296951243306227 9.412253838099064 2.439304929858138
