51
Energy = -476.14294281 eV
Mo 3.2369374845682124 6.0791283326624335 10.459865036183862
Mo 2.698356755588877 7.53838214924225 9.107830187919348
Mo 5.750872117566392 4.920394985227408 10.113020532126217
Mo 2.3088499917622984 9.418307267326457 6.934877095273092
Mo 3.1625386670350526 4.745741738894208 8.173659664070623
Mo 5.229338725781036 7.909881304291539 10.30575071513031
Mo 1.726278864150366 8.715251088660501 5.030213879394484
Mo 8.923049934424265 4.723585679399562 9.970224311701015
Mo 2.5591122202233736 6.602486232058428 6.597090172585693
Mo 7.028651336686823 9.811282111255428 10.399960783263033
Mo 4.8183225713157825 9.484763608950857 8.229552745371258
Mo 5.427661900944642 3.3479292507168954 8.031307816532216
Mo 7.227697445614943 3.058205322657175 10.030808832586537
Mo 5.012652085674552 6.474214903741738 8.18355169122536
Mo 7.547830340765456 7.0048705445864075 10.173716009592674
Mo 5.2275848163058685 11.791552710363709 7.310214434402974
Mo 4.612934522848981 7.924130466108783 5.8757927662701555
Mo 9.434286623472577 2.513310916479601 8.931218504641972
Mo 2.279757275366406 4.260583166510238 5.4006712531758145
Mo 7.389577488976703 5.227425962257593 7.972893102692074
Mo 4.111336300753605 10.378026028186456 5.494022670145674
Mo 7.191824578183639 10.978765267816467 7.9229663306113585
Mo 6.95673726812996 8.22570850580278 7.977747591017613
Mo 3.544832151374982 8.912398176674722 3.3620526587223036
Mo 3.2660741122192367 2.7368634628094006 6.407469325300518
Mo 8.854969665948131 9.071186598641795 9.788852468837478
Mo 5.071202426337787 4.965593822931354 5.935807512908487
Mo 7.305384682677561 6.939426779155485 5.727410486594713
Mo 6.647227787623216 9.926399807743584 5.77796880874371
Mo 9.823053887748472 4.377980368564158 7.324194741446126
Mo 9.54331252201797 6.9603419487326645 7.7189071723963405
Mo 3.3821754521953586 6.540680254894656 3.888646947469695
Mo 8.00248754537925 4.243415629924288 5.242200989451838
Mo 6.026033807938328 8.530479025384688 3.690633809461275
Mo 7.695856296602099 2.4229152197059136 7.231859474923632
Mo 4.245373287061716 3.6886758659243455 3.8821039386573717
Mo 5.94749945946758 2.483088587158549 5.358487201905539
Mo 9.091573116017816 9.157605152691092 6.373574485938331
Mo 5.974837505392616 5.926066014087277 3.6040752995443204
Mo 4.63998537898072 7.22279799871029 1.4540026693955312
Mo 10.684405417477981 3.61911659735539 4.592584979021712
Mo 9.940625161454733 6.417453235860091 5.603642403277258
Mo 6.559629546689334 3.531274052257401 2.753088045627426
Mo 8.751627437771397 8.667040670425093 4.298211084593598
Mo 10.159856512367483 2.239411528503161 5.969337665662928
Mo 4.129035961366296 5.220065716104303 1.6652900926335794
Mo 7.404429447820488 7.447441637562831 1.7158305631337467
Mo 6.802007910623217 5.321790519447538 1.0741500329175877
Mo 8.283637958413843 1.8869964802543566 4.203816485746321
Mo 8.580334170635018 5.99793368675994 3.2945091017956454
Mo 8.902581788013832 3.5162133376976548 2.595226354998645
