54
Energy = -505.4577574 eV
Mo 10.521686906449224 4.9238232878029375 7.47852515962168
Mo 9.267684736211612 7.147109902804044 9.148335295619834
Mo 9.248190193556098 7.641541398945298 6.7020270360144805
Mo 9.869734598058848 4.365950370172337 9.1645565866813
Mo 8.753551606875329 7.5923782358862395 2.917309497346269
Mo 9.305165096175424 5.944337432815785 4.819674577562848
Mo 7.684519569863709 9.841812476750063 1.8518606189476705
Mo 8.258554991335608 9.149852017008792 8.943876701018441
Mo 9.786044395845492 3.104484792431124 5.028287954569609
Mo 8.841369033699303 9.150082081481845 4.6289374288007625
Mo 8.833942702766047 4.6449708542176005 2.5186727892257004
Mo 7.906723033915109 5.1333060388250855 7.288309431728955
Mo 6.728009717789175 7.996748462877391 10.37721764074496
Mo 7.378726028107253 5.536963179782944 10.031842899844769
Mo 8.265508442564299 2.8121301928847715 7.382093614592377
Mo 6.985956629418718 11.347774178206855 4.18178042852472
Mo 8.94617454001401 1.938011647279058 3.660505281895118
Mo 7.029138654875508 6.907753129759269 5.286932677842122
Mo 6.657866070364068 8.258441820535477 1.1444009941141082
Mo 6.687650222364521 5.995969787312127 2.899229036767156
Mo 7.383259913277578 2.830008569447921 10.148659813207914
Mo 7.2207138966188475 9.57354257326329 6.3764481649599745
Mo 5.475405636350003 10.085223788216938 8.437510136537684
Mo 6.133229008568321 8.778295139012558 3.7708636521357644
Mo 7.178811149082073 3.8744857837762376 4.851819884942575
Mo 4.7063916360119045 10.30173055764245 2.2107245063048055
Mo 7.271425098717849 3.3697999082388956 2.096282409378317
Mo 7.314256911288152 1.43095483752072 5.573605331801327
Mo 6.509688323193802 7.251323920925899 8.032089560165598
Mo 4.747428861554132 8.345120844857624 6.31844810850033
Mo 4.185909627488963 6.714828103018091 3.8871840964983506
Mo 5.2790665812281 11.003427520252684 5.097330912523798
Mo 5.671884554737392 1.6631980531650719 3.703369734609247
Mo 5.602150778251246 4.155420176423075 8.204655587360579
Mo 4.86637043723263 3.8621911818123014 3.3356606990629207
Mo 4.595816925639699 5.569516122608065 1.2450463187846357
Mo 4.341907869436474 8.776931867747443 9.227291328581783
Mo 5.1195250704253 5.272202347482185 5.904583366325878
Mo 4.821847334774083 6.045086368706067 10.342214494477814
Mo 5.834194376406772 1.3798140566001758 8.052959597868249
Mo 5.773736893102265 3.3649768001639146 10.906464671177476
Mo 4.052581770150448 8.449450725839545 1.7878354986612595
Mo 4.85767937188197 2.4932032734332927 5.848875716795739
Mo 3.404298473208417 9.00216908622201 4.462253232856918
Mo 3.84134610842929 6.304282366109157 8.005102429684262
Mo 2.844364659749072 4.140020468863296 4.842131642359411
Mo 2.817837576504172 5.449540752118705 2.1628685619634065
Mo 2.190403741355278 8.289248523491914 7.126556749135614
Mo 4.0385624698734475 1.8863011669730978 8.58116089586787
Mo 1.9637852137542675 6.8932993429375236 9.94189075798722
Mo 3.323794378033611 4.298891478896329 9.646802819759348
Mo 2.771149192223247 3.995942798723526 7.018920627295908
Mo 2.201960033753361 6.672043900392947 5.884976417083145
Mo 1.140324553086114 5.796390961267344 8.672631644085264
