55
Energy = -515.32545336 eV
Mo 5.7713012310805984 7.478903973094231 4.323653350085868
Mo 8.482539923975382 8.53198019158673 3.383427930448091
Mo 8.479071105624914 10.708386226199652 3.9980997769667206
Mo 6.4763500858512275 12.711046411877824 5.018068083043952
Mo 10.517851208797923 11.570679112701345 5.657711268279385
Mo 6.160251007765853 9.932609444127039 4.6445936215906904
Mo 7.84028036889262 5.860830261487116 5.4717034469912535
Mo 10.602571206987 6.45973508728954 4.944580113320475
Mo 10.590617039369612 9.088753224684039 5.176530032916822
Mo 12.19012631810227 5.64012798564611 7.5647590308708255
Mo 7.338835445914928 3.570917690634631 6.899063633147308
Mo 6.814212262306997 12.741381028885487 7.908230406187635
Mo 3.969133526385262 8.025216565466426 5.713101336518682
Mo 8.237899223155866 8.405142676121393 5.782287618472715
Mo 12.886074490039295 10.375436216352883 6.609451996106562
Mo 7.8064559352291445 10.90706970241782 6.707264471679331
Mo 5.919473488698813 8.581533893947615 7.088542348906521
Mo 9.789564948208291 7.042011174178654 7.392652244136008
Mo 12.296175379334525 7.669953749201862 6.8517058807613
Mo 10.061528349702566 4.639567326124772 5.893702642226066
Mo 5.315940634960085 5.430013273485016 5.664477970812153
Mo 3.6466677645347136 8.971967202289786 8.741993165580855
Mo 8.189767096960354 13.405837619684808 5.289007697882761
Mo 7.044513728425204 6.1874110005346425 7.808106867113643
Mo 10.339882910184937 9.813722223711947 7.780791717392106
Mo 4.700178230881029 10.614743713936498 6.536792807864753
Mo 12.448605706115462 11.97130767940098 7.708117078443194
Mo 6.072779964045728 7.7169970023960675 9.93071129585926
Mo 9.856566436791532 4.612993205635806 8.581764515967297
Mo 5.294336589273554 3.7986486301509492 7.577916244883084
Mo 11.369602892097415 7.147943835408924 9.496419850176837
Mo 4.3772824581745535 6.47939326336249 7.825676268831708
Mo 3.2949590272614486 7.522030091604257 10.21043603355309
Mo 7.533700195597276 4.0922838059393944 9.345020011282568
Mo 5.817251995251794 10.697744618826894 8.86216017372004
Mo 9.776288633732664 12.596376690778937 7.597511397108417
Mo 8.535211341898076 11.60508777955761 9.425857462126489
Mo 7.186347536390586 10.156475759319243 11.027191444387459
Mo 9.290199829776022 4.031821094250746 11.336683858900813
Mo 8.723532572941036 6.54294719762475 9.988532477368707
Mo 5.235205167848291 5.350839021418796 9.955608541261793
Mo 8.0626059971206 8.909436035564536 8.701568348814224
Mo 12.433378427750293 9.482251946965448 9.248132025938979
Mo 9.880337010408367 9.146537173457363 10.63404587471485
Mo 12.291395889417764 8.126110589839495 11.827718248542649
Mo 11.09663545386161 11.360491911443859 10.007452635950639
Mo 7.65180361407806 8.236786893378683 12.398138117048571
Mo 7.020607001120833 5.701107556444197 11.823552932223027
Mo 4.761547305067859 9.196290677224518 11.392925096836237
Mo 12.130632495948245 10.071841926321477 12.171356606380982
Mo 9.247451208192356 10.779339221987344 12.448776584351261
Mo 11.150864600824558 4.715792115359412 10.68217078646514
Mo 5.259967585886038 6.971601552535993 12.453011890002294
Mo 9.836306579884285 6.751983851325918 12.101727623938281
Mo 9.97295228361351 8.938180608548075 13.465135827359413
