51
Energy = -475.54465854 eV
Mo 7.052647331414726 11.016039087421793 5.766659872280126
Mo 7.0643387300873846 9.846748293600857 3.5081224231051458
Mo 10.742037948567976 7.2275382015403675 5.174490748460773
Mo 8.671820220649511 7.1323043892740134 3.2010176978438882
Mo 7.77213159547912 5.499943507288446 1.735884452785441
Mo 6.8355811363081465 8.205788265014647 1.713914468847201
Mo 8.656844294055825 8.955481611098518 5.447706071018479
Mo 9.532392138029385 4.914960805962162 4.136289876580069
Mo 4.9240168882595095 9.698003781355363 5.383817546430133
Mo 10.939958333388605 5.36345979323428 6.131401888515206
Mo 10.232116356208842 7.915036502690079 7.606388260914771
Mo 7.005640900515846 11.509229183832838 8.077124534065083
Mo 4.557116819040455 9.906748139801566 2.4893386886755513
Mo 6.531673315331935 8.717266508164078 7.171406575867935
Mo 4.188987581977022 8.474534749282368 1.2306624344932098
Mo 6.285753325433848 7.663165472798429 4.358771332066987
Mo 8.057981755301697 3.090647523148091 2.8465276913360493
Mo 8.18451390099328 6.41140791064786 6.28984790805921
Mo 6.912442076883441 5.149702862025321 4.2526880204455315
Mo 5.075039099724581 10.819931689406426 7.960801658322097
Mo 9.333189292867084 5.258046548441453 8.374823732666574
Mo 8.457791933832183 3.6117683793585664 6.031927240236904
Mo 5.356271087793756 6.191558466294994 2.208939846906682
Mo 9.852797305948044 3.091641614445047 7.924340618210891
Mo 9.122515204400786 9.80598222168772 7.726264575595778
Mo 3.654008127173757 7.550798164212839 3.7151151099244752
Mo 6.273684205054647 2.3528691691861634 4.948158284415884
Mo 8.188120240561737 7.6485505199922255 9.205872750683124
Mo 7.054587663915564 9.637066858324198 10.291413122529859
Mo 5.984729009524554 3.31334406173373 2.5191720915508733
Mo 2.4444151922045982 8.669912140124286 5.473601929599038
Mo 3.4629162278411982 8.714853617282094 7.612159018193035
Mo 4.529340483884461 6.765069734554193 6.3190211116189205
Mo 4.407546107627399 4.92121409119455 4.25300319260546
Mo 6.326735383096894 6.052315234571182 8.341308680175025
Mo 5.139662980775913 8.161898917724868 9.414592073455028
Mo 7.159220082416175 1.3182362007848722 7.464195497917921
Mo 7.4450354340736995 3.658103355497795 8.886770317552868
Mo 5.825779483319777 4.084773497503456 6.5840934070639685
Mo 7.706625829066626 5.649772585082556 10.650130278263925
Mo 3.653114189968205 2.586131043783292 5.206233169401727
Mo 6.827068534426253 8.17102412243844 11.605679961542457
Mo 2.0466019810703693 5.808272804661903 5.109507985858781
Mo 1.6096843551276785 6.713183591526212 6.944495698087334
Mo 3.6621603723906424 6.116027642860968 8.756448434173222
Mo 3.1652945650809476 4.278783547690326 6.914977412317554
Mo 5.260797601270607 5.866051842630971 10.942359286616396
Mo 6.231453299171514 1.308436425144526 9.138299652977144
Mo 4.632851373719912 3.7781043536779495 9.098948973431915
Mo 4.457416088746747 1.7669483624606122 7.056259093838412
Mo 5.913669443925214 3.662940199288995 11.087638861872454
