53
Energy = -494.82176926 eV
Mo 6.635869335978427 10.258395434678873 4.349194755636762
Mo 5.309003256350256 7.888591095281307 1.6426424602605854
Mo 5.4261566275942155 4.779806260046811 8.578030830321927
Mo 3.809106126179822 0.7662473428685361 4.2450049746657434
Mo 2.244448044407739 7.529742270843224 5.828812376607279
Mo 7.798440067863004 3.6745354285973124 9.174529241755241
Mo 7.150058962280075 5.958119031219542 10.358598702376183
Mo 5.928043055604202 1.6076867304060038 5.242533591750425
Mo 4.201157779319191 6.618755789679084 10.645308818474456
Mo 3.5437858734680976 8.331679967127426 10.071571957296715
Mo 5.656691651732881 7.5633378260951645 8.60391015377537
Mo 9.030758971508913 8.026358091635826 5.821898439059957
Mo 2.899371934885517 6.4007961715765305 8.114708577600734
Mo 1.9893811184217838 2.6328230380561677 4.582091535313756
Mo 9.041805628294941 4.510745576666386 3.260864861931852
Mo 7.604965204174377 0.9388985339092574 3.186867953188256
Mo 2.7825127019804774 10.132235797184086 4.723347843618409
Mo 6.463659891195935 3.6318514804752122 3.6661653420506024
Mo 7.160862569881185 11.049463252538466 7.1566128036546655
Mo 7.038764295751656 8.16054017190244 3.1087499184532756
Mo 2.937285628699248 5.997890107265595 1.509246003191756
Mo 5.758455915563439 2.095554561357783 7.896846241154141
Mo 3.2683001331032315 1.512636920764361 6.298796508295845
Mo 5.348014936616782 1.703886069435433 2.427468451902695
Mo 7.628532204057736 1.486572677044649 7.371984845632932
Mo 7.195142910886372 6.0724345004815365 4.752491964381113
Mo 3.170623788551841 3.9918095853631836 7.936636717922834
Mo 4.365278504753519 3.8060583510839407 5.566755655648452
Mo 5.023310703846135 5.899301135863284 3.279769146767359
Mo 8.066152890160934 8.908537442714936 8.358835085823396
Mo 10.163484061387534 7.2352962053239365 7.414332287531761
Mo 4.823830325580472 6.139709058313495 6.439852680262487
Mo 9.58840184752771 5.327276259498716 5.507887074133099
Mo 8.771744568566845 2.6647813956117985 4.669663623909023
Mo 7.06810744543926 4.043494671025067 6.417454840724395
Mo 7.824573576900412 6.19581237831945 7.704567892093228
Mo 5.719119356379762 4.27020170068959 1.04462355928531
Mo 4.5782723103609 8.128471978560825 4.502527487943332
Mo 9.829623402930896 5.21973314344256 9.45437047905594
Mo 4.464523819451145 10.870783902236937 5.707045772816962
Mo 7.06840727821374 5.576890218318752 1.5681149102485286
Mo 6.666053794503813 8.546386057877521 10.45462745514353
Mo 6.4670237558965455 8.562157680629223 6.249036824222384
Mo 9.4215384180113 3.754652589802207 7.307924241669755
Mo 2.676439415008592 5.511351180423565 4.354825002746846
Mo 3.6066632852397245 3.5231579180501096 2.9586022500505655
Mo 4.801859089705086 10.002351255432778 2.8682479843821413
Mo 1.6088937123356202 4.490963916090731 6.226690383396073
Mo 5.64469009111298 10.417227925876245 8.338145093349224
Mo 3.7173745319458025 8.853128617690363 7.133825508074385
Mo 2.5889467845734284 7.552639100413417 2.555106246270395
Mo 9.059799317253239 7.179609817166352 10.184871253850629
Mo 8.061560163476074 2.59676258238424 1.831646128615284
