52
Energy = -485.11498991 eV
Mo 7.898872128353329 6.062519795883683 11.090474955938657
Mo 7.048707812716632 6.489014302184787 2.1932802798545494
Mo 2.439563714945999 6.068582228602189 7.640674506051321
Mo 2.4365020741905483 9.779838846359109 4.733601471751415
Mo 10.915112204746741 6.765348095175075 8.010374738156441
Mo 4.496443331046861 4.269290752940177 8.136081380712865
Mo 4.783933180549372 4.622636189401031 2.8682529662593383
Mo 1.9991988504490439 4.438999786519632 3.806105933691498
Mo 2.2987129384636136 7.085352047423167 4.804137874215615
Mo 8.783156606319427 2.017005237639349 7.847707845318091
Mo 6.087786541813287 6.589514604255225 7.238421901653524
Mo 8.341403748850828 8.486602047009297 7.598401668582037
Mo 7.837101318745861 10.693497979608333 9.322487972115173
Mo 3.507423082996644 2.7018419443171453 3.82713854417211
Mo 10.168835699370165 8.317241016180397 5.62208475736208
Mo 6.269820069487508 8.74417829201125 2.8520971521545855
Mo 8.843432660387924 7.37111037666552 3.424765673094877
Mo 6.821018934153315 7.868235998099611 9.953524800103779
Mo 4.503455211094965 7.1292484536027185 1.2513611898598673
Mo 6.117384243146112 2.2702633240379213 9.267447080727319
Mo 9.98228720050845 4.1277671195703745 7.383032548566432
Mo 6.929960662629243 10.9227859326968 6.612908470227137
Mo 5.743596011365074 9.361254273999425 7.933651601224672
Mo 7.157735806086769 8.424068482369169 5.177942102076635
Mo 8.925130862463226 10.20438330042759 5.410212326791679
Mo 3.2221881514880177 9.196068552272225 3.040315257345171
Mo 6.138856519564655 4.999315340107081 9.944395179162843
Mo 2.9100458514562604 6.449636968914439 2.1105358386525994
Mo 9.432931061363458 10.817477675716974 8.27917181133457
Mo 10.675099090678218 5.6598568836875875 9.645413986304776
Mo 4.979875619762257 7.1178310457385825 4.03831289448838
Mo 2.7599889067891654 8.830300743087543 8.520432432173145
Mo 5.059986207936904 9.913975443434554 5.116651777925463
Mo 5.082001203527472 1.7975413558045361 7.659284349512633
Mo 6.928359012086489 5.364682250063097 4.599448732604319
Mo 1.0915714772277203 4.9526949957709325 6.042172262882753
Mo 5.614109442292348 2.9574180466329887 5.202902132385526
Mo 8.46373420903294 3.7245526422295763 9.719619910657041
Mo 8.745088202212647 3.278053433978206 5.237740493516899
Mo 6.985368937738849 3.987161889431358 7.25446659048549
Mo 4.016754299088581 5.1158873874412185 5.467570641080288
Mo 8.894633900688332 6.139116376034832 5.964997203637977
Mo 4.013506298959187 8.070615899087741 6.4112658113905585
Mo 10.909944640286907 5.370644868447883 4.830676701446512
Mo 7.566156605295699 1.4318177398055045 5.9617880771532885
Mo 9.506248580978893 4.998218788252839 3.3002503732219983
Mo 2.7569518576040126 3.2291619840999406 6.308486066154883
Mo 4.491329045800232 6.952240191593879 9.097262833794087
Mo 1.285818451406028 8.069312128632854 7.183729731454304
Mo 9.328512137698466 8.28119603955402 9.769352734683652
Mo 8.306488563806987 6.00237495786526 8.563052483612573
Mo 7.014026893092338 3.2931271932778383 3.249954701982821
