55
Energy = -512.22338402 eV
Mo 12.150444547349819 7.8534174870492555 4.336130735503269
Mo 9.975565052428538 8.918792854809055 3.5972848114944207
Mo 7.518654771893402 9.96040233380215 3.058516619014453
Mo 10.056755407617285 5.912574115753305 4.091778275492481
Mo 12.02406659818087 5.495498918045848 5.246354116983229
Mo 8.382379008223326 4.028506362642916 4.593672635763843
Mo 8.068288078076746 9.050941058354017 5.646030950014712
Mo 7.902580727768333 7.234961427923609 4.012388377893578
Mo 5.97274964346758 10.485995948498534 4.968184235870727
Mo 13.052954652084942 8.835098894737717 6.437321316901453
Mo 5.563403796108263 7.568021644426379 5.83053838903618
Mo 5.613070778358182 4.737497402648445 5.4703466281835755
Mo 8.581205396314179 11.38416222040817 4.247848343094511
Mo 12.241021099871071 6.476493446425349 7.755025131175713
Mo 3.8663043586623616 9.471401476953359 5.845845470556963
Mo 10.331533938499092 7.6441076287638134 6.185667355497648
Mo 10.030326668007927 4.930999616796126 6.956517979479593
Mo 10.630610319408754 10.22328652219041 5.417423576249626
Mo 7.346211779567974 11.858181732548916 6.628403221034871
Mo 7.71487936398338 6.10111788594562 6.217275726346317
Mo 9.467564034282955 12.537110243031194 6.792937175473204
Mo 5.791387770158338 4.008349662819627 7.711377644114644
Mo 3.5591246032983768 8.066395801113014 7.989578439710086
Mo 3.8025842634646416 5.779558494223083 6.360886144438205
Mo 10.305605575103025 3.2540551765594503 5.2391476422463
Mo 7.938058010802707 3.16331891339137 6.922789817416111
Mo 6.310705367377252 9.376118630083775 7.638783283884377
Mo 14.041717219954128 6.970646737411845 6.207181694592328
Mo 3.7812679142991485 5.326219895501376 8.854991024839908
Mo 9.280831853995238 10.248505008849309 7.802101101214411
Mo 7.638251692434613 2.772431497537218 9.736292426892925
Mo 4.257287157827623 10.745018689978252 7.643883948994381
Mo 9.515346429745414 2.994591602093163 9.043487896868854
Mo 6.259802734148773 11.699002106201691 9.113707532941211
Mo 5.705263164629503 6.781986510082782 8.447746137113066
Mo 7.905828705360681 5.290792877067014 8.80981827689934
Mo 11.257968871339717 8.658388887790894 8.422188509904258
Mo 10.525070909887315 5.622127908548159 9.655354111642191
Mo 8.618952208933491 7.694535489964246 8.401172314453445
Mo 8.596678975510319 12.452877028674962 9.364840581743856
Mo 5.26127595473036 8.926643541653053 10.01827638499702
Mo 2.053557694796521 7.032825339411695 10.015716532777729
Mo 7.094320157534453 13.244923290231384 11.36504393634084
Mo 2.6793803811698442 8.793574462633405 10.422301434857973
Mo 10.059806189957138 7.866234415559663 10.48369652976713
Mo 4.6835294641741605 6.631600725263426 11.134760157656384
Mo 8.794133783786055 5.0279135189453115 11.120094582188464
Mo 5.787605588871031 4.834077034730785 10.596413732502363
Mo 7.361905214442053 7.113927218809897 10.92244794270858
Mo 8.163882490258187 11.725605237396879 12.117437357212925
Mo 7.804426015062332 9.759968718351098 10.192328390993394
Mo 6.622560277602851 9.086056348106977 12.730501058958296
Mo 10.01542266507926 10.594369157951906 10.290453608697266
Mo 5.553731053766305 11.11162070666011 11.256731643364143
Mo 8.526015458093447 8.681025982397628 12.676832943755183
