50
Energy = -465.63527094 eV
Mo 6.074195062331521 7.2410269052462555 11.363185507525836
Mo 5.4605655052949675 5.011554352703555 10.065322723271834
Mo 7.491618496097517 3.6923980475484437 8.328551385331178
Mo 5.074781955434394 2.855798831506612 8.67019657471436
Mo 4.131864022123459 9.229690325851877 10.838082907899501
Mo 7.527443617953592 8.379349794835855 10.609524399763963
Mo 5.389643134400707 0.5454354101660068 7.059871481357126
Mo 7.571321385157906 6.177465793878318 9.212069570017027
Mo 5.438951124274368 8.0337029986107 8.695519175972114
Mo 3.4738919275952806 2.4475719901720208 6.527698069165494
Mo 7.206600152703034 1.1823865038261143 7.284483941760149
Mo 5.352256283758041 10.5068941070002 9.967841184780374
Mo 3.5107610329469816 6.41591487564801 9.619002649387857
Mo 9.415355729838375 8.511912310311615 8.362774276729198
Mo 3.065992827499977 4.273783892509974 8.502672668806753
Mo 9.93537624891727 3.239834071488657 7.633525328396544
Mo 5.389617945739356 5.515372525455789 7.499475221542053
Mo 5.765468308647697 3.203794634518338 6.0444307025362605
Mo 9.867998823831767 5.528586075014159 8.172742639201067
Mo 3.1888538029199722 9.339322091193123 8.453233355911557
Mo 4.561420605757859 1.2897130247204052 4.366009513108433
Mo 8.471995698607389 2.9207677489322394 5.253050961348212
Mo 7.579058476156277 9.859166650683568 8.348696066707513
Mo 6.669769141434886 1.1606203388616199 4.397646014302479
Mo 7.485892583624442 7.560249764829512 6.965968996608837
Mo 10.547921746302249 4.285780878235744 5.633080708758107
Mo 9.527682197112812 9.242678252400918 5.952611525449233
Mo 3.0148192927561523 7.08504626498865 7.3263765092905135
Mo 8.046989715939374 5.109658016382596 6.31363692271048
Mo 3.8550872003518513 3.6821543307663545 3.8008179511789324
Mo 8.434630956355196 4.75271448580837 3.4940801092644103
Mo 10.253268719896038 7.021068771952363 6.103334493051181
Mo 4.918134099944216 10.409093673778083 7.273912488217799
Mo 6.198396586806297 3.487110677224906 3.2990209253746334
Mo 3.309731606051217 4.8728229002375665 5.969210312627134
Mo 2.9800750552153636 9.378213568953491 5.728174480922854
Mo 5.180069295770221 8.094446001828986 5.844579858685496
Mo 5.753315021397794 5.711597350184867 4.710256671952405
Mo 7.047795724954615 10.052383796173677 5.747169369043532
Mo 10.106651115987876 6.280525833239822 3.8205471419233095
Mo 7.888260559136572 7.531645104406234 4.393895459266457
Mo 3.188416765095681 6.848561531918855 4.337315349007592
Mo 5.077422511598195 10.33170199417311 4.198211118785191
Mo 4.318881277918877 5.718270213341778 2.3246914933670295
Mo 6.539186312318822 5.986003884065029 1.9902764575081173
Mo 5.3895200596051005 8.157650779468373 2.988662879739774
Mo 8.691346612431857 7.575605219492477 1.7774025596658645
Mo 7.437927055670401 9.702211694392696 3.2537134757679764
Mo 2.9855126790347977 9.007242552982595 3.4113233388737028
Mo 7.172883672035738 8.478313376096992 0.9211694437686726
