51
Energy = -475.5466352 eV
Mo 9.471494546902601 2.3113203066643337 4.781408359929773
Mo 9.951344085056348 3.936383730179039 3.9416850159950325
Mo 8.715417474741669 2.0861562091908072 7.607624703855564
Mo 10.145429034142156 4.2572768159968115 6.903212277949023
Mo 7.098755656612053 3.4157615835154695 3.6041005842521434
Mo 5.224224007231379 1.8045818702219119 3.903005305619816
Mo 6.679918408457901 1.9483552231046755 5.892885325139907
Mo 6.480078631725651 5.0802801413002046 1.8722571799051422
Mo 9.577291195476874 6.569900283531807 5.713600834159232
Mo 5.571733517780219 1.3791414255539116 8.296508759304649
Mo 9.088025563055163 3.17300289968118 9.384577154106692
Mo 7.981231752822726 4.426600234990491 5.915328761339049
Mo 6.967268706021345 1.7708246481936816 10.065717720826084
Mo 8.195145718818777 6.0495775570457315 3.5149493511696233
Mo 4.458487805370404 4.027614280365101 2.9893137746975347
Mo 6.573093580429052 3.7890940908429203 8.105884317399164
Mo 8.595853903092326 5.535212673123099 8.470444781226325
Mo 5.03652450116143 3.9856402414049796 5.678061054839286
Mo 3.9229348463909646 1.8134897144112452 6.221508376997906
Mo 2.5592468041960954 3.284045581974246 4.6356438101790625
Mo 4.549877024788288 6.642449965693138 2.1477606720726685
Mo 9.532497272914567 8.419181917474376 3.387061358874526
Mo 6.658812336777917 8.113127757929798 2.791471734359519
Mo 5.877847144931467 6.122146973508833 4.39718442824925
Mo 5.3305706726486966 3.332449537661859 10.58691395425436
Mo 4.043634738871536 3.486228884009324 8.290266575436451
Mo 3.048349813654574 6.075904326851163 4.579047367224075
Mo 7.130454240983696 4.840241637967349 10.675787720800106
Mo 9.296891475551897 8.060127422480756 7.542044192581225
Mo 8.732061916395258 10.169173644912762 3.255884500423179
Mo 7.421618331117395 8.719760861084827 5.379970424534196
Mo 4.553428922759945 9.50782932683574 2.635243927158561
Mo 4.645966681955653 8.329589265366872 4.968609961156171
Mo 2.7037228180682282 7.828970389228602 2.8840481198947314
Mo 7.214083765183173 7.7215659492532 9.470239691105728
Mo 2.201921151819515 4.094817621602118 6.5547610861462795
Mo 6.838717412767326 6.583810094180388 6.852518561435665
Mo 9.801520332217843 9.576044241330964 5.856740471705447
Mo 5.558301806875721 6.02617285245506 9.443219972299005
Mo 6.179175564775194 10.70456648215245 3.90510426978125
Mo 4.1664317374479225 6.25668069554818 7.031901461010538
Mo 2.5741942105649143 5.6914349603479755 9.316972556949692
Mo 1.8820945110393748 8.88480346448064 5.209571938780935
Mo 7.74378152024013 10.196385561751208 7.728231154195093
Mo 5.344913840291915 10.662005690422552 6.238223863336535
Mo 3.4548164136587767 10.661570011641532 4.679446846466102
Mo 8.009097842556024 11.3669217536389 5.9587503186424575
Mo 5.596932898093215 8.558549344350302 7.869877649838825
Mo 1.833975454987341 6.70683588983257 6.930784573639877
Mo 3.131436014746236 7.523591262805887 9.4223057841213
Mo 2.991997999520806 9.039236846807215 7.057867182470457
