50
Energy = -465.66282753 eV
Mo 8.590266460493142 1.7813482786082058 5.49628278677372
Mo 9.752486216893486 4.05470776108545 5.9985920169409965
Mo 8.88361034465162 5.572199379226907 4.185361022995381
Mo 11.182130314161519 6.380935089986012 5.501327450922776
Mo 7.442340707822529 3.4143031645621624 3.8502097260649366
Mo 10.03579340387349 7.8198803161975565 4.4904335807033116
Mo 7.789421407957211 7.1014676111212705 2.2100974378520677
Mo 7.6405989248667945 5.173912616679784 1.7466416296028218
Mo 10.87748578325442 8.692111442777462 7.320131093069134
Mo 7.821655793856468 9.594627544666784 3.7938390430450917
Mo 4.95783895384565 6.376563123551533 1.4444473148872607
Mo 10.813492270081266 6.1949081048460775 8.079008076889693
Mo 5.528803987116003 8.61479083478903 2.91944997390682
Mo 7.95243735888064 2.2586381821961137 7.624038720704054
Mo 8.976648089837262 4.353543759617399 8.51854259260267
Mo 6.1286412894103846 1.414832592481821 5.601207203477935
Mo 7.1911460108166585 4.340309033274347 6.136948625207204
Mo 5.342626318985639 11.181485158337633 3.199810806201302
Mo 8.794975157326068 6.739117714023414 6.895819006017064
Mo 8.547548398887148 9.497526264026439 6.355871592290789
Mo 4.986680583536629 3.2590416139962657 4.593999329618794
Mo 5.7225464221277225 5.673694007472135 3.7209259877996144
Mo 7.126607457343091 7.619108291694314 4.900419659440793
Mo 3.716618818347699 4.4453594894654715 2.4895084379908403
Mo 8.58396018136083 9.205922146824859 8.863903605861768
Mo 10.850319149168296 8.582296344523542 9.513508583215216
Mo 6.454383290649799 5.515637081096723 8.508445704385696
Mo 6.654365233997275 3.33842018272136 9.946601187698175
Mo 5.932435809099027 10.177988855248858 5.642201242086707
Mo 3.753963959323163 10.399931070690458 3.9266012324767887
Mo 5.382768593568304 2.836973675769166 7.422098657486018
Mo 7.985879051860726 4.9025124858361915 10.894885292223561
Mo 4.408053612528454 7.742042850266458 5.31050158525833
Mo 6.344730480166439 8.192106266862297 7.509432585768135
Mo 7.0671127703534555 11.037272804373528 7.562814895330464
Mo 8.760597926090863 6.879570843254762 9.576859198687021
Mo 3.4218340140328207 7.3217317388760526 2.8539490074972336
Mo 2.9615927892787783 5.295815037444834 4.488511427564307
Mo 3.1829213427179446 3.210693089663034 6.23037885030935
Mo 4.683991272794443 5.456016183643194 6.502737214900392
Mo 3.8428618495760003 4.4143587637307045 9.01463815338277
Mo 5.260774508866485 9.649740566090381 8.891923042129816
Mo 3.726745308311057 9.472910071311757 6.875892559207079
Mo 5.175474688281406 5.145089160416438 10.892635445493443
Mo 6.2746655705715675 7.486891867308277 10.364136585498454
Mo 1.9361711410841769 7.216323658609797 6.466673863405504
Mo 4.024630014105033 7.245794810866153 8.368979370584814
Mo 1.9239722094461063 5.468842896697652 7.260397446652945
Mo 2.5810800663144335 6.013071925478815 10.036011619739876
Mo 4.25773100792373 7.624494125164067 11.04741692829005
