54
Energy = -500.36357206 eV
Mo 8.271389051416307 6.853096310670298 7.424211143328772
Mo 9.420781752463894 6.974311116458704 5.053613782733897
Mo 7.618723988909864 9.224417829878798 5.432167267850202
Mo 11.774304840520555 6.816252947193076 4.306805728604051
Mo 6.362013168356632 11.374756940498125 6.942744742706713
Mo 3.877959813029447 7.065612039023618 11.491961590736294
Mo 11.211326273520235 12.610906361119424 11.104162853518462
Mo 7.661598460880199 7.457636045557071 12.930643108847315
Mo 12.370120021842437 8.09380156902245 12.766294192271436
Mo 5.236736702210797 4.264508530091845 6.2571719830207035
Mo 7.707740710701823 12.062168154376943 9.406605696242796
Mo 9.828671214456387 8.213036728609755 11.98895971886091
Mo 6.2379377464431895 11.773594143525221 11.791867632502901
Mo 7.944120884519696 9.433895132990276 8.275596186340643
Mo 12.548764639859982 7.447903292633966 10.967217082301362
Mo 6.5054586241077095 6.664077140901445 5.661910743359095
Mo 10.285850295879818 10.957875436265388 8.908776364114695
Mo 5.568958658452853 10.326246421751069 9.393006138026394
Mo 10.289022785884677 8.143292361087177 9.254181666147302
Mo 6.201105241399552 5.320328746648589 8.504741582183607
Mo 2.928875375773501 9.105654228544605 6.594218144770834
Mo 13.45989282474268 5.992442453961879 8.469788283278106
Mo 9.306186257225818 11.767641652618531 11.570756824881487
Mo 8.765628130689246 4.467550754450827 8.184157193020845
Mo 12.320572024611586 9.090741333360665 8.585077459600344
Mo 6.612209248936152 3.110060924797315 7.052944581531009
Mo 11.473259323191298 9.991424289674404 10.97868647073529
Mo 6.289963390952843 6.0685026513159235 11.525081611764298
Mo 9.20261623780085 7.186279570187416 2.3834356982626352
Mo 4.4157093451484375 11.250547357675417 11.57519404102293
Mo 8.913819822874249 11.47931110345207 6.830184981998976
Mo 3.60356865433112 8.340850254842803 9.36142694022949
Mo 8.328421885475342 6.558550095993449 10.223879443350393
Mo 10.22940961993229 4.857717215197509 6.310680016317089
Mo 5.9940960231481775 7.707009670579507 9.581316287129857
Mo 12.360802373714428 8.840422984066514 3.3367425949201728
Mo 10.122509977867367 9.221252158287088 4.06421437404045
Mo 10.267648994865462 5.837943512922255 11.398992774680233
Mo 7.695939046207827 8.048778005084463 2.953263612057999
Mo 10.176595936821446 9.364746514789507 6.563366866629433
Mo 5.593316847147522 8.56026234223662 7.091935772142239
Mo 3.6304571360819233 10.673581938639401 7.3868012777380025
Mo 5.814317091351933 8.880868877207005 11.913546332011565
Mo 9.911238755549832 13.251602816453948 9.239342039443311
Mo 4.008309673910739 6.56760422516703 7.6992955457149845
Mo 12.519628029441774 9.259083296720139 5.541122993013608
Mo 5.358685969145362 12.631719293505322 8.913985876843702
Mo 10.900360772869119 5.671209619841402 9.004139250392415
Mo 11.685392046027752 7.227030526194444 6.768151004240248
Mo 12.93507857511833 4.866358095744491 7.079813800836731
Mo 5.326882186079243 9.85289025833913 5.119333014613313
Mo 3.923298597228568 5.519433540770544 9.869326033175597
Mo 7.965198668316902 9.51231602848836 10.829156033427148
Mo 7.905453429750561 4.709425189941323 5.447801809166016
