55
Energy = -511.00915522 eV
Mo 4.785404968955415 5.178239937545653 3.0143395506320845
Mo 10.665029705372909 7.719731170132029 3.6485884545791323
Mo 8.394481330334656 5.325636087551005 3.5276365364252897
Mo 8.164998641594723 7.528048337040798 4.65217542293707
Mo 8.17257849389004 13.712506760012378 6.748242949353415
Mo 7.803119895708868 9.730713881356573 3.280899911936386
Mo 6.170847472535553 5.52347538039505 4.918200899116432
Mo 5.807686401085289 7.765777462801393 3.6616271265520495
Mo 3.4880872541275205 6.453102739386089 4.143357569235452
Mo 9.82620554137735 9.846971966285292 4.663340207243001
Mo 12.193402987765992 8.24628522771357 5.153976665001292
Mo 5.984074974442248 9.3294853110982 5.600835386706788
Mo 9.56334983800925 12.397734859070026 6.38072364302045
Mo 8.351335634919087 5.042067417992417 6.357457825973652
Mo 7.505392205543591 11.234245811320251 5.045412072344393
Mo 10.281951957623754 5.382154532418253 4.634394570868268
Mo 3.45657250298201 9.349042848705551 6.9790903226387195
Mo 4.763091468040721 7.171309887805271 6.427140434850787
Mo 10.0063689460833 13.762422585633313 8.929417800776303
Mo 3.855300724411728 4.702281207571188 5.755744913723578
Mo 8.483780899991784 9.707425993718916 6.960196650313925
Mo 10.1921860975618 7.294034350748545 6.485529929115635
Mo 12.441363320552822 7.883463211116112 8.14563504867028
Mo 11.225467365092488 10.022009124732042 6.9482893946629485
Mo 8.363512751093213 13.6497512776883 9.750700213032042
Mo 10.524634412021866 4.685962591175545 7.870395911500923
Mo 8.69197676330934 6.113379170727358 9.094213029166207
Mo 9.826047088030215 4.95365771822916 11.025003159149554
Mo 2.192455807497212 6.559654284143557 6.910244455568955
Mo 12.17712392605864 5.800848049768496 6.775022813326448
Mo 11.933056051379365 10.54574340992368 9.09514098889622
Mo 3.314635541856613 5.418112198219716 8.163148141814263
Mo 5.553270416324155 9.58236370090452 8.272815266899473
Mo 5.643431719538812 6.752218833895242 9.05612835305166
Mo 6.301547211382204 4.839604448612964 7.6381559769410075
Mo 6.918553786485976 11.593504159258107 7.671661164168128
Mo 9.449614256351529 11.156005427009989 8.999007918886015
Mo 7.32773041996731 7.379807742444626 7.194435866832914
Mo 3.4620494743126846 8.193993091992297 8.849879851956972
Mo 7.108339380795375 11.191086473101956 10.175193529622605
Mo 10.060118855072314 8.373432746134558 8.968563018010167
Mo 11.550863946219357 6.139660262479675 9.598472474269823
Mo 7.627590830105905 8.75206565910703 9.829884540816971
Mo 6.766499431736558 6.494485843366222 11.406409836354538
Mo 9.888215588546954 10.067662319315952 11.345503580474709
Mo 5.586999209677271 8.548385736131818 11.136779211255412
Mo 11.128868657734579 6.054081995504749 12.37792961617543
Mo 7.2865822146716654 9.907474892148619 12.437210284508708
Mo 11.265615894644862 8.702117300500909 13.517529677351934
Mo 11.773192219258467 8.589466673509468 10.825696556924068
Mo 7.26329314118758 7.842579363132293 13.487838871761179
Mo 9.172338066813758 7.624356603680358 11.753518070433543
Mo 9.550293408416852 9.54307861929966 13.92444915471915
Mo 8.668310969958954 5.3841411625770474 13.578932630567063
Mo 9.506303891615682 6.718296113932618 14.673026508954905
