51
Energy = -475.40451342 eV
Mo 8.216323084752515 4.406360570665173 11.121932077459107
Mo 6.4639658507324 3.552337449956693 9.136658266862957
Mo 9.225358015229292 3.1925711078811836 10.01936655587511
Mo 5.988844997482844 6.018955817486582 10.01506544032216
Mo 10.484195930425258 5.679108530703707 9.586530991713069
Mo 3.9805449604123893 4.523603503403173 8.555849052021342
Mo 4.511021040466275 2.6102087419673956 7.274938416497338
Mo 8.39340410662867 7.084111127963861 10.207639434824799
Mo 8.056679201926912 2.2819332940463246 7.607729885329066
Mo 2.3676477679454173 3.0785267927972693 6.628417435824669
Mo 8.22886257000429 5.161327666118811 8.333172637785376
Mo 9.813942728482294 3.6874099060596315 6.8995657471368155
Mo 5.880013672184291 6.275037274291494 7.457145309126576
Mo 5.986717132165916 8.250607236626456 9.56328042177291
Mo 10.540806906691959 7.923121028275206 8.877324341820156
Mo 4.21807639304188 3.012763664597127 4.353741323081316
Mo 2.0115808816921237 5.443753232516385 7.350350739928451
Mo 6.6820541122699035 1.9631643539411834 3.8265589939912923
Mo 3.57533309495828 7.346989933350739 8.566050307956235
Mo 4.356857802033302 5.009867866329134 5.932657323913772
Mo 10.428285354806663 6.11588981042332 7.085792241765087
Mo 6.290918848371549 4.758110223205497 3.7419449744038698
Mo 8.833210697207727 3.5362984408238067 4.537970924868722
Mo 6.847409910352084 3.781172402955917 6.242707294617923
Mo 8.309857138062624 9.860802190563733 9.821837394137345
Mo 8.135188334186532 6.147206317703802 5.4800816460768305
Mo 10.313221549501513 5.476477657662823 4.3605971213443535
Mo 5.465072583539838 8.891794463616517 7.062987454714464
Mo 8.219694422945018 7.859979095275049 7.75615072908638
Mo 9.881521916476538 9.870587225560085 7.069326807156642
Mo 7.501718256994412 2.8280743021767867 2.2222212628304754
Mo 2.1615500602223574 4.793320985570917 4.6282220575895066
Mo 1.0064774484993992 8.014548853557732 7.201728394886209
Mo 8.692640096020535 5.622000869157828 2.650925243898878
Mo 3.855096944540102 5.765535856678232 3.1645955113251034
Mo 0.4318134161714087 6.8191981923443725 5.62652374072557
Mo 10.241021831704677 8.398426933816326 5.77256952089799
Mo 7.381123439704168 10.524932771656193 8.323175415296975
Mo 5.917033937683262 7.282101056026502 4.695215249760456
Mo 3.3245563529614657 7.3725145985225895 5.737771391036199
Mo 5.810855166763846 5.05967976719067 1.4006368604399562
Mo 4.564395243009509 3.1501904466675263 2.177309054846959
Mo 3.2715609613078636 9.44846780085079 7.8242855204868915
Mo 8.548998409442612 7.737188883014666 3.5014720256123155
Mo 6.30917326761001 7.326458268212589 2.2500184892627124
Mo 7.537690707811229 9.360100621860347 5.412061343933466
Mo 1.7496400025064742 7.546821392165915 3.4235700849853696
Mo 4.594513366997457 9.819545422933542 4.904871825381596
Mo 1.9220015228510656 9.233912159164433 5.060220255871646
Mo 3.9139812230396798 8.45559036951518 3.0661498243513092
Mo 6.596794045171259 9.777815097226808 3.402705607485302
