50
Energy = -465.26383276 eV
Mo 4.130931410982282 4.028905182759677 0.3879629580376803
Mo 4.748030238599168 1.2727155988706937 1.0705937043868972
Mo 6.151861667795597 3.9096474758327835 0.3674157904283481
Mo 5.59384990806497 6.056546430255802 1.9071650825820343
Mo 8.670611740673982 6.321577162117805 2.0701548604664697
Mo 0.7940371292831103 4.259848623777011 2.0863027429422916
Mo 2.3944855408193577 2.3450587761513875 2.3876781356017562
Mo 3.7088512005750984 7.989128321700788 1.5512865768412902
Mo 4.809892554315849 3.343091314104138 2.8368770586142076
Mo 2.9983379354948716 5.50059752843431 2.5164281825066026
Mo 9.502735947199142 3.2384264845596475 1.9156863208574935
Mo 7.188592922145197 1.933918812188958 1.9941780222925927
Mo 6.364896943345665 8.338520543306943 2.6783883915199413
Mo 2.090588286186786 7.939785137887967 2.8460277256275686
Mo 0.12812569506756039 3.060670374225082 4.180775678234667
Mo 7.298774353783734 4.368931301207368 2.947899292439693
Mo 9.75571593564015 5.676285131343048 3.6810591691512173
Mo 2.3361390476476234 4.016346162729712 4.5354929250851175
Mo 4.590667375139009 0.6429401128230195 2.983150991011285
Mo 4.052781254836245 10.032434023996958 3.754296888305475
Mo 0.4567555357328689 5.850878129351323 3.906820124365983
Mo 1.7424082992103664 1.1883146249336565 4.324394894347357
Mo 4.52962912020867 7.393127831784996 4.126041553997422
Mo 6.775539575555281 1.9618497437526734 4.454105426913028
Mo 9.421860473425566 2.7555066421286685 3.816829826710341
Mo 7.84855535264303 4.4249063383529705 5.493972056330399
Mo 2.042897705674976 2.286693587131615 6.800315368736191
Mo 2.3343744401832054 6.583939929124548 5.454875963179364
Mo 10.264140576757436 5.204372924660815 5.640379790282361
Mo 7.264307253095216 6.885623861890392 4.2505633856177765
Mo 10.264140576757434 5.022209254018902 6.511275966386304
Mo 5.770293817227368 8.772404222191879 5.9822584439487185
Mo 5.094679589426059 4.963140547988332 4.751992336031074
Mo 11.190550429775802 6.722877637730341 6.281937694006931
Mo 2.948528373610486 9.433751506240172 5.178611478387359
Mo 9.246722732163597 6.619517304099785 6.3834022840000975
Mo 0.8133250871806845 4.329991883200783 6.716858813588507
Mo 4.278019050955687 7.791928785992722 7.064444172648752
Mo 4.084038044689809 2.178417516257807 5.237915166724938
Mo 3.612183182433509 4.62616984193305 7.025519811370113
Mo 5.937174393899204 3.268623889012653 6.996220325390151
Mo 7.983379441835929 4.701250422706868 8.307440015327735
Mo 8.405738720610907 2.574274252880171 6.828119447973785
Mo 3.727260347541803 2.5126879576361576 8.873914404141628
Mo 1.9387883499434948 6.240851283586371 7.853976818812563
Mo 6.25192893983562 6.1816440914714015 6.90888760145798
Mo 5.8323795798281255 0.9362861021137859 6.42846882065182
Mo 2.3803509229547517 3.850711394742941 9.316965416352396
Mo 5.123482783758191 5.131507350277858 8.957230432213395
Mo 6.675003878244958 3.2914430992415045 9.387718117882018
