50
Energy = -465.51548092 eV
Mo 10.170524249235365 3.5257033925891115 6.8179189329028995
Mo 8.152515741183986 1.4892805051397684 7.078010093773866
Mo 9.552132834029287 3.6276759486195185 4.995305011245473
Mo 7.444451462564195 1.7652279051183941 4.475444970975383
Mo 5.062556782436265 0.3184629647649902 4.271669895201362
Mo 11.242110741206137 6.278996205651106 6.014311411268506
Mo 6.153865695354029 0.9987409577140349 6.7375641992915245
Mo 5.655246820487453 2.153188269116453 2.009653955640475
Mo 10.367078003521165 5.509598012021524 8.93347842968907
Mo 8.768604017041227 4.5637409379488725 9.15235323783245
Mo 7.595984053489964 4.033961702698687 2.896763764462061
Mo 9.218576680622128 6.276233705643351 3.8910569305122973
Mo 7.177953940004198 3.726058776923441 6.550066876828423
Mo 6.237087276126452 2.919965225357891 8.803976764810377
Mo 8.826177590350541 5.993982067259698 6.609468927147052
Mo 5.467293683392996 3.0937850205830575 4.709511899873265
Mo 3.6078186339118097 1.1706526422996335 5.191024642042241
Mo 3.8493833563284703 2.4484430522837854 2.494449191000511
Mo 5.067807143137467 4.872156866020238 2.924504677943248
Mo 9.288961227556836 8.392015776199555 5.500552922961175
Mo 10.81109506172769 7.862308946373929 7.336267172354407
Mo 4.4307680425909854 3.2508140028514094 7.317041298954321
Mo 7.481475523718169 5.96330893084429 1.8470505748648645
Mo 8.233726570715529 7.4685833031508295 8.60358375973884
Mo 6.426531849096689 5.638683437189528 8.123206784812773
Mo 2.7628686775663467 3.96170970434577 4.8848306332083915
Mo 4.2057640326747014 4.9702067316497685 8.974628747226205
Mo 6.888064105511134 5.82750091576349 4.754389303068094
Mo 4.520014591177071 5.59282154735458 5.938000465807228
Mo 7.482143114694233 8.205545951089398 3.701599866777989
Mo 5.607693514254168 7.338087110593765 10.06679301765525
Mo 8.250193330135628 10.061983110846315 7.077205740396948
Mo 6.800274803007286 7.9175928338494606 6.5462982949439334
Mo 2.2658356406317988 5.421838217223318 7.219965299349202
Mo 5.430482859637882 7.375135314605899 2.4984172680894807
Mo 6.220621094418823 9.131949681620217 9.228818570162266
Mo 2.9646696637602417 6.167490510340048 3.6432141444704405
Mo 4.2830062430791545 7.558786612449211 7.7018925006250525
Mo 7.247425432937596 10.427676042570841 5.223320631332324
Mo 2.4272454157943235 7.069506972362105 9.751385900723568
Mo 4.83043120540357 8.233058433038613 4.862290367010453
Mo 0.8774457151585225 5.34633015180761 5.198450475194871
Mo 5.561848525498753 10.207683111613962 2.8797666782876323
Mo 3.6299370702511045 9.369918439333638 9.26193976860411
Mo 5.202250884764195 10.248212977439659 6.982095923638669
Mo 1.4314911784137896 7.8565807999522335 8.2364462289705
Mo 2.2079826686850277 7.449675762958892 5.5974506348112945
Mo 3.0770578879722272 8.717440465618651 3.429531340145183
Mo 4.47132682934937 10.930975335869148 4.286054100534284
Mo 3.0873939970899507 9.825821154879225 6.803455911416119
