53
Energy = -494.74681338 eV
Mo 5.037348099164657 5.864241917059634 11.104717464887976
Mo 6.599157668007577 1.6328157978217588 7.960358406326618
Mo 3.680307329044689 1.9815382415633753 8.82035109721435
Mo 5.448693203226119 4.052309403516579 9.027251444141642
Mo 3.370266066542255 5.427948910125923 10.33205507895774
Mo 7.774419246442696 5.9429237545001685 9.868807587542625
Mo 7.434251828325522 4.418168918526548 7.648313436413919
Mo 6.31468985714964 8.228401069698755 9.921603665268702
Mo 9.786604737670308 6.1356761798277075 7.572819828985042
Mo 3.8957838185445923 0.6357106915653729 7.460108278012489
Mo 3.5781134268797916 8.394060094637554 9.99041654172333
Mo 8.964161981435067 7.650957611089868 9.923068916948358
Mo 6.346235833775026 0.6752323554057844 6.070335637579441
Mo 4.936613462719487 3.028500022010712 6.514134790926534
Mo 7.671092676864805 2.764848387440827 5.5837730874348335
Mo 5.11213481638455 6.571010648470192 8.40286794154388
Mo 3.0133963300504885 4.722481629252212 7.610885034918508
Mo 2.277823478175933 2.7679657077062796 6.5450606694648235
Mo 2.494646612646487 7.671035553612501 8.605617470973586
Mo 9.715648034294162 8.680714872373628 7.719495843171244
Mo 9.995764548408186 3.8909045799010555 5.851000496582823
Mo 10.978580019042212 6.675392329150188 5.63550816188721
Mo 7.5296668039152435 10.094855057105994 8.650352349308003
Mo 7.4752651327376 7.416051544122081 7.54235789054746
Mo 5.590131451311779 5.500343564387719 6.0992303059317665
Mo 4.095079546920166 1.7348407513984685 4.3829000649532865
Mo 8.300280759249661 5.60710097315544 5.25722849864639
Mo 5.104675428307405 9.054948446068565 7.5756961874381625
Mo 3.0780253255969328 4.467581053888739 4.8434340868194194
Mo 9.070033537050465 8.18990923864415 5.4180546308644
Mo 7.360021293520598 10.107702597157564 6.576617161650054
Mo 1.2491331084513442 5.977089779930467 6.198042821704893
Mo 5.839361728772858 4.027867457385967 4.0783667981799185
Mo 10.489746798217109 4.778065416939313 3.6734332116711834
Mo 8.483175671208413 3.697998635716947 3.279778626010829
Mo 3.4457976670628128 7.180855973570181 6.047894240392489
Mo 5.893625410316406 1.591986451269442 3.406208433960391
Mo 6.377599467263526 4.045029885554998 1.358306139826071
Mo 6.045149313537897 7.906145784115616 5.229971243022324
Mo 2.668963686107041 9.87239939425649 6.669030243144528
Mo 6.8899846086913685 6.266572270744265 3.1546456738535436
Mo 4.043419558580368 3.8376250118036204 2.4975287818118845
Mo 1.2620019450183293 8.796434106386416 5.951814852900298
Mo 9.480554302040284 7.052103844895823 3.202056588018987
Mo 1.7495310355457134 6.406386919728481 4.020398226113258
Mo 7.445564396381239 9.061025244620932 3.3328820456548662
Mo 5.061688597441429 10.275273799386818 4.852139917879262
Mo 8.608502689951033 5.742550057470959 1.0933085760845553
Mo 4.263628806313664 6.365585003903789 3.423512646553844
Mo 3.5615067059344514 8.983834026516565 4.121686568549734
Mo 5.511447785553524 5.9170362315516485 0.9495534642371695
Mo 7.868616516433501 7.548648383329591 0.8636905140912821
Mo 5.648989359508115 8.64366184334005 2.349883144534179
