53
Energy = -495.52599422 eV
Mo 11.828030452758842 8.085389131143518 7.514320136253924
Mo 11.43299237980198 8.183498004990277 4.726489866324673
Mo 12.016641909086545 6.2429123809914655 6.7736854623646146
Mo 10.05462929502537 6.3325448506016295 8.620435072660985
Mo 9.959447072450171 9.89922394031829 5.899894412690118
Mo 11.054051908473298 5.8388205725423035 4.314555233015127
Mo 10.143095034361275 3.8700501735546906 8.527249379721916
Mo 9.36660839937126 7.291798753449149 6.21721969605847
Mo 9.273403483919614 8.998303017726112 8.262043594589336
Mo 9.212415102713624 7.140642547054522 3.36911209856991
Mo 8.362934799461895 4.650624724981004 10.321831492811866
Mo 9.649671454676783 4.589259864896795 6.132256918887586
Mo 7.314703708560687 10.091141203665439 9.712495733976981
Mo 7.696847056885659 10.738892144055036 6.91444565219376
Mo 8.622343242237648 4.312965300981107 3.365067029901432
Mo 7.460706103539323 5.4208153291682715 2.1027355010230044
Mo 7.8109244700058 5.303331194017546 7.644482164498771
Mo 9.788333544115757 9.420587807018476 3.3306123485729553
Mo 6.430107875358184 3.8295110853494245 9.814554290863532
Mo 7.791351831328254 7.30485163859469 9.657412163932879
Mo 7.180467497385504 6.031019467505545 4.868858680114846
Mo 7.750619244592395 9.024755822069581 4.882116363330943
Mo 8.071568987850565 2.8069594096093566 8.013082642358802
Mo 5.731311548124619 10.729064965324302 8.386969668280083
Mo 6.927630632733252 8.313964879009477 7.326227497609327
Mo 6.540873255485794 8.196398420330384 2.731911179314655
Mo 6.185331707457625 10.777406399443823 3.7383890340479287
Mo 7.18427690351525 3.3091856212509345 5.525477815037558
Mo 6.194620151612278 1.0522049795592006 6.301726228133392
Mo 5.463506164171811 6.250577912553361 8.168507793096074
Mo 5.398139467791561 3.565066378498281 7.4027222108449235
Mo 5.774880829348913 6.122387963216647 10.633606282722525
Mo 5.149808494319041 7.615697946692428 5.301646471520754
Mo 3.565812984072163 4.705087154773041 9.43588711081133
Mo 3.877911614146931 8.626936195399493 7.672502377718991
Mo 4.81254077908364 1.2938086412775627 7.890909067337208
Mo 5.038810854143426 6.205379393580681 2.858177551136154
Mo 4.778728316842776 4.876772728083931 5.264168821450064
Mo 5.229018179614638 10.228968619548159 5.690762517965397
Mo 5.2968298254640676 8.399917602722194 9.78723411816987
Mo 5.900266867476509 3.5422645584136414 3.2976178009498813
Mo 4.427754324057763 2.2776435922872253 5.1143050208637435
Mo 3.0880445157718515 6.106163892164885 6.815670159942973
Mo 4.513051202379542 9.163837442255714 3.1760070340164317
Mo 2.893125406595339 6.562131052156982 9.525928476314753
Mo 2.6763369087062396 3.230155600378616 7.088130987794517
Mo 2.75680275867578 8.63904288515107 5.659687837776509
Mo 2.937462546609857 6.6388062245864 4.008741339690422
Mo 0.9545289268756868 7.668267662862241 7.4802573078025505
Mo 3.4945866782593082 3.823998707057329 3.006207454793664
Mo 2.1411256169224853 4.380129682266641 4.778686067434855
Mo 1.196319504189561 4.5009811575191305 7.728449057304682
Mo 0.5723427378968955 6.639639965724435 5.9317846945440875
