52
Energy = -485.7855072 eV
Mo 10.246049604146483 5.284276357598706 3.852214980182221
Mo 8.574745859298176 3.9512583390966705 2.5375039972974567
Mo 8.920429816975084 2.998046300555121 4.906355850735325
Mo 9.474355862345996 6.877450449292943 2.604714501287984
Mo 7.257953628760717 5.591028195942342 1.553268971694856
Mo 9.96138590353631 7.83205671707763 7.779206506836829
Mo 9.410482794301691 5.348229800016776 6.571250361322262
Mo 7.115931124294624 1.6010329133689725 2.989028429177335
Mo 9.050638230825818 2.38613679412245 7.25071008923408
Mo 9.127038179737223 7.667559259460183 5.0529446854067945
Mo 9.763707095507788 6.530064198996953 9.17334796588426
Mo 7.551782478894255 5.786133530788405 4.416551262883799
Mo 5.729608814577625 3.739510109577151 0.9607244569530529
Mo 6.8837965622306525 1.3936824066932023 5.0400084551813675
Mo 7.572154912321814 8.385518674306168 9.284939066909656
Mo 4.696559969750902 5.607732380972492 0.5608532774636469
Mo 7.209374850598984 8.142281146372905 2.8817217016382557
Mo 3.9335681854531153 8.335683010098517 1.8177554911364169
Mo 7.99593387273759 9.482144437682406 6.621955668600927
Mo 5.1937280919615345 6.496766133768456 3.0028066546094183
Mo 7.228316779206745 6.62035924108715 7.447041683989612
Mo 7.0890620775065845 3.920896944899923 6.297791969688022
Mo 8.49714749188164 4.159435093754913 8.612058940237807
Mo 8.244861634250666 9.865945411662693 4.219904340024805
Mo 5.89149111714902 3.7196527329260785 3.714256376649986
Mo 6.3187265753031525 2.2133996563345995 8.101022746192909
Mo 6.71729850680374 3.703422203337638 10.602946841719085
Mo 4.197854190616322 1.9029330056193219 3.747807043060922
Mo 4.7112544201060205 2.639823096290686 6.434024542327677
Mo 5.436379040407885 10.047947862116944 3.832984223383503
Mo 5.50437698702706 4.714882867676048 8.322392538526955
Mo 6.244047529431764 8.187581587328868 5.3858945375368785
Mo 4.92960348497234 5.371688031445829 5.578512389525675
Mo 5.930600452014877 10.989480781063431 5.8939826346685695
Mo 3.6333400454507667 4.472474133803222 2.4778146085891333
Mo 2.4452046893713932 6.942463163976017 2.16809188393734
Mo 3.8042167494916246 2.8060590723673897 9.324655239635101
Mo 7.191463837857314 5.850125092166317 10.276968668660986
Mo 5.810415449002342 9.104201369202684 8.168509041848315
Mo 3.6207332459262243 8.263859745283654 4.40272412643437
Mo 5.038012127145661 7.145999808142778 9.70996127120021
Mo 2.953744949611881 4.5371852497526195 7.37573066891677
Mo 4.551310677077485 4.8141149899761455 10.72401445664756
Mo 2.885694362250288 3.3418977113444197 4.677791712305245
Mo 4.0559781813544795 7.116360466036109 7.115293793615676
Mo 3.998718831739953 9.8383420482709 6.358963059592201
Mo 2.6502068696743897 5.977228666503113 4.685768025998498
Mo 2.0914627771244088 3.891117109830844 9.67550092193094
Mo 1.5614861449437536 8.296322556758282 6.232702457871064
Mo 2.6011863307768603 6.518570788933327 9.419739978156795
Mo 2.8110460645666766 8.605101092933603 8.70681000110927
Mo 1.194879815924699 6.537801594523359 7.016458144639755
