55
Energy = -513.85774923 eV
Mo 7.079731163437271 7.12693129689033 4.574133448452009
Mo 8.343343676351008 9.98355684936471 4.930210579269633
Mo 5.541151835011557 9.555514916867654 4.328712905309266
Mo 8.309060472652275 5.476361466804508 6.330389661178327
Mo 9.469254130913455 7.968282867227932 5.483732645335334
Mo 4.355428076294581 8.232691938682146 5.0163342843294325
Mo 10.86601751218692 5.799099934788238 6.494006912625125
Mo 6.525780091108849 11.408714281469765 6.195388606594911
Mo 11.083396111640521 10.498120208251137 5.81139933985039
Mo 9.621845777367755 3.3276889544631993 7.023806168837238
Mo 11.812399007870424 13.199135965880435 5.459340155013393
Mo 12.810356412790197 12.592893827116578 6.88006164904329
Mo 5.867411725740743 6.006457404867603 5.929913749871177
Mo 9.096020244620497 12.4433390626234 5.574380488999221
Mo 6.633850560736693 8.574406619060403 6.854506094617996
Mo 11.492853871503037 8.598041907194146 7.179260827118721
Mo 4.544435018169978 9.992146540988253 7.028269618827748
Mo 9.054327613815408 4.535662359173991 8.961907134872844
Mo 9.115063065371784 7.374454963840924 7.923269697605257
Mo 2.788076101155897 8.533312091365719 8.601888459007416
Mo 11.644115872763182 10.786950053253422 8.56557698475553
Mo 10.481106881974329 8.809700403553535 10.031721298937489
Mo 6.714341471654262 3.9961788768368187 8.39135150795165
Mo 7.402718785248652 13.563081673828751 6.877660731363722
Mo 3.908745504068791 7.247433324307953 7.70744942959725
Mo 6.820270267361666 11.343331286897367 8.679895898443128
Mo 10.046389016322529 12.644748077644147 7.711492519334383
Mo 9.016642734143833 10.145545674242857 7.383400398405181
Mo 13.555482652479077 6.296402359481928 7.411071326006437
Mo 8.766571299284118 6.61771960727343 10.461770480262462
Mo 4.646063053973671 12.814378511384675 8.167628370186778
Mo 6.634608395046532 6.4113797281341025 8.624799718697727
Mo 7.777920304454945 8.973198879142657 9.551267533412839
Mo 4.065108005845516 11.524107792817693 9.335329691015321
Mo 5.226984727807392 8.964576751762113 9.459570718790438
Mo 13.96317567407642 5.802797013174237 9.182397210386302
Mo 11.631572326298185 4.007346251089072 7.885470923242361
Mo 8.158851882409957 13.413111304149327 9.195633972796426
Mo 11.399863600575033 6.511789613636227 9.112801517895948
Mo 6.8021837846365125 4.879750086921793 10.754951369406198
Mo 11.813580896938983 10.631449569449083 11.101789465106467
Mo 13.376693936914936 8.698163844566926 9.22280707357045
Mo 9.261237683927627 11.248775677348695 10.207014816032935
Mo 6.952995330819668 12.465333784330143 11.440807906432326
Mo 4.6393437294050015 6.663074374248458 10.460391952650665
Mo 11.142463232693299 4.710472730032497 10.60352819197966
Mo 9.019421776506416 4.325971192511528 12.178845372727785
Mo 6.493740619220178 10.579633630376254 11.517398288233348
Mo 8.665557411693099 9.007238014002043 12.163247006778535
Mo 10.770464651532468 6.706175317451773 12.092982944792725
Mo 13.00674170551547 7.980206328327849 11.031125520181273
Mo 6.314105852512797 7.48795017594348 11.500047374284291
Mo 10.960962402118174 9.171440422922451 12.79025065360352
Mo 9.139954493299598 11.327694908872695 12.602045561181894
Mo 8.399483917156653 6.045345652579646 13.044830194213729
