52
Energy = -484.50702769 eV
Mo 4.104751357005549 8.827995558275287 2.6932548520579727
Mo 6.635367131605612 8.327418880828962 2.235725219351845
Mo 9.071297714395296 7.176791612566856 1.1651945210405599
Mo 4.222450397533976 6.923740885875363 1.9279449165812967
Mo 2.95800208372412 6.66035328122344 4.301541674828478
Mo 6.646179493760569 5.693828940777726 1.682862981348254
Mo 9.07662165635376 8.730254847390686 3.4041481428155183
Mo 1.4877263720318057 8.147882653691138 6.565063582241854
Mo 3.6300611767073496 8.780666140943172 5.399100931361825
Mo 10.525005751543164 6.477334445491161 2.1925441822125635
Mo 5.401137429020855 4.906518964323599 3.5979445527093854
Mo 5.767902664108753 7.348206443889777 4.3330132444111005
Mo 6.850222992589237 9.755258012430343 4.684550001004847
Mo 8.115169819820549 6.262634758455552 3.683291798885964
Mo 8.750256049766847 4.242824590971726 1.8752992188889037
Mo 4.468888983874171 5.791239913710589 6.167734439412989
Mo 3.4838064963182687 10.189931123922968 7.955644042350389
Mo 3.043062671493809 3.7278278890514502 5.045794411400818
Mo 1.5419634071927146 5.805010759741168 6.16131173124104
Mo 10.386167303794478 7.410418247592366 4.801431572775711
Mo 7.504238993922784 3.396404313587009 3.3167809641743857
Mo 4.704612646257209 11.034722944999539 6.399595009972423
Mo 9.611930795190652 9.994494749463684 5.736103371234464
Mo 1.7505136940572261 2.875256790426807 6.736126275859327
Mo 5.323737920740533 3.0586799633237582 5.549752777250021
Mo 7.929707337546534 7.98820966251516 5.9972949204931085
Mo 3.0206875293224025 4.7131823043376935 7.876797943927255
Mo 9.984071345662414 4.450361139270826 4.518892378923185
Mo 7.341064607764395 4.891492258679024 5.825114441270913
Mo 5.471402086250389 8.371599179179512 7.058415060392811
Mo 3.8485420430347737 2.0592682856972186 7.263036698179139
Mo 3.0922918682846396 7.409990831021832 7.9997960344596315
Mo 9.547018983859331 10.700885381135798 7.817305487187819
Mo 9.220110713633257 3.0167606816665042 5.651281455464555
Mo 5.572890809591559 3.928990076184556 8.074418386759252
Mo 5.6498505242793815 10.175196388352546 8.988405749581489
Mo 10.162653322276208 8.14789801807675 7.666298606902884
Mo 3.7579281942789424 5.504056778233219 10.415538809592604
Mo 7.205087954100045 2.2201891061290273 7.236372918467791
Mo 9.470955911355766 5.891373539663624 6.756893049230016
Mo 7.223670392349241 10.735751735105286 7.012512091422046
Mo 6.837838032436689 6.32358211044572 8.158454286203687
Mo 4.124872490590193 3.6402998443180397 10.338863335213443
Mo 8.405383571305784 4.04515350198947 8.41502020849627
Mo 5.672045776959447 1.3742196310971941 9.197356460151713
Mo 5.197339935524147 7.87355294993411 9.792800774835923
Mo 6.535662855958177 5.295794374316036 10.449487568574765
Mo 7.946666595134655 8.750596986196378 8.670026913735219
Mo 7.039537722145697 2.54486456164733 10.085546018863752
Mo 9.049474506531537 6.331190006939391 9.56777556431163
Mo 7.194169042774621 7.768080604321974 10.891750596118937
Mo 8.746380293909828 4.669611175225749 11.084485414900714
