53
Energy = -494.58689893 eV
Mo 7.069704784651621 4.109227283300115 0.8875746534940863
Mo 6.75364774781455 7.910702359900417 0.8324689836966415
Mo 8.431807030645293 6.817063367474741 0.885322708401616
Mo 5.6513305481269205 5.328166341072847 0.22936982315239166
Mo 4.482659085127242 4.178516177275548 2.2558278449247866
Mo 3.97097405278413 6.896852077550215 2.4572871835890484
Mo 8.897435538215163 5.141604371072489 3.2023613177308934
Mo 6.541870271547612 3.2497004617522562 3.353508605056779
Mo 10.30214907316504 6.785382814306421 4.212333747849431
Mo 6.555387855939117 6.0172342049304595 2.7929080132851123
Mo 8.368581852578497 7.948072016934583 3.144684565176785
Mo 5.954352355249769 9.071893663483333 3.1430804966774804
Mo 2.6058494862068367 3.251456608876031 4.013908473405684
Mo 2.268239114624466 5.974469027363258 3.2324036627395776
Mo 7.056565077646568 1.8169469692450186 5.88904124011672
Mo 4.452038135827725 5.206608887734104 4.622815665760893
Mo 8.72165063311098 2.7638087504520987 4.741221194385277
Mo 9.4475503755241 5.130725050119449 5.953782098825093
Mo 3.61434794364896 7.8917192218664765 4.894129548789226
Mo 11.42353164252412 6.9744164545153495 7.082535829306719
Mo 4.593759446614521 2.504857558435734 4.859384715783863
Mo 7.596266047783524 9.970052557490376 4.94099082821519
Mo 7.033470830509338 4.858934481155561 5.351614633100321
Mo 6.161033080999917 7.439933777033943 4.9263892043412705
Mo 8.62409863005902 7.761345227838608 5.996925627707946
Mo 4.8356319604332825 10.16221410189144 5.3449385253634025
Mo 4.510001477235525 1.2785094225642073 7.4755698889399
Mo 8.198768585205881 3.3140710608068136 7.4625854664406015
Mo 1.8522031986616314 1.4670955030025858 6.175388442865596
Mo 11.888678718040692 6.576438651898048 8.79196834261716
Mo 2.769346844678686 4.083850275274849 6.5001713501737886
Mo 5.509334618747332 3.8780581801551537 7.200842959748837
Mo 9.221250663299266 7.818984120138596 8.530054968267471
Mo 5.913188381927212 8.747802388448081 7.158017626854783
Mo 7.2269513647968475 6.182099373259361 7.704628220250889
Mo 9.545101682032918 5.221047784084609 8.718533348334894
Mo 3.003384053471236 8.45762326638595 7.197579658941176
Mo 1.8554488823861657 6.240842151066501 5.93226347043815
Mo 8.15013236108974 9.891821466634077 7.693503216080525
Mo 4.138596670847313 10.853900809383793 8.103290580584439
Mo 6.968000378434675 4.046801938251622 9.594431449315532
Mo 4.459152910670347 6.286888509909341 7.098522123885811
Mo 6.62048815099658 11.387171466354413 6.515263296435174
Mo 6.939651852818431 8.024728413140117 9.514911175770496
Mo 5.870321945515614 1.6331931597366318 8.730804867592575
Mo 1.7637276795696781 1.9045296259380637 7.945965961616164
Mo 0.8840521501344365 4.72703659178901 8.32614479095564
Mo 5.674819255651722 10.704081103786494 9.173028606695533
Mo 8.08372706628707 5.905104444397714 10.484087322766959
Mo 4.217112220435201 8.183734982836425 9.224899404041167
Mo 3.829443951156902 3.8372859278262483 8.95740478696309
Mo 5.272003918723172 5.877571851914814 9.600653795525034
Mo 2.1351506947877192 6.064679290582848 8.782274958347827
