52
Energy = -485.1122379 eV
Mo 11.346563387729605 4.365446372479855 10.09677418545425
Mo 12.046392766812943 6.421501113639032 7.99442408630383
Mo 11.987428586152229 4.447306035175301 7.501722844519286
Mo 10.398609813953197 6.4761349569304105 10.586651173601888
Mo 10.657524558900402 7.874759906048662 6.1706960081713245
Mo 10.457867599084432 5.376554167408249 5.769991134449639
Mo 9.404472135712554 3.741952894329439 10.503161279702725
Mo 9.72193938541194 7.35786616865804 3.8346913675663603
Mo 9.658529214309933 2.7905586462982908 7.718344816335066
Mo 9.905450916638966 8.357073007189657 8.588424188598678
Mo 9.450841213951733 10.032563766340166 4.399643297656358
Mo 9.118339810464331 8.747908108913665 1.7451126015316387
Mo 8.158786529192495 4.413587442245925 6.06141811719245
Mo 9.380531453038541 5.65808710021934 8.362431101837577
Mo 8.84897671626001 8.588014057923854 10.87980714778875
Mo 7.210404100928195 3.571451987413517 8.88235011157178
Mo 8.030683341900954 5.471790347307815 3.8409848491515257
Mo 8.2953943352027 7.115560000214513 6.301698877706787
Mo 8.374816042102863 9.709521553260734 6.876813966498468
Mo 6.502099737171891 7.702160383818128 11.812096635592962
Mo 8.057807383909113 7.079596258097084 1.585326194172056
Mo 8.008329569706031 10.857800691111256 3.1058034229027656
Mo 7.891108371305102 5.832898236976179 10.516994714958024
Mo 7.292907922229691 8.278053696235187 4.1575171755695015
Mo 8.310955958187321 10.569083965505287 9.654871274180396
Mo 8.18580716540168 1.8608274029332261 6.9349553576332195
Mo 5.777634031170513 8.53740670620317 6.592939533813053
Mo 6.209261421870603 9.276701809509445 1.5677425197442894
Mo 7.308346739355841 8.0272042415006 8.958290046599233
Mo 5.996126833956473 9.511764001279202 10.877449772844082
Mo 6.3522184465088944 5.726342708252237 8.034640442922827
Mo 5.677902159500678 4.374146738934704 10.615423091810761
Mo 6.520885306524114 10.787385128333614 8.227092705005898
Mo 5.612602933003792 6.829728191635302 2.842033749945417
Mo 5.894546790857754 4.103254447753107 4.0348208212439785
Mo 6.7798383811213565 10.766407758408045 5.25268709705403
Mo 5.766767750923728 6.087728443108972 5.439203686575279
Mo 3.681305142845061 6.747963035271792 7.477368889829919
Mo 5.006980800985599 6.786294811402469 9.991230926844791
Mo 5.719091385351881 3.4116800995397587 6.487949290936287
Mo 4.438724970926921 10.41731935619843 5.911943954382675
Mo 3.7846202109092677 5.360168376336586 3.4739908071715884
Mo 5.138293932562772 9.725689822847546 3.0721145554815523
Mo 4.5971901828522785 9.08847573946574 8.630329885090754
Mo 4.313147168480984 4.138668527818724 8.681313035318624
Mo 2.682578207011515 8.8993196747739 6.677279337998359
Mo 3.629860341274039 4.568210734420178 5.926747810149861
Mo 3.8432803379784284 7.749539337775231 4.761127134519682
Mo 1.666091577273943 4.6425653582247355 7.806798517110567
Mo 2.483097103099562 5.545561273666173 9.520621082454648
Mo 1.6552241683764963 6.409706166123586 5.522328069580539
Mo 0.8994170571308486 7.073272807216479 7.336044591068669
