50
Energy = -465.38114955 eV
Mo 7.488863894334468 6.523502073409733 1.0582231525625834
Mo 5.002972806018034 5.990461933478593 2.284267754972335
Mo 6.502228011242601 4.0336123340335615 2.2175729762803873
Mo 9.139573637126153 5.560829144545003 1.423286646579052
Mo 6.004767387623123 7.832837663318493 3.651141746098155
Mo 3.480778179060767 8.249860878778462 3.353532318429585
Mo 8.909994115608391 8.10577393969496 2.913677535890372
Mo 8.702389349040896 3.22181944897496 3.3824735540342044
Mo 2.838009520912104 5.404678142397868 3.9087696896755664
Mo 3.709705336059475 3.3126992800598987 2.796442242785366
Mo 10.962979465570813 7.353833715994906 3.290240203812165
Mo 6.27031906408181 2.488250674126986 4.263765869475549
Mo 7.74853998867284 5.752478587895328 3.656058040107485
Mo 5.474582905184527 5.054861355116755 4.59657619719634
Mo 10.720775888833138 8.712751442429141 5.080102539160962
Mo 8.108137715539959 9.098005031361634 5.167873911635821
Mo 10.338410775285572 4.646285747643035 4.181080124326785
Mo 1.7842405716392795 2.826007063065819 3.6592101006606876
Mo 5.313836357741308 9.594902647340279 5.233353516490291
Mo 1.4960658732924514 7.377286529678592 5.177853166411023
Mo 0.8009671642240842 4.709137095249506 5.106808174495699
Mo 12.131694165586982 6.2362672018348135 5.750863953648598
Mo 4.012137077111145 2.9478913362797545 5.327808659246604
Mo 7.858264307081918 4.029293245765021 5.6694619198256095
Mo 9.285003530683982 6.665705503752266 5.5146262566922895
Mo 10.276854734564234 4.394194751677119 6.625701345233459
Mo 6.2237600404526745 2.2225660212093343 6.769858144897828
Mo 0.18819552062403924 3.981568244677014 8.02041682144715
Mo 6.720422988473382 7.137277776025225 6.376800752042713
Mo 0.41762202890081257 6.668816437794739 6.998531480776063
Mo 4.133084092034419 7.203093472032429 5.762039875438814
Mo 1.806576787955994 2.668848459004657 6.438418213569089
Mo 2.9126638285384367 9.683975595892605 4.944951941600755
Mo 7.017415845951579 9.849563245323056 7.634607312647392
Mo 2.802020682664441 5.0603184319138546 6.7727661135345665
Mo 5.725272542981727 4.682591641413767 7.248120013145735
Mo 8.914545862734789 8.70906808007934 7.495633891033042
Mo 11.275700476482104 7.026901277508111 7.292684662158212
Mo 4.443316767324534 9.231811137942255 7.635741671342607
Mo 8.31077985235101 3.402905226841336 8.257244385424237
Mo 6.307027376264613 2.843653199725843 9.278465199579674
Mo 6.760455332304426 7.837355282467002 8.96057487270318
Mo 3.685385374283385 2.5922536694284855 8.109908240900443
Mo 1.8993464088465315 5.9351931750795535 8.902112009058843
Mo 2.417561582790169 8.417161109535268 7.509061634121799
Mo 1.248026951171472 3.0689124069664615 9.297657239422847
Mo 4.4624342130514485 6.8381709195128515 8.476646337350607
Mo 8.336585607332976 5.836991946658928 8.061179580194933
Mo 3.793761338899835 4.395655363603636 9.460452371966385
Mo 6.463617033686478 5.209791469683481 9.63302599813784
