55
Energy = -512.51133857 eV
Mo 8.478138923364412 7.401130559262538 2.8787131948988387
Mo 11.1026842514459 7.157443580528161 2.2300732242329078
Mo 7.231723690836464 5.798582828838897 4.354448518568978
Mo 8.28059914205005 9.367925403784389 4.183867002560098
Mo 8.100048894201388 12.125253975851525 5.535518773400739
Mo 5.260521623167432 3.637076488386898 4.723930512829776
Mo 9.829659939740466 5.142168913656049 3.82387066922928
Mo 5.911371061899855 10.218738153329689 4.907608905796895
Mo 11.071486611628133 8.590290548723198 3.430550692055097
Mo 10.283693805105274 10.24261843430954 5.685859099653857
Mo 7.265128572982495 3.2621743073066836 4.819741185299034
Mo 5.71147014582092 7.940508254966613 3.518678020483748
Mo 9.182197971912286 4.9444323504534955 6.247054597670985
Mo 4.659537066084586 6.49859635277724 4.811434343022438
Mo 9.338554422940952 7.496918822236257 5.517145126194246
Mo 6.278251950767741 5.132391044905389 6.876245241709872
Mo 7.911607419751782 9.875820223009178 6.99905362227384
Mo 6.6615554561751145 7.744754238365676 6.134839897196809
Mo 4.284067838802113 8.774066006639245 6.0703849823555895
Mo 12.016073434507703 8.390669698474591 6.539393134359836
Mo 10.30911126639453 11.368431406253816 7.552072883499422
Mo 3.5065602325368093 4.761328260380275 6.8579573008551415
Mo 5.6104937394091925 2.6367012282336537 7.057448121517579
Mo 11.483511554894832 6.022385245412125 4.772357265752548
Mo 4.266958148044833 6.970072347290409 7.774184503730776
Mo 12.73942184421521 7.993181015835185 9.070212478902274
Mo 7.775929332591372 12.688287864786163 7.4226989774286425
Mo 5.571635742976629 11.384965717109884 6.901623072105694
Mo 3.9027018883714155 10.072974028386627 8.226029683911875
Mo 8.256679382558513 10.881060225689746 9.44003000996077
Mo 11.205614403954984 6.298471557055896 7.4349727416069324
Mo 6.009438062232833 9.10633220599755 8.559060997825924
Mo 7.9208420866964016 2.8547415461057537 7.434120530250361
Mo 9.665093081136058 4.667109721039554 9.25423702150216
Mo 8.423991556959942 6.559218577130138 8.149745304142279
Mo 6.01318396631361 6.3791510519367165 9.519004252454522
Mo 10.13293653939275 8.792029594505602 8.128977468135004
Mo 5.792167972578511 11.57452277908938 9.668493189096486
Mo 4.3969136188981235 4.321813706041686 8.705600324444204
Mo 4.579935140115215 8.330537249810012 10.57871851891919
Mo 11.188263909338072 10.19908791620971 10.092724946637983
Mo 10.537500463528984 7.262862050844804 10.33330605027406
Mo 7.21640191982471 3.9753902262395413 9.24077766126921
Mo 6.082871865028728 7.188691994741776 11.887318356017483
Mo 8.051898573403045 8.288171144793385 10.167348682097705
Mo 7.485584164249893 12.505955482165241 11.687762099559961
Mo 12.470760900505459 5.849171861696837 9.478548208925142
Mo 8.592159824481202 5.791913984509242 10.964206093574893
Mo 5.586000141383689 12.353652540516139 12.09781458150393
Mo 11.710719709048918 9.079301437718634 11.684593003223803
Mo 6.4275022537101245 9.84769984590494 11.4989693289239
Mo 9.181328393062895 10.339920130317179 11.92957012611399
Mo 8.85663607302142 8.29109434232749 12.566278042862317
Mo 6.505356607950771 8.759762461766375 14.113538810818632
Mo 7.273401276775115 10.450326925124717 14.04916647713343
