51
Energy = -474.92578437 eV
Mo 1.0744232061491985 3.1580794883528833 8.431676017957443
Mo 0.1171306563521717 4.666697105674002 7.4930852532477985
Mo 1.2609162821643407 5.795439589401295 9.659770596768988
Mo 2.3198786765825927 3.091430329468832 6.181554321296065
Mo 2.8624492999159155 4.22086382395448 10.190387852972796
Mo 1.551880066875861 5.137688899618561 5.121551743759888
Mo 4.109135987092124 2.4572720124399288 7.886728202539876
Mo 1.2591074210308575 7.365930859516435 6.953414959000486
Mo 3.5504377496441104 4.171986836814077 3.9905037491214346
Mo 2.820221751655615 5.249275907505129 7.683949521878017
Mo 5.382087984555885 2.0244566153386314 5.052569103367728
Mo 3.4537305404683116 9.11402215813866 3.958338898432475
Mo 2.551740262378434 7.816351651668673 8.680793453050105
Mo 3.4282696395153383 6.788647640756155 5.256903578732557
Mo 4.190009772748684 6.0871822696002855 10.120922337753846
Mo 5.516874210008488 4.343461300630473 9.132024480444139
Mo 5.8585400375198295 5.907152041578203 4.746827104744036
Mo 4.862961227630452 4.22114621193803 6.333520882271539
Mo 3.8848262871936616 6.2358034362648205 2.747707999223985
Mo 6.488059816806103 2.245092452892074 7.286521299059568
Mo 2.7756958499492415 9.31614630803516 6.268209581847659
Mo 7.508713209407454 1.207212026786753 3.5298333518974543
Mo 7.924880954325497 0.788736948860865 5.3951309235176454
Mo 5.7408433451229 3.6985292332292645 3.0424830965092826
Mo 5.181514750399947 6.814816667285181 7.708427864847628
Mo 4.71116386096288 11.315752275635957 5.429260638657684
Mo 8.269358183562213 3.3150842999132544 9.05091900003279
Mo 9.245786728859084 2.881002408950406 7.480469540439452
Mo 5.458641040298072 8.619639737385416 5.764451385663489
Mo 6.464301781089039 5.832544620679441 1.7423634291818355
Mo 4.589571248011473 9.483395037511114 7.880834057145779
Mo 8.33077562725384 3.7653102848717555 2.355654084406512
Mo 5.57772886421389 7.980203653933186 3.2054099259985303
Mo 9.798264719428385 2.653888099908934 4.603722546657299
Mo 7.176087366103897 6.238872305543573 9.192068175649483
Mo 7.583815259539191 3.581798530999643 5.028230453203339
Mo 7.470497922748208 5.023048183885674 7.166313835438732
Mo 8.105394821185932 6.197969361228547 3.8112008375712163
Mo 5.823722410850954 10.78126076071533 3.9816576351502855
Mo 7.7887988164805835 7.428968211701559 6.3538745569982495
Mo 7.1720818906249235 10.263889237828282 6.5738907670774385
Mo 9.878526103256792 5.2804567125309285 5.9787200636815605
Mo 8.662696132143619 5.650461872587913 1.075977226738878
Mo 8.0947361666206 9.0177045822463 4.232125821794939
Mo 7.961675513531109 8.400563403170564 1.97866553611446
Mo 7.076211575009268 8.811110725811478 8.388100545589595
Mo 10.305531864592217 4.715259184594567 3.6906299893111885
Mo 9.766147092745937 7.4447725344447715 8.062711571153585
Mo 10.163058765230023 7.580827760530198 5.16467771412692
Mo 9.945804459352118 7.480977163335201 2.570108505188716
Mo 9.774300475355526 9.225609343236902 7.1770817801793445
