55
Energy = -511.25507582 eV
Mo 7.399287088294992 8.546465110658813 3.469671324716338
Mo 8.778455390160365 6.607318244797474 4.303560242344281
Mo 10.504223279178358 10.350026492367373 5.417344419037819
Mo 9.079301410741325 10.21012436216837 3.0482040793293286
Mo 10.229638532896638 8.35104306911955 3.1189838100049174
Mo 7.486498002084641 4.642759955026045 5.320775925506226
Mo 6.236680736797353 4.9473419529240426 6.9167315516232195
Mo 6.390487997990135 7.2068363839831004 5.846150437322589
Mo 6.630630138256788 10.989429684193697 4.783345328132232
Mo 8.427670860904763 9.053839163635033 5.589067784755643
Mo 11.000647388620052 7.730297791815859 5.4798612155650455
Mo 10.26078732185842 12.518989165973903 6.987851906319007
Mo 10.45383907189922 5.105827323243008 6.05920629164337
Mo 5.605996424340315 9.636752259057713 6.7475806064027015
Mo 8.151705919104701 10.99338993373329 7.428826439933133
Mo 12.733115785548755 6.2524958284917815 6.08292950961841
Mo 3.798221833271797 7.926578903771963 6.528293911760117
Mo 12.621673060282285 8.891106813352437 7.349314249141252
Mo 8.866097121565545 6.536591797164498 7.078629074440931
Mo 8.31926877005275 12.146875479089163 4.92939799264099
Mo 7.405331770536094 5.5481965918961125 9.396278498587623
Mo 6.321527027419058 12.558968354076997 7.202909332851881
Mo 9.955692904957713 12.201677433483347 9.297450452271443
Mo 10.35522469867544 9.513647406925761 7.789208219353803
Mo 8.663171071268742 3.740198932480566 7.880152541328708
Mo 8.203855272430363 13.770315247313754 7.2380754095045825
Mo 4.85499288155957 4.844048128625354 9.482164540854578
Mo 3.2387933699083247 9.227679513113472 8.202417856304052
Mo 11.56293325324097 6.79583025618202 8.08524066758067
Mo 5.157554986685001 7.182551247981002 8.598075551660948
Mo 7.512487239523556 8.396324839508479 8.193268274999731
Mo 12.353649581925257 11.14438740102595 8.912901704900792
Mo 7.479467281498295 12.31538700917824 9.619973156150973
Mo 12.75725535280068 12.358599545514636 11.008846501301058
Mo 10.778982998838666 10.958226823703402 11.474900068001316
Mo 11.48883174805425 8.809302562011013 10.167946863158024
Mo 6.792564494367296 7.7701151141854465 10.974250801954593
Mo 9.354178788799022 7.268370191658118 9.692720655658645
Mo 8.937242553502031 5.26533980624994 11.56721942882022
Mo 1.8161946261978263 7.936754367234069 10.637144034880189
Mo 2.3861010462617283 6.917374242707432 9.052386512419883
Mo 8.65500435388472 9.991492403196654 10.14255985989812
Mo 5.8983774515813225 10.223993006490113 9.300184700353618
Mo 10.16196535824659 4.596431430057235 8.904882173190167
Mo 13.809938351876669 9.836720799204514 10.261112831610756
Mo 4.281978088493531 8.62654064352911 10.552919480762228
Mo 13.554466006277975 10.86524606000532 12.374679176944593
Mo 6.646871073703502 10.157711485396224 11.579882316201683
Mo 11.381514328219154 6.1902923709969935 11.313945187562757
Mo 7.705899017369521 6.779287680760215 13.170885425931194
Mo 6.456874755113782 5.193875423056119 11.788022037521829
Mo 9.346679083097243 8.198026407386546 12.045652966285525
Mo 4.188122396856129 6.192997232919464 11.131088675222301
Mo 11.98285489403386 8.802215595586071 12.415495888499647
Mo 10.800339660815823 6.398928633659029 13.28057600910296
