52
Energy = -483.7407617 eV
Mo 1.0241109274008549 5.630786848715301 7.081794980632839
Mo 5.291259658059886 4.007018601786716 5.75528287384783
Mo 0.30787637724333716 7.950017029357627 2.368616044462083
Mo 5.291615002927152 9.243642397209005 1.5180832534014383
Mo 4.521910387289099 5.284904078891899 3.506444573392592
Mo 2.1733202242716527 1.5963115233586436 3.1990926897024123
Mo 4.581687711969761 10.601777882458489 3.6013741305353846
Mo 5.50871644752032 6.1281647647054145 7.784074679143998
Mo 8.766899721579314 6.293849958884864 4.124334042217274
Mo 3.986590137120268 6.670743804222773 1.2865671603691347
Mo 7.139284295608164 3.9800473475984894 3.9049717833516246
Mo 6.522842772064561 1.67042626841448 2.3941121496959687
Mo 3.365272019297514 6.354804659526955 5.963446325236399
Mo 7.008144470671387 8.788610457195842 0.8105065508851236
Mo 6.164543219723996 1.4318861552979738 5.006888112662744
Mo 6.195810002418784 6.20992977481946 10.363833121825559
Mo 1.8725412902627867 6.169990138850567 0.6110776978906568
Mo 2.0232334092356337 8.741723248798431 2.0865501503922257
Mo 4.225034708395109 8.093531099224519 3.826727087865649
Mo 2.4573406847870394 1.2475323109049519 8.038452846970506
Mo 0.19112235868992855 5.6035007935678545 5.358379263657175
Mo 4.991540494079706 7.600468295866685 9.9416727105494
Mo 1.6260781847514583 3.514043435523465 9.508428719427512
Mo 4.805389997568846 10.337036722188783 8.557213379645312
Mo 3.3927738614688607 3.9122419579778844 7.405427217406014
Mo 7.722113299105409 2.7840684823528816 6.507537678706276
Mo 7.2924801224619 1.1295109663473133 8.685483100514505
Mo 6.6444699205953786 6.593727557211048 2.4254062368769347
Mo 4.52144685653012 2.6657351497628374 3.190481724633721
Mo 2.0143036378448658 6.16021390680643 3.3171534515860195
Mo 7.2430322001052065 0.011047378491915371 7.0532203576533155
Mo 6.906362816613761 8.515430471662663 3.7402441762932095
Mo 6.173989143271914 6.55477133340394 5.185850478701688
Mo 8.031481318228034 4.009811462822078 1.7792038413763627
Mo 3.3214642942449313 1.5255518490131297 5.454702672723743
Mo 4.349957601373727 0.18045979611650054 1.7636616605706903
Mo 3.8079861064078684 4.285105446785899 10.129871623905204
Mo 2.5975403332721827 4.068800484367831 1.7572455027051384
Mo 4.693312526038133 8.387278111333782 6.121950855359585
Mo 8.51102535201645 7.485213773388873 5.7555910917724
Mo 1.7533810745948826 7.949255837207506 4.889045058844595
Mo 3.499772416150978 5.8339960390393 8.828448060720278
Mo 1.203898689542657 2.531544011392478 6.696591991186976
Mo 3.418557210936137 3.071595417356874 9.9416727105494
Mo 0.6764742854758686 3.4880799981537303 3.130453362369251
Mo 4.204029257739705 10.167519996794109 6.738480754545288
Mo 5.779697973474946 4.214339269891836 1.3178824055857952
Mo 5.075123415778654 1.8231097207032598 7.545559206575314
Mo 7.957059393291117 4.967368769302185 6.602076158301664
Mo 4.0423692897870325 2.597306698227223 0.08430108059291533
Mo 6.091388327785065 3.984297724305062 8.497031243397656
Mo 2.4028376494683985 3.9019082409353114 4.807539417308515
