51
Energy = -474.71991023 eV
Mo 5.989715384764341 4.874213072569049 12.013081638840196
Mo 4.3856631241147275 6.7021626977043525 10.991881041587801
Mo 3.365685845663978 8.191081218510668 9.907337806005632
Mo 7.342994740819444 6.853391276669623 11.05349072042178
Mo 2.211338535151385 9.854298428706127 8.243283099559752
Mo 5.920164310923316 8.442270217675711 9.616269669838653
Mo 4.964014501764041 10.762063593100168 8.627739705973609
Mo 8.486166050756227 8.444497845539653 9.615576803218888
Mo 4.693997782110725 3.8579851762856077 10.435679006946108
Mo 7.635912088048742 4.032839555233693 10.661037456074068
Mo 6.816089365887097 10.89422561796363 9.015567765389982
Mo 3.3272198416921626 5.865523615866904 8.686096875140834
Mo 1.7427075442425262 8.130566180846689 7.338824453551139
Mo 6.055559700495053 5.617082764016089 9.02615006060148
Mo 8.969254556874668 5.919352519083518 9.106058851964594
Mo 3.4930978348062904 10.155028562293326 6.185653664647673
Mo 4.515955545672873 7.935301503343012 7.259343864296458
Mo 10.934400534300785 7.959810263842063 8.634296625658306
Mo 9.473440004273382 3.0587484678967867 8.823566989763485
Mo 7.371872470053127 7.395534066391338 7.325673556157739
Mo 4.040992287120857 3.718539771409052 7.674059962695584
Mo 6.297763521072632 9.913043442128817 6.37073786681818
Mo 6.489328489494161 2.80807762432731 8.845146139946722
Mo 2.7564513544915172 5.84610893391505 6.197468408254254
Mo 8.852887759252559 9.601739422701154 7.509593763924153
Mo 5.38337755749243 5.456968340102993 6.379933729738803
Mo 7.579105315268725 10.272214777793836 4.233518093799164
Mo 11.206052897778516 8.609761369626224 6.781913239328908
Mo 5.944999740108283 7.838322302801421 4.7906766130554015
Mo 10.682613835350192 4.232685238429075 7.884313845202274
Mo 4.69336610602835 10.076276304029538 4.131669997615324
Mo 3.3036707698557213 8.089612214337363 4.804238561191679
Mo 7.794759428463179 1.551571173268055 7.145717763915864
Mo 9.826692987842831 6.480341122730726 6.506420667073703
Mo 7.853735736676638 4.420364937148208 7.11596455259741
Mo 3.2889696520762977 3.7540411494542383 5.287204386246372
Mo 5.891216574425932 2.6384047069315835 6.261776208253053
Mo 8.726285547786711 8.521108755098311 5.270330775192371
Mo 7.716119101975828 5.718782816123785 4.7340740736038684
Mo 8.010103061474524 7.786176642713954 2.889346105878225
Mo 4.880328551916781 7.830974823951598 2.1712009878581897
Mo 6.014793964408883 9.48076630411178 2.1204991657328636
Mo 6.071689440395378 3.8115382672359104 4.050486767646656
Mo 10.190601227185766 4.350981516363834 5.191547254698615
Mo 4.478759313800632 5.7298929063707345 4.019845534858504
Mo 8.401154221632002 2.9324227467442285 5.046242385222858
Mo 9.93677078600159 6.498728758927882 3.526224064081588
Mo 9.071129720587958 6.141665640434903 0.9149383846496492
Mo 8.729419193886388 4.319959995186627 2.7087955582262273
Mo 6.669925027518212 5.301683279532173 2.1736373663966595
Mo 7.356402642615021 7.160668715043324 0.5387731732849739
