55
Energy = -515.79418127 eV
Mo 9.062153016968393 3.3299094267083365 3.2521853761031134
Mo 10.132276872275467 8.088353689888319 8.58041356089302
Mo 5.500100804720566 5.663812302788775 8.863314268591884
Mo 2.3043868143767066 8.07135147623568 8.931490362897577
Mo 4.602732915331341 4.726173645444761 11.398381349940157
Mo 9.344484718195215 6.186258426464069 2.8648869964626633
Mo 10.500871747308379 5.372500572075392 7.656888211894609
Mo 6.871728346251388 6.566456364683088 10.977406602694243
Mo 6.525912392537631 9.04467765996057 10.622183596038171
Mo 5.2982392672274425 4.894605793204276 4.053031203457476
Mo 8.596789492662174 10.166700618200153 4.356757470522875
Mo 5.953199920643616 11.03186629651416 8.676355487457814
Mo 6.806758409093154 9.800033892897314 2.5631658315913364
Mo 5.173038662583124 1.1827508883872326 6.790213603357553
Mo 3.4226217438051387 4.768621078611635 5.501084742640321
Mo 9.180095300448976 6.021855183869674 9.98724598436519
Mo 3.311666101311631 8.710926934148175 6.50228474987587
Mo 5.768750143763574 4.004006944623671 6.68874628783144
Mo 7.621775603002863 7.69829288218887 4.1620440090238455
Mo 7.075105520441378 2.918284703664598 2.943366493066881
Mo 10.600412571225446 8.117597442750853 4.731086723721994
Mo 3.481186145180579 3.308287503822141 7.8068788221915
Mo 8.812022072896582 8.861199457602448 10.816892400133641
Mo 8.358033306771643 10.195858563281075 8.7418876887258
Mo 4.968771183299281 10.982941942423624 6.518209239106293
Mo 3.0832224378611683 4.841643248560859 10.14583473323014
Mo 7.793334722830054 4.971286868376727 4.928414768904633
Mo 7.345207665335414 2.2988894552319694 5.369572027735791
Mo 5.115804965943976 9.2233254611688 4.689659439968555
Mo 3.308937340139335 6.9512535409863005 4.662965498944599
Mo 5.337979597603648 7.317949442982673 3.1304454449625547
Mo 7.898339535369168 5.100064451692766 7.7364862588065
Mo 4.12361139617768 7.3789236841933485 10.335455096451442
Mo 4.702492727481878 2.0064702515505974 5.1201119649885625
Mo 3.114891235255077 10.792775752020649 8.716697013582008
Mo 5.019713649686791 2.9134570454415973 9.200587677441526
Mo 7.470496388436195 7.596779714732791 8.623358070995776
Mo 9.370853660587297 3.3227402486195916 6.436990447720728
Mo 11.752195955066043 7.4415074267345656 6.738916297488453
Mo 7.309606391278344 4.067205496218732 10.184724430032462
Mo 8.871656699737333 7.199029599336268 6.392648020734295
Mo 9.52096981472698 3.561050438645374 9.604489213464971
Mo 7.147087490890488 9.381887507249932 6.478861159855456
Mo 6.752712381722085 11.818194478678299 4.8511923573247095
Mo 7.707796354781228 12.053336333209735 6.646404952903321
Mo 3.832886421265053 10.199182742965476 10.373780351183958
Mo 5.001226939999985 8.624919485812296 8.26627978397144
Mo 7.620932419404674 2.524181252358008 7.964441514774908
Mo 10.38894120396477 5.4753399158265985 5.1195462010150825
Mo 7.598176288520409 8.170754090172055 1.3412738093369523
Mo 3.2879476846683557 6.314579301331727 7.697173643820611
Mo 9.541521505951899 8.853831578040605 2.3788192471322014
Mo 7.255835113228807 5.504435798261204 2.24606874091949
Mo 5.699667473370601 6.775111937277249 6.039140019442318
Mo 9.834841733773418 9.688570029264728 6.675261017662359
