54
Energy = -504.31504838 eV
Mo 10.017027021277574 5.20981095873728 7.210134120153105
Mo 8.140900697766075 7.152991076779982 6.017641514560486
Mo 8.076498291860553 6.780576529692565 11.479171978455392
Mo 2.720249631789165 7.491621133097973 5.300332951425866
Mo 9.723705725184537 8.89419483696269 10.297606022021327
Mo 9.8647828192217 4.762281879679983 9.803447915337287
Mo 6.817247250915667 8.849023307616479 7.6409675180409415
Mo 7.244363267366086 4.698187639798575 9.927554734440996
Mo 5.348342558735212 10.678824799734587 8.697831878586197
Mo 10.917494836373484 7.6472385043366575 6.03326486126835
Mo 3.3133013882001627 5.893480517435335 9.601963889349733
Mo 4.943225521709969 3.6980856812601024 8.439653592044166
Mo 4.30396519080164 8.630434377474339 7.0053636416811305
Mo 7.257345099976309 7.696825997080846 3.395904571033616
Mo 11.331358037104486 10.06992883518066 5.912613630294802
Mo 3.9669402022414135 5.3919599789309665 4.022602769227421
Mo 6.86923580373997 4.896617029899671 4.142321795887315
Mo 4.38677712053305 8.198937796692213 3.362036006483807
Mo 8.552539615717118 6.818737698738729 8.864879989242144
Mo 9.774850366252428 7.887752733555665 3.8078950188601084
Mo 5.466613493745827 6.2118301106964715 2.3459900324781517
Mo 5.548871459114361 6.783581986162532 5.405703693089803
Mo 4.386682442588771 8.243249204277456 9.68307871745866
Mo 2.2335834535729697 7.409615594472168 8.134171349271035
Mo 8.428745648256363 3.2611816651228724 5.565585255138142
Mo 9.401934399918565 9.162761736124928 7.759780339003747
Mo 11.194614164000026 7.143660387708096 8.440824960166452
Mo 8.183112667950624 11.09690895119223 9.424982815376298
Mo 3.681808295999111 5.7358549525053695 6.897828399525587
Mo 9.685900462048137 11.651067407796106 8.327091723907767
Mo 2.5285361059905647 10.22736247883144 8.663202602403592
Mo 8.651258487814761 9.723023676836721 5.326461861423014
Mo 11.925411371070997 9.695976642432822 7.833801133822077
Mo 7.039427272528334 8.62185678160701 10.320272695912433
Mo 3.6183933829528256 9.932094998986027 4.650846288442072
Mo 8.587134303970531 5.945414333646788 2.2287787984143055
Mo 5.571244858748983 6.332999569850373 11.321724891847342
Mo 7.207353211862202 11.193265981180675 6.820188523743641
Mo 8.929548531937707 3.122187263872606 8.30435480230917
Mo 5.208238296112005 3.6487615248935326 5.70903215819434
Mo 9.509599996750167 5.511550418111234 4.606250006435121
Mo 6.077346093200744 9.586708503974684 5.0730048533751955
Mo 4.431500566619443 11.344240786187067 6.753386329584777
Mo 5.726513922840161 6.535280309068854 8.502828923704344
Mo 7.170140864689955 4.8312701793939805 7.112860786297907
Mo 8.86139994662755 3.277236708624073 2.9893151793844233
Mo 4.7105235635074045 4.259590384339506 10.778374963118246
Mo 5.00061663435517 3.124766375569812 2.8708582336902366
Mo 6.330035866991341 2.1043439367769543 3.8649974430610845
Mo 6.678166019186958 2.1663844359958384 9.104216906146053
Mo 6.684486465453404 1.9001508853318014 6.910877357803101
Mo 7.310224680861075 4.003116381998027 1.6448882023981084
Mo 1.8354983502493762 9.976347687102544 6.928418281301333
Mo 10.528431915120176 6.913983787150478 10.985112674826226
