55
Energy = -509.27934604 eV
Mo 6.490699004385386 6.490699004385386 6.490699004385386
Mo 6.490699004385386 7.864935351446483 8.780048789777695
Mo 6.490699004385386 7.864935351446483 4.201349218992913
Mo 6.490699004385386 5.11646265732429 8.780048789777695
Mo 6.490699004385386 5.11646265732429 4.201349218992913
Mo 7.864935351446483 8.780048789777695 6.490699004385386
Mo 5.11646265732429 8.780048789777695 6.490699004385386
Mo 7.864935351446483 4.201349218992913 6.490699004385386
Mo 5.11646265732429 4.201349218992913 6.490699004385386
Mo 8.780048789777695 6.490699004385386 7.864935351446483
Mo 8.780048789777695 6.490699004385386 5.116462657323971
Mo 4.201349218992913 6.490699004385386 7.864935351446483
Mo 4.201349218992913 6.490699004385386 5.116462657323971
Mo 1.687121498321479 6.490699004385386 4.07938295906721
Mo 6.490699004385386 8.90201504970357 11.294276510449288
Mo 6.490699004385386 8.90201504970357 1.687121498321479
Mo 6.490699004385386 4.07938295906721 11.294276510449288
Mo 6.490699004385386 4.07938295906721 1.687121498321479
Mo 8.90201504970357 11.294276510449288 6.490699004385386
Mo 4.07938295906721 11.294276510449288 6.490699004385386
Mo 8.90201504970357 1.687121498321479 6.490699004385386
Mo 4.07938295906721 1.687121498321479 6.490699004385386
Mo 11.294276510449288 6.490699004385386 8.90201504970357
Mo 11.294276510449288 6.490699004385386 4.07938295906721
Mo 1.687121498321479 6.490699004385386 8.90201504970357
Mo 6.490699004385386 11.238395192816787 6.490699004385386
Mo 6.490699004385386 1.7430028159538284 6.490699004385386
Mo 1.7430028159538284 6.490699004385386 6.490699004385386
Mo 11.238395192816787 6.490699004385386 6.490699004385386
Mo 6.490699004385386 6.490699004385386 1.7430028159538307
Mo 6.490699004385386 6.490699004385386 11.238395192816787
Mo 7.874744281146596 2.854399348145803 8.633094621625942
Mo 5.10665372762417 2.854399348145803 8.633094621625942
Mo 7.874744281146596 2.854399348145803 4.3483033871448225
Mo 5.10665372762417 2.854399348145803 4.3483033871448225
Mo 10.126998660624965 4.348303387144982 5.10665372762417
Mo 10.126998660624965 4.348303387144982 7.874744281146596
Mo 2.854399348145803 4.348303387144982 5.10665372762417
Mo 2.854399348145803 4.348303387144982 7.874744281146596
Mo 7.874744281146596 10.126998660624965 4.3483033871448225
Mo 7.874744281146596 10.126998660624965 8.633094621625942
Mo 5.10665372762417 10.126998660624965 4.3483033871448225
Mo 5.10665372762417 10.126998660624965 8.633094621625942
Mo 4.348303387144982 7.874744281146596 2.854399348145803
Mo 8.633094621625942 7.874744281146596 2.854399348145803
Mo 4.348303387144982 5.10665372762417 2.854399348145803
Mo 8.633094621625942 5.10665372762417 2.854399348145803
Mo 2.854399348145803 8.633094621625942 7.874744281146596
Mo 2.854399348145803 8.633094621625942 5.10665372762417
Mo 4.348303387144982 5.10665372762417 10.126998660624965
Mo 8.633094621625942 5.10665372762417 10.126998660624965
Mo 8.633094621625942 7.874744281146596 10.126998660624965
Mo 4.348303387144982 7.874744281146596 10.126998660624965
Mo 10.126998660624965 8.633094621625942 5.10665372762417
Mo 10.126998660624965 8.633094621625942 7.874744281146596
