55
Energy = -514.46058904 eV
Mo 7.831194631953669 7.905131292557465 7.2532763296357725
Mo 2.9298471858785806 3.4972624134695924 6.025397648532582
Mo 7.410376955345559 3.5712711073240455 9.518770590333958
Mo 2.614345124163071 7.521382033820704 8.972139893526398
Mo 7.333206452694413 6.3129253008334905 4.991615932911689
Mo 7.662364112081013 6.474990312645169 9.768337654641819
Mo 7.425198818002393 10.647377731482083 7.06727266892354
Mo 7.655213808517657 9.517793261564403 4.991754650829215
Mo 9.569928799529185 10.100580874864844 8.348211339586358
Mo 7.505530620395876 4.94198197300547 7.418716585356161
Mo 7.428109412838086 3.2455810737380912 5.492648529282853
Mo 5.149729207614279 7.5510105757503085 10.196690081050614
Mo 3.0340275734272595 4.792137341015797 8.352136204132757
Mo 9.496868077891907 7.524090150997985 4.66672309310534
Mo 2.765917938404469 6.391823901914926 10.49854396629839
Mo 7.468773090979607 2.0560030311903805 7.756836495640829
Mo 9.411685380710178 4.654938742074792 4.572876163364681
Mo 9.823860143318917 4.89223999260344 9.040939145061545
Mo 5.242766629630888 6.481615651136069 7.4407008045190866
Mo 2.9194905745078916 7.688667670738513 3.977742596308031
Mo 9.97839608262363 2.374128184199217 8.690084199873553
Mo 5.1624411422684275 9.064939882853276 7.952640362859022
Mo 2.835585276188953 5.21377764992993 3.633688526657208
Mo 7.2156492347164285 9.09840423983309 9.534402108255927
Mo 5.2315665628718815 3.3251215706979593 7.515856968309598
Mo 5.053340050074468 6.501831688154022 2.798527986766716
Mo 9.905676031987984 7.557726702061291 8.887589350504333
Mo 9.866487520536998 6.067193243344046 6.695628310968498
Mo 9.210319370248632 5.955750628773974 2.7545924626275258
Mo 2.8058265292057056 6.731300206961381 1.1897832116784688
Mo 10.009223866185097 9.349123792189165 6.519408699899877
Mo 5.306425327413228 9.363180195937057 3.124783679018813
Mo 2.9754433396867186 8.650926742753304 1.718438609945277
Mo 10.00334120777813 3.131351342289891 6.889970548384283
Mo 3.247778865763132 10.11636011284155 4.616712559496222
Mo 4.343608064844538 3.9872658134797394 1.5762151218475293
Mo 5.252694290058852 7.966481870939106 5.262688602055695
Mo 5.919011217777875 2.513941319711296 3.6346992406622807
Mo 5.49797688273307 7.985734957043875 0.6529647155170052
Mo 5.29879985386463 10.52168758518743 5.840096276500594
Mo 3.3476787993529205 2.8709539763006484 3.909253219358416
Mo 5.204087769727172 5.114950319600618 0.36862658855559344
Mo 5.089839308034749 4.716034534282291 5.152028973798375
Mo 7.327799059533086 8.024745581443966 2.8711640344272884
Mo 7.3083257845295915 6.879128659108427 0.7682692859831751
Mo 5.074789260010801 1.7786677121066492 5.831071203258711
Mo 6.868185825108047 4.734185811686601 2.8056231246473553
Mo 9.895511573400276 6.248701982595853 11.537218354980231
Mo 2.9427130698483968 6.205623642673924 6.2842586640429055
Mo 5.212331154896035 5.06451328240955 9.532534111862027
Mo 9.033488375336814 8.638953053495866 10.907990241630072
Mo 3.0547314971827046 8.878720050212408 6.586797895202065
Mo 6.891744076866288 7.530582278796034 12.207278572562428
Mo 8.883583880539684 4.618492192457138 11.585665684120093
Mo 6.294792036250392 5.678341486252332 12.039744856032419
