55
Energy = -515.2554013 eV
Mo 4.780464420503025 3.954583905679754 1.9639565041391551
Mo 7.423530164749582 3.0725244024699245 5.982762101642613
Mo 4.987543090999191 1.6298437635165195 5.879360336788493
Mo 4.436472018128557 5.673513444140868 4.165282796277435
Mo 3.512544853819839 8.076825248059611 3.0772639159325785
Mo 5.452583380762745 8.517219585011999 1.481427525193057
Mo 3.558360958206022 6.225344988545613 1.4914105970076803
Mo 1.348359443325777 6.818732547363188 7.659404892052906
Mo 7.719423133118631 5.301558355696601 7.851871442446583
Mo 6.003955742143143 7.961158648522163 4.217809657728816
Mo 8.785197876388555 6.991409228037424 4.227370915993444
Mo 6.7205900812385835 2.85762109985918 8.442619363686267
Mo 2.146438666733766 5.435563787869329 2.943712531990653
Mo 3.831025751433484 3.2827536970646674 10.892357746179295
Mo 2.74377951017736 4.477085728050738 8.336554166031114
Mo 11.485726415282196 6.339997437214987 5.006613503111361
Mo 8.690601281915677 10.204914851570521 7.181260446377368
Mo 10.983081528011972 5.597659183603106 3.272494538647604
Mo 4.365268053207911 6.80204981929818 6.762253494259018
Mo 1.9870875476909136 8.651678064016856 7.388374454831582
Mo 3.578665953114128 3.2552533657759133 4.028235515407867
Mo 7.103381948228848 10.563658988423912 8.286289534835923
Mo 6.385065624943254 5.9838840559224264 2.404613822965751
Mo 10.540319138427602 5.240894856855488 7.840750748958486
Mo 10.661399895354503 8.632562303683457 3.1971523486088236
Mo 10.688174971033535 9.056023754962856 5.15558539426732
Mo 5.73071367012545 10.085335913716824 2.9062428327987124
Mo 6.734202367890192 8.206512923687738 6.7299523660707825
Mo 5.077136822438531 5.064261584907549 9.085149791793516
Mo 9.665817513650822 6.325670533294511 9.815500533248665
Mo 9.511745642969151 3.020333372793664 7.675010150915111
Mo 2.355680792391633 4.727422843787768 5.91124798247468
Mo 4.745954113356966 6.1461133753870465 11.516348874863123
Mo 3.4200004235332466 7.257363665618077 9.27521271466526
Mo 4.971219252108818 4.1658643827294775 6.514738614441094
Mo 8.363887781988993 4.391023418724851 3.2171094161065374
Mo 2.3797811846613355 7.196411209218172 5.115705445669165
Mo 8.81660292325383 6.5546752799514625 1.5562481142703612
Mo 9.239508829995462 7.238046396106867 6.851008720394144
Mo 2.9980608921876795 2.1013991097994227 6.4134952644397165
Mo 8.778707817358919 3.5853807401299678 9.681879078376742
Mo 4.2331140590063985 2.3609638086228593 8.659090522364403
Mo 5.971898788170986 3.411865855414021 10.93368142060192
Mo 8.23630488672205 9.567827797754925 4.5825924191653
Mo 6.205666335062408 10.546148480541696 5.597933785776889
Mo 4.097293513377267 9.325848165432319 5.424205737756767
Mo 7.304643343362434 5.834180572657331 10.32215201796707
Mo 4.65450268947906 9.400246022534525 7.863783195726668
Mo 8.031030189421962 8.469152565989617 2.1085671365252567
Mo 5.8122860556717635 7.799915834522421 9.393523180862546
Mo 6.166476987981354 3.411065344794294 3.8154725234138462
Mo 9.566819072156923 4.59834555782679 5.460757755408205
Mo 6.8860305100827635 5.646169428110948 5.353766192549057
Mo 8.273297877897843 8.140903140700434 9.014756719605945
Mo 2.7487074859568263 5.713370835227509 10.964212467586366
