54
Energy = -503.78474078 eV
Mo 3.405708646154548 5.204655142650924 8.53647956937137
Mo 4.256521124039781 1.9877076726823513 3.864315166577033
Mo 3.355341135847008 6.522161100515083 10.34922581060706
Mo 3.779502880875839 3.1268245894621587 6.549534076741851
Mo 5.795901732345853 3.6205516268754065 8.005849426403028
Mo 5.263904053036011 1.5070278837171576 6.152071419465318
Mo 2.649343512970826 5.919663302382649 5.868971669539912
Mo 5.66881611007122 5.138918213883362 10.223160211330624
Mo 3.0877376684836406 4.201052652194471 4.099952462233177
Mo 5.963212358843583 7.2028844581614875 11.965544007182281
Mo 2.8536538144034607 7.71603740530266 7.659533791624211
Mo 4.467604586545109 1.5836958496006281 1.2548868326334068
Mo 7.741700843663691 1.6509974611589893 7.850656393168483
Mo 7.996302474739462 3.377848847131157 9.627800304114691
Mo 5.228442622621376 6.011294054836218 6.948818758752423
Mo 2.225019628938348 7.042173804298869 3.9281048385609227
Mo 3.1957637157283454 2.913492752730954 1.2359766954514737
Mo 8.019471388478614 5.204582074869136 11.291130973494614
Mo 5.523716187839712 4.0699901950745865 2.320291490957212
Mo 2.6817479195236955 9.59780887156132 3.173183423796333
Mo 5.031718011452598 7.658513514048786 9.148904120517809
Mo 7.80952874431198 7.465671931183168 12.449062963575015
Mo 3.501631747665259 5.607242586201765 2.024184656754526
Mo 5.888629179134666 3.9105824902077004 5.0542768157847355
Mo 1.807168490702921 8.99042604724079 5.9623013415033315
Mo 6.580735992590697 1.5921097093122514 3.4194366531589275
Mo 4.987126916857006 6.053303309071118 4.141340301960295
Mo 7.89871640222177 2.2443656524474527 5.257213844802971
Mo 4.222193370743307 8.335841247136871 5.291417794152617
Mo 7.974248780171786 4.436559968327666 6.847574901835955
Mo 4.526671131719047 7.833767209030173 2.3605614996886666
Mo 4.287527229663543 9.913151075831058 7.4845631533770085
Mo 7.376887556844809 6.193940662522801 8.777059922659431
Mo 7.891935096252506 3.9185449414248983 3.243912315337358
Mo 3.27639266581229 10.888578641365905 5.713798716756716
Mo 9.681864038738356 2.4479851174530065 7.542257941456914
Mo 7.344075982613516 8.671977208251961 10.031407761793494
Mo 6.702228595900618 6.317229996919392 2.0875799729636917
Mo 9.83784514246184 4.671405673078982 8.768162915082536
Mo 6.8406351543547625 8.349660550071667 7.021571206562365
Mo 7.679139286881918 6.181887110707442 4.684343083035353
Mo 9.383806377836839 6.822141749171157 10.054554902147617
Mo 4.512845283723574 10.415071427136821 3.3919596965685277
Mo 6.719366956108938 10.598042406685709 8.506745354884448
Mo 6.6178488403345055 8.540370728595946 3.923093527178281
Mo 9.830110859984913 4.52666884467171 5.000240269975455
Mo 6.185194867189872 10.413993454314648 5.68510133132004
Mo 9.441241665491969 6.724421278269926 6.982207936960767
Mo 9.049535813590555 8.851479303499177 8.344205532288973
Mo 9.4269549216046 5.896702227790172 2.372889276131484
Mo 8.98148407603218 7.797543942348096 2.6437284005359025
Mo 8.661242143593844 8.73016720883442 5.377194336109467
Mo 8.316117267995628 10.842591189395808 6.906434927463284
Mo 10.522625739125273 6.620759414810366 4.761826048106586
