53
Energy = -494.32217694 eV
Mo 5.153536049158296 4.695007119766193 1.596616443011954
Mo 7.316211247733299 3.3752329399433965 2.0272874429388312
Mo 4.9929397527667705 2.0728250824000054 2.9600750250319514
Mo 4.353728178205755 6.8864825402121825 2.5962271435133073
Mo 2.649184560052493 4.359756987194368 3.114139105388159
Mo 7.818847145707391 0.7798864223519314 2.8402768350202994
Mo 7.033679210473203 6.29410991648562 2.582025318673669
Mo 9.415153787752002 1.819931353428994 3.1080051569048415
Mo 6.212613301743999 8.852755192043904 3.6215392994137154
Mo 8.959438576850308 4.644301445259945 2.957909894579654
Mo 3.334326317582646 8.987833889309547 3.762329217290411
Mo 4.701705767295907 11.221757790818494 3.6784719086015336
Mo 8.317074083521575 7.904817351095045 3.895504224157021
Mo 5.311209861889926 4.507995184117707 3.9947265899509934
Mo 2.1056833338492202 6.880936947439774 4.133790440089966
Mo 5.654567190931486 0.7937657198425594 4.70614711354343
Mo 7.185814339017214 2.8533986913170835 4.656908250269191
Mo 3.473413908867597 2.5282411612454267 4.760897803111044
Mo 7.536327086193909 10.538429460401222 5.274641377710843
Mo 1.2684257816437605 4.454287241612326 4.587521335311028
Mo 4.86467037282544 6.968566897040068 4.982472947543055
Mo 8.572370713576415 0.9051162041638179 5.722688452947904
Mo 7.716799308742532 5.5253717883845415 5.029365964839693
Mo 9.981859807733235 3.6548153182172602 5.315527379025349
Mo 10.20461872618577 5.876940923183301 5.278537934426788
Mo 4.41064051111994 12.332490294833551 5.332984098037802
Mo 2.65960246474271 10.574996985704026 5.633455364767174
Mo 3.414858259439557 5.013915031757362 6.041720849711495
Mo 7.1074954486776045 7.987515442832921 6.338871325181114
Mo 4.934158049228058 9.633519878867865 5.990222106826653
Mo 6.679188814919859 11.590765159409585 6.720282454099937
Mo 2.423613504022128 7.879246015235407 6.3335831407253815
Mo 8.017416353772967 3.4835288069821355 7.079241751219972
Mo 5.084739473062961 2.9471781411117672 6.65619244035334
Mo 3.9452352461474613 11.543797129471784 8.021799300898888
Mo 8.255685568923623 9.25656261995864 7.960770020333993
Mo 6.146063134814936 5.306429187907329 7.243428422689429
Mo 1.2271279313542889 5.982797401128924 7.11522721504877
Mo 8.918024673645936 6.30392124882352 7.479373676651419
Mo 4.6360425524556685 7.26974793936985 7.700793859249668
Mo 10.014752372434286 1.6672866885688655 8.006986289713605
Mo 10.170207455888391 4.441882505783251 7.910964421257208
Mo 7.065074613898369 1.0418280141168201 7.123647210157956
Mo 3.1780648616473783 9.718005967254536 8.281930990949718
Mo 5.987394431047764 9.723032929582951 8.490647374881936
Mo 3.4777793754220325 4.676401626519316 8.453597649904973
Mo 6.9674943998891985 7.3540560369006185 9.105502644065336
Mo 7.6790398971885185 4.796220652206541 9.48696523645201
Mo 2.3822189223866226 6.71095646237564 9.000934743352486
Mo 6.181658000285555 3.210418394521481 9.099931388669987
Mo 8.94643370440039 2.193802033029282 9.431056541773774
Mo 5.031912615535083 5.780080409453827 10.16245150929354
Mo 4.575026710518559 7.848201186187499 10.2649531276086
