5
Energy = -37.85312858 eV
Mo 5.779862916018239 5.225508621127412 9.484445135857449
Mo 7.361499867008295 7.744080017181568 4.153060412858192
Mo 5.809828754730595 7.709807579299969 5.849528637686612
Mo 7.688952390606161 6.29941944784737 5.360096196045992
Mo 6.1263968103330075 5.789347381391125 7.909176695017317
