52
Energy = -486.07205089 eV
Mo 7.570221633301703 9.109210128825891 8.910902387290589
Mo 9.527390044966475 8.52587768897581 6.90983459114582
Mo 5.770808631511361 11.485711629430641 8.384693074019765
Mo 6.216782398981228 9.978354964647963 11.019137101652536
Mo 6.356724467578797 10.625491768509205 4.230215597485237
Mo 5.442556929511238 12.099784317504898 6.565010801057152
Mo 9.871291026272448 5.720774133677381 6.326986633303938
Mo 10.373421099641801 7.622184418014928 5.055146205640944
Mo 7.122762744187682 9.911738157448367 6.60602895193215
Mo 8.221820567953834 9.028357596083021 4.398885244596215
Mo 8.504674689789606 6.64168354241481 8.571630074938945
Mo 8.631337324387314 6.24610250611558 3.471560049002738
Mo 10.271688010737009 4.424836118135931 4.113597603224612
Mo 5.924812786205379 7.513393750969685 7.9404370645033024
Mo 10.131625040546968 2.5666898310292634 6.188794299496441
Mo 7.586191642893579 6.926809911528474 5.849557751987385
Mo 6.53973405945875 8.040520421751577 2.7482337581332414
Mo 4.688958793977823 9.583923454149074 2.624694226760987
Mo 4.750884066045663 9.09251785738752 10.115262864647054
Mo 6.872103399880428 7.42227434200476 10.766710873316098
Mo 4.329505223831111 9.624320802837303 7.3550647636562
Mo 3.81333040455035 10.226787181332483 5.065900719589474
Mo 9.05011600937801 4.186085543249713 8.325433565423245
Mo 8.9259948021011 3.617947740870961 2.4579774152505625
Mo 5.461547103559583 8.326158815421305 5.138641310088595
Mo 7.91232863123837 4.089089268523893 5.1918977089138325
Mo 2.5165828268578254 8.083117102595478 5.850600023305477
Mo 7.453058054025617 2.860634031904429 9.654967229157021
Mo 6.421959535552005 4.866687700155707 7.864310552684756
Mo 3.6383132497578736 7.494868070339481 3.5845721309709218
Mo 7.255248572256053 5.159523945935474 10.383539843756937
Mo 9.216667601593247 1.737386711795038 4.64362131625728
Mo 7.260980726086821 5.288507239741096 1.6562662657221106
Mo 5.8907947936108265 5.615211086348406 3.8228057579293786
Mo 4.845625674190772 6.02635990033302 9.85580258019281
Mo 5.263014922937093 3.695702348176035 5.6970222867917055
Mo 3.2698928994592777 7.321785670825096 8.318623657527551
Mo 4.142971742651425 6.12661609035181 6.194557651555112
Mo 4.787440760176532 6.440720059987778 1.5756192981242414
Mo 7.661837636567583 2.348300594405071 7.053550810529275
Mo 5.102911512117833 2.3104065653439605 7.965389084282132
Mo 1.386764351744719 5.969951881036559 5.043915025787137
Mo 6.545221013944902 3.0449021106468206 3.1754398602405343
Mo 3.638177777487043 4.49792152378714 8.20171061211515
Mo 1.375600830821072 5.720619080632523 7.057798308547043
Mo 5.104878100032452 3.206659551844049 10.06535009544176
Mo 3.4469610256113627 4.740318940891116 3.6495520665139023
Mo 6.371778301725369 1.4696538597233122 5.153996581667773
Mo 4.718022270016103 4.112774125253599 1.6156391074532028
Mo 3.9510165419732917 2.1396447540734447 3.727848479637317
Mo 2.7928305738188492 3.585262134512814 5.959190656583232
Mo 3.7935477928094152 1.207820130035686 5.571298339617611
