53
Energy = -494.66108423 eV
Mo 4.966610300358726 4.886871724986349 1.05226607703569
Mo 6.713748735484013 6.860370198171821 1.5451018119054427
Mo 2.3536359261923034 5.864150405412363 1.6582568179027617
Mo 6.1279538643077975 3.2780133937311446 10.953280948268725
Mo 3.2828395968559096 2.6718666799032045 0.4343125372065679
Mo 4.207356169109632 0.8537054177811195 0.4392281334794414
Mo 6.184268979250624 8.50527735785545 2.38741071145772
Mo 3.7908477859413545 7.333477822976314 1.1071607789965907
Mo 7.626920749488431 4.013851690698283 1.7284495077628128
Mo 0.8791561408879702 2.984465301003583 2.640980298297509
Mo 6.260444106277516 4.544511080933524 3.6897525107408984
Mo 7.725711492956162 0.5645586438334661 2.169519488220696
Mo 3.49002671905101 3.833872462695389 2.9854524197651067
Mo 2.802632946040687 1.1862835132320104 2.6287142696889494
Mo 7.600363401371232 6.704471210897213 4.086870618582536
Mo 1.9535536996575935 7.882756919347775 3.457102843516626
Mo 5.7333703587923734 2.3215030906011886 1.9519924569167695
Mo 5.4167184576314895 10.946110801657227 5.065314852645736
Mo 5.1075205649056326 11.152928139877707 3.185425602095732
Mo 4.491320372179111 6.467467554818744 3.4636558849488797
Mo 7.908152319438091 10.946110801657225 3.896121039763703
Mo 8.205912803613032 9.100277462808332 5.225804304931846
Mo 3.5808419643715594 9.150168648870649 3.48219129072177
Mo 0.3960291003422432 1.3860477977153156 3.909932609853561
Mo 7.658010250237189 2.41234041364292 4.191459245868616
Mo 2.203371331542243 2.587983717434762 5.172022138094501
Mo 5.78473896703758 8.335907948389146 5.130168377297932
Mo 4.819342979164656 2.0876313736088137 4.383893395092459
Mo 3.10399746566454 11.100079231715895 5.303076153855563
Mo 1.494584266351744 5.230753625180709 4.330650728550912
Mo 0.9771857509434234 8.207762943849865 6.228588624377743
Mo 2.008421611282466 0.5237171800760548 6.818520240408502
Mo 8.438843850970988 4.818852031583168 5.795204558832382
Mo 0.056326123959816565 3.726350824307156 5.414166827129377
Mo 6.276538927561297 3.3389689214378273 6.294308456988543
Mo 6.1681579798955815 0.5743174233281063 5.7688456250163025
Mo 3.5589031232812744 9.75793956223123 6.077899818834323
Mo 3.3281167552479456 7.163601244749297 5.7519573968796935
Mo 8.147036463424952 7.618335633905898 6.647262297435395
Mo 6.336087136509277 10.283978496530183 6.868998062489252
Mo 5.955646567337713 6.031425177742005 6.337303026001085
Mo 1.3664509209804956 5.439181456046752 6.992473272405651
Mo 3.8448223827015853 4.529329662197571 5.715497974534087
Mo 8.434737375546193 1.6899746584081041 6.887676065451693
Mo 4.322591495654666 1.7678470787748484 7.100232836592955
Mo 2.3079182196010803 3.4644180427817695 7.680052286146509
Mo 1.832744771028108 8.073534204311219 7.946984220152087
Mo 7.891261844004322 4.573007387217462 7.9125396227107165
Mo 7.155042093239162 1.752101715852124 8.30033546117376
Mo 4.910813571039166 8.343241845564568 7.739882298452563
Mo 3.608181316004273 5.98828053355074 8.240074296818335
Mo 6.310244401633389 6.576914696186065 8.699810577421351
Mo 5.012843929960484 4.1853103763741775 8.412485760636491
