53
Energy = -495.38810627 eV
Mo 2.5587767736924514 4.859800802425567 10.573775799758877
Mo 2.35362507793186 2.5971295210252046 8.617671263862086
Mo 0.9216219439035799 3.897237413273162 8.56192653616542
Mo 4.593669441009918 3.7291743345817028 10.166198408081511
Mo 1.0048349134752528 6.880172283588849 8.720426091258512
Mo 5.133768838121564 5.987424800030711 10.469612173255923
Mo 2.3593165286583666 3.851475054302527 5.948944154503012
Mo 6.437070599985578 1.0847614559861132 5.841233674580209
Mo 3.3686380572522765 5.226361163357293 8.235850530561382
Mo 4.7245077164551 2.805454456085131 7.238875970316223
Mo 1.1735549813572173 5.59867749658203 6.358315618998835
Mo 2.919108730541285 7.295047505314847 9.963964420289948
Mo 6.937015572095107 1.658196123535626 7.716229985675955
Mo 1.4838276357009657 9.039836437438893 8.004042186325481
Mo 6.368662716908563 4.622424900190921 8.367089726165915
Mo 9.036871121875626 2.0255004516342243 5.491255088890856
Mo 2.9693584299814844 7.499096518227324 6.743670192525293
Mo 6.504772892725217 2.5062665545237777 3.3266749224372822
Mo 4.5801600034855285 3.1033496213709095 4.489691592044806
Mo 3.3138015457074905 5.8464702121631875 4.400228358913424
Mo 5.322247829350929 7.5295853187469 8.10860995868972
Mo 7.078568873499641 3.6707207703295803 5.75315630717819
Mo 4.869785516046951 5.260079723572176 6.189497197883352
Mo 6.0384131614999985 8.81125545804093 10.354527570807862
Mo 8.907340921853654 4.013274611318439 7.398079371312595
Mo 7.585077656540187 6.382950620915086 9.627337416855388
Mo 3.7356333826204633 9.406465609997124 8.857323787815332
Mo 7.383422479567659 6.488403591086977 6.754780862839381
Mo 6.2621086009270135 5.331809368608746 3.8319439392947237
Mo 5.405284481449442 7.679715847362672 5.30810144416158
Mo 6.410202271736342 10.133903758687259 8.929186667896873
Mo 4.4304017582933115 4.634137056005241 2.3697436450230227
Mo 8.255439024315413 8.215256372614798 8.395685769052784
Mo 10.29400016925116 6.383575587176072 7.399988010568962
Mo 6.764877991915253 4.161906132711471 1.4599701025362997
Mo 10.694648878277143 3.8154222433223683 5.798551499768205
Mo 8.903910286230127 3.5174378522052248 3.6133661066842744
Mo 4.874269610819126 7.517863856868347 2.735126602359178
Mo 3.405539964001368 8.956505717746378 4.65618389485138
Mo 4.525876061925369 10.007383197631265 6.4869852689289855
Mo 9.066815524632805 5.667973217646968 5.008766359197284
Mo 7.071081839577788 9.431408506282104 6.335042450785052
Mo 7.6119441722811265 7.728401779984589 3.7771769679576206
Mo 6.726606778724458 6.490391530607882 1.3223960790483649
Mo 9.523889535409198 8.415109781041476 5.810914442320932
Mo 6.005275255703127 9.954096865849083 3.88367092487665
Mo 11.598231316182877 6.364112575814836 5.802712297521178
Mo 9.118101528546012 5.747353847325561 2.15829021469526
Mo 10.998722260785376 5.071235019477904 3.1147139133069284
Mo 6.416677821601528 9.075575335486604 1.6557143167009765
Mo 10.466901072484399 7.63950942061337 3.66560972169262
Mo 8.473697218263695 10.055785882982452 4.222481160962434
Mo 8.989681394834642 8.453527995353737 1.9418880638964149
