53
Energy = -494.59437546 eV
Mo 9.596782943934095 5.676187198249394 3.3043400318104665
Mo 9.200989931512746 4.248940345616752 5.194067271475739
Mo 9.968056702929207 3.5579272454086457 7.784743006797998
Mo 10.77575390985171 6.610517290707118 5.452071453031193
Mo 8.921485080659972 6.177081131872111 7.162145726450103
Mo 7.938177195541493 2.1302288463079226 9.158747385863657
Mo 7.188725722272662 4.287059390088505 3.153180191673399
Mo 9.454086962116492 1.9681026180863068 6.744031541971828
Mo 9.60088794638356 8.917605259181041 7.486496367092308
Mo 7.891512399315513 7.2891024218753 2.827202786929241
Mo 7.348114214288345 5.522232206240355 1.069423873117438
Mo 7.322449328126901 6.173619973683709 5.08400095695311
Mo 7.788883597744005 10.32592260551171 5.574887204124555
Mo 7.244673456953353 2.27067044392552 5.098825160531043
Mo 8.460854503044363 5.329035408577544 9.49487627842396
Mo 7.177838230568671 3.7494404803361108 7.13946207048665
Mo 9.380597631176792 8.140679472980533 4.970047922821655
Mo 7.062024374409238 8.305267667166866 6.630993173656008
Mo 7.985967344415215 7.680569008795296 9.422037019500337
Mo 5.244065175910494 3.650538572805301 1.2628298711890555
Mo 7.0355599164354645 0.9617041262089622 7.813252038363907
Mo 5.394131661376939 4.919924833518019 10.834492993041009
Mo 5.241970868114603 4.449564822820784 5.223778534179225
Mo 5.603154154146189 7.47256934896103 0.9943277254648523
Mo 5.282030690342013 6.276725040478407 3.192283120111361
Mo 8.034505594779672 10.300620414811297 8.147034711508704
Mo 5.2236436036055895 2.441495809775459 3.7474986497743217
Mo 6.244095851977464 4.148181121063049 9.866656106901814
Mo 6.383325525913141 12.21257862462821 6.728343028960403
Mo 4.052645508529986 8.612878945577487 2.2832462207259643
Mo 5.994661868084152 8.700202815924625 3.914902214746174
Mo 5.3038864308597 11.608552595194041 8.15827942474241
Mo 5.938221540886872 6.7880526209028575 10.24876091647874
Mo 4.854935509501358 1.9675422908816924 6.377648539290813
Mo 3.6969835517170204 5.962559766722313 0.9081885949300716
Mo 5.530657187352635 8.919337348902705 8.584032695365325
Mo 6.22005449976552 6.141337086560593 7.868816963604456
Mo 5.009405049367231 9.978231396758634 5.9887428670984635
Mo 4.545221445075946 7.143262538772367 5.943070050834521
Mo 4.257541071796657 4.436902985627828 7.670896615787421
Mo 4.916341340037023 2.3489944383499615 8.930069976543386
Mo 3.482024232861633 4.374636481466722 3.1129047657255384
Mo 2.775449013306357 6.8963094521661725 3.643255970364104
Mo 2.606791991968396 2.3780110724068457 4.728186326794329
Mo 3.2688754164804923 9.30481600070166 7.7311132362261334
Mo 3.7342160149650128 4.807774807196867 10.298346820482635
Mo 2.950559727171498 8.921331067059409 4.786247227523119
Mo 2.444998775282072 2.597184771023979 6.756081993156786
Mo 3.6282812114219425 6.930466046866831 8.673039217322373
Mo 2.5460349593862404 5.041497210154533 5.5522274540071095
Mo 1.997012939974241 7.4405131722734135 6.520725282141503
Mo 1.8534895701195218 5.293265884052353 8.143071232679219
Mo 2.438613500172268 3.30310574503908 9.54229839147269
