53
Energy = -495.16403533 eV
Mo 9.24740312209821 8.193337385794209 2.0194738327625967
Mo 10.143544869173576 6.176540019317096 2.0186666574190597
Mo 8.237596352607188 4.5231570277399085 1.6018453231160248
Mo 10.595027311053277 7.521066377542493 4.553957485797651
Mo 7.572585847160778 6.674798881419084 0.9653967635075353
Mo 9.113147174869582 3.695444809725216 3.8543834352513864
Mo 8.191295163889823 8.73571646316265 5.231845266710857
Mo 6.729904501410405 8.318871369074119 2.918851642810892
Mo 10.99236498477215 5.566774145640696 4.474880896029034
Mo 5.742750914753868 2.8922163577085915 1.1744090070151658
Mo 8.159348041703504 6.380475571555799 3.809613637593922
Mo 6.828421065376169 6.967868175236083 6.606937583715673
Mo 7.173988808392623 2.4714928456195966 3.4968560358924257
Mo 9.188637690398918 8.39242473810618 7.584125998448975
Mo 4.70181311443206 7.038740019229979 1.6734074466557654
Mo 6.828220088326025 4.562900110736154 5.093722991165626
Mo 5.9312827656204785 9.553226337976245 5.389458718513853
Mo 9.146626650454138 6.086093761989184 6.473872500236698
Mo 4.1592412323596895 9.380380059378654 3.1558354610268817
Mo 4.6246957016918 2.2892174005637487 2.6874275189549963
Mo 5.123097143269699 7.030989605601806 4.472196048243696
Mo 9.300563093552729 3.5254326619351213 6.348714441930322
Mo 6.780107697103911 9.207131161803522 7.867768636259697
Mo 3.2564954474972425 4.45576015974563 2.2004305937434827
Mo 5.877570078163505 5.1354195479753 2.58235555024751
Mo 8.034872309455492 6.679317659528834 8.977262385254289
Mo 7.628909617944325 1.8892058925280537 5.97652247936194
Mo 4.351207302665396 8.00483673890785 7.018377084477784
Mo 6.839516117218922 4.113855906829778 7.659172819445066
Mo 2.825288440874634 6.832841902865955 3.23075383763125
Mo 3.9443443083144816 4.613793941330509 4.435426372618326
Mo 4.277595048767143 10.668641288754737 7.395193732833023
Mo 3.1200145480640056 9.144791399799761 4.812850450113393
Mo 8.550087942843277 2.5225230494301787 8.833589261671278
Mo 5.231113391173746 2.5523994491182393 5.620223489632932
Mo 9.432533213099381 4.276522908809395 8.97616963141453
Mo 7.037200611467477 8.650132284769516 10.226742534384652
Mo 2.1217976208281213 2.665059198124546 4.420765450496362
Mo 4.695561514507575 5.2657148783813 6.857375917734572
Mo 2.4106242513183846 6.425088415842714 5.780751454439132
Mo 1.212439358315499 4.3566579086804795 4.401169406669735
Mo 7.100268153697748 6.397721254136255 11.609264197512248
Mo 4.7923707783790634 2.5749373882320366 8.025687944160696
Mo 4.244475265324971 9.806309435129998 9.126201772385006
Mo 5.418803182621317 6.891500169379185 9.252738457777774
Mo 6.869781315667209 4.450984771184124 10.236221925155123
Mo 2.1385843007805323 8.434712716832406 7.7254325411964215
Mo 2.843689089981232 3.6902308295566817 6.9327069906372865
Mo 4.571153257097848 8.285009483985494 11.559572850104976
Mo 2.6300758278635485 6.244808185439778 8.340086748224428
Mo 4.3361263822875555 4.516991764620252 9.506620827950993
Mo 4.966356336279383 5.722656803962982 11.717659700466735
Mo 3.021987973268195 7.511414995035869 10.654555889205797
