6
Energy = -48.14327083 eV
Mo 6.628927020043235 6.38964777519492 5.173494027896342
Mo 4.134461726509144 5.5204377052814815 3.7277421135205886
Mo 7.1852211603437866 7.001469417884501 7.996132185025161
Mo 3.343288008738276 5.913913103481172 5.245629752718964
Mo 8.460958006739457 5.887305828110746 7.451328911354688
Mo 5.962211230300391 5.0136176680534135 6.128187075489728
