6
Energy = -48.31383899 eV
Mo 6.979483979203992 8.814317497310793 6.782851309521651
Mo 5.99320714759476 7.075616409843511 5.804809226858595
Mo 8.604334137667877 6.621465693062591 6.1674133485946285
Mo 6.34382666921503 5.626108151466529 7.486211655678048
Mo 6.163867670710124 7.604822759521951 8.495042874934184
Mo 8.720704132434294 7.011639791656502 8.03490999943903
