6
Energy = -46.21439501 eV
Mo 8.856376083971911 10.643172980682959 7.749194236956203
Mo 8.545727727199464 9.136473651031928 8.681812627444897
Mo 8.341685061114049 6.2838609548520346 7.331177967275069
Mo 6.355629664789496 6.870880063340272 7.733787009250177
Mo 7.905090466668438 6.609749216433811 9.541420496995292
Mo 7.578194721134909 8.612403184628745 6.448620943710712
