6
Energy = -47.27882289 eV
Mo 4.717366348208536 6.2623601660754264 6.921561137421235
Mo 6.885452766011749 5.3252588037039965 7.7021755940568015
Mo 6.442615476571632 5.004466323105391 5.287135496266697
Mo 5.844221899814498 7.392645754337759 5.014512938596466
Mo 6.274087729314819 7.718221264231487 7.4389449338719
Mo 8.006299056556708 6.467090965024003 5.8057131762648435
