6
Energy = -47.95032308 eV
Mo 8.914972186169676 11.258268930751987 8.165666043604695
Mo 8.532152585854272 9.65101688224416 8.576600862056
Mo 8.214324996830928 7.291901351184455 6.542760809681079
Mo 8.40118828821853 5.441565615681784 8.99129801126778
Mo 7.547748221240823 6.903270410202328 9.40656565810164
Mo 6.521958797005422 7.687311146580316 6.371703566374918
