6
Energy = -48.88050966 eV
Mo 8.17703783720752 5.450587123213142 5.607106397784678
Mo 6.789745526295292 4.389611024380889 5.598849547597188
Mo 7.9239479865992415 7.982327303844422 7.4041166984258275
Mo 5.551547531228226 7.012622799759206 5.667631159655408
Mo 4.5493958902462674 6.144311316837243 6.832306925246645
Mo 6.378653282335756 8.28212830337889 8.150836001700368
