6
Energy = -48.01736951 eV
Mo 9.140851650088768 4.849334040646949 7.032311630955022
Mo 7.605955249575637 6.988631879458002 8.47001881061533
Mo 7.452546727304959 9.96677233413803 7.676699308114444
Mo 7.466754058792473 4.402241338823307 6.833621642860951
Mo 5.914664108815206 10.295268848168172 6.931659634798202
Mo 6.519074292271739 7.252185435801245 7.101050832999645
