7
Energy = -56.56356171 eV
Mo 7.165045358495766 7.939381777879269 5.034150386592686
Mo 4.901196620128159 7.146576330445768 6.680202228867583
Mo 7.3565011909792455 8.47189287039422 7.270021905127663
Mo 8.294368992520516 6.6145213022411715 6.120389661774597
Mo 6.964534195806675 5.981619472533801 8.554160123765572
Mo 5.502762063595622 5.708284696938308 5.7718532362978605
Mo 8.416187178761733 6.779374344067684 9.222355310321783
