7
Energy = -55.81966906 eV
Mo 7.173460314565198 7.875169232485654 7.394591291041228
Mo 7.466488770396576 6.1737759529574365 8.390147647643442
Mo 5.038422648010277 7.997188210308526 5.360199094749674
Mo 5.719195283324063 5.164462137505883 6.320704251956937
Mo 6.446447420248077 7.380913945714488 4.45758754426511
Mo 4.593806193442743 3.966766600026308 6.788571140033188
Mo 8.42137323534465 6.344015098426138 6.231074108632314
