7
Energy = -55.67435605 eV
Mo 8.301743976399619 6.4624882882009045 6.070673426585311
Mo 9.03303739331671 8.034904718759304 6.144261357396127
Mo 6.633802865338821 3.8850061276702808 5.868226837300299
Mo 4.666125191544486 8.325052559641923 7.547358374962493
Mo 6.294146981317702 8.67088141338991 6.855394480849516
Mo 5.497956317140026 6.221083210493153 6.420326604253398
Mo 4.92635214006943 3.7584957645241355 6.451617467411686
