7
Energy = -54.70346355 eV
Mo 6.484052493661222 8.158103442389264 7.580643847856736
Mo 7.9139230306781645 6.7129440937811085 9.920758213172114
Mo 8.88717460927623 6.8854853185702884 8.446422020967466
Mo 9.980570548531606 9.732057866017332 8.728994520643667
Mo 10.058028582978366 8.882658616804934 10.248738023254754
Mo 7.729359403021293 9.185654768729895 6.7977284076110704
Mo 5.6242639935308665 8.11436093756293 4.898377628333036
