7
Energy = -56.91717887 eV
Mo 7.594921244983225 11.156431878629448 8.186629603130834
Mo 7.416048514641712 8.284842117448418 7.847316298623081
Mo 7.380735863910953 6.00236274585264 9.6054383644268
Mo 8.388182870101971 8.715566351122996 9.493803910852224
Mo 9.888714123952118 8.12010636468692 7.594587601138656
Mo 8.949324791796114 5.82141304126894 8.75044534677304
Mo 9.124942828513149 10.738789979861995 7.344442780532273
