7
Energy = -54.33849664 eV
Mo 10.22034206142779 5.635992687308607 8.416360582818212
Mo 8.996000448815863 6.8693001149702555 8.275023885307403
Mo 8.776668748696544 9.320323211958742 6.451275091964475
Mo 6.686472038123396 5.589592333597251 8.909939973934357
Mo 8.897248413377776 9.94175487947834 8.100532221706299
Mo 6.23257206233165 8.265736863470707 8.021387444611703
Mo 5.969976780525503 9.871151305742767 7.411932179421658
