7
Energy = -53.69843933 eV
Mo 7.514930569820073 8.381998420836403 10.142695815521835
Mo 8.531182797045082 9.032735927467282 7.754445879394202
Mo 7.4409790130764835 6.301848100346338 5.693209979297524
Mo 7.290940684660991 7.069799576469897 7.928608380818086
Mo 7.586826017420455 8.474021799311256 5.445071904379227
Mo 9.291897347201113 7.430246911481051 5.900445015662046
Mo 6.76909483000152 7.760458603610342 11.687810169824932
