7
Energy = -56.53159701 eV
Mo 6.705992775577022 8.707085846480215 6.57071354675953
Mo 5.96357386749954 6.156351884339756 6.410659540055804
Mo 5.672624038117602 6.9231083175744415 8.445712414217839
Mo 8.221248477748501 5.9641394996971835 7.778768386945725
Mo 8.98332867346547 8.221440225327479 7.23665280447628
Mo 7.981867978457122 6.887268542455101 5.511937837053665
Mo 7.44282743630039 8.112068704811607 9.017019623577694
