7
Energy = -56.94953082
Mo 7.823436538468623 7.068237897619568 6.679529295965557
Mo 6.200047283961084 7.599010979397255 7.551199338231787
Mo 7.8398452627992015 8.92840342667278 6.818444131978919
Mo 9.217525177351867 7.945601457619541 7.30177006918912
Mo 9.022564218468426 7.5990109793972564 8.87625413044244
Mo 7.477199736508576 6.643948770479829 8.568207616430932
Mo 8.088384978374544 8.743382423502993 8.732193352450347
