7
Energy = -53.32849696 eV
Mo 4.400563390976251 7.312283370682415 7.788276436198921
Mo 6.302926945823877 6.955844147065494 7.4538033945256945
Mo 8.738918734538048 6.612192888389676 6.183266321912219
Mo 8.384635823737433 5.224979078173913 7.239799361343506
Mo 4.147445600943124 6.533384996518962 5.809621046916389
Mo 6.569945169687021 5.359346405648699 5.093604446217118
Mo 5.0118509550140455 5.552651676442852 3.977497219322597
