8
Energy = -65.97005397 eV
Mo 6.712991574110698 5.673769998489915 4.496987723956976
Mo 7.18142857375127 4.999236381077787 7.009802778515663
Mo 7.342519181391669 8.387095800807248 4.590804558710402
Mo 4.657011575094939 4.062756897149754 5.765030770336634
Mo 3.386585714417193 5.127954671593288 6.554996755542701
Mo 5.744026860425922 5.4374464958064275 8.095870478032314
Mo 5.373359688977806 6.784508509906136 5.578389258560895
Mo 7.808051473431871 7.751883919152012 6.257768242903063
