8
Energy = -65.8010927 eV
Mo 5.350619583595982 5.880687564695036 8.386956991249424
Mo 7.429476505938353 7.027410046786709 5.133752861106002
Mo 6.770401847841446 8.816026802375093 6.546410630341846
Mo 6.357306111645869 4.809489144824289 6.524269200568608
Mo 5.405980980611539 5.891683768697883 4.63936984503686
Mo 4.966735302407707 7.278497018491293 6.512447147081198
Mo 7.384682592628695 7.021607207348482 7.9664854530507725
Mo 8.610878445127451 5.550679816577875 6.566389241362319
