8
Energy = -65.76592574 eV
Mo 7.343792614963308 4.873504822512912 5.288515580081297
Mo 8.548091646392386 7.562379052688381 4.62248077041215
Mo 3.8121359856756385 5.153857535420642 7.792299934877484
Mo 6.9922785696981 7.148405207438554 7.099887301051128
Mo 5.574936897846898 5.300956873340776 5.424559404237211
Mo 6.781267546053986 5.6086796150445215 8.054783598138636
Mo 4.122915622078101 6.873778160002157 7.944293300637425
Mo 6.986851154985473 7.419730791840664 3.8332824065908775
