8
Energy = -66.77466724
Mo 6.6172757507052005 7.399364628667187 7.232976477427127
Mo 8.059338491482245 7.361337942082993 7.171036692825594
Mo 7.145691476336618 8.301159195787367 6.522809272459336
Mo 8.55799064715396 8.514256831549087 7.885851855865681
Mo 7.636839094165126 7.377330750648974 8.562414681711331
Mo 9.077742392614095 7.285338171568365 8.499660303099223
Mo 7.256959030694926 8.566759856241056 7.885851855865681
Mo 8.652816116848092 8.19910462345498 9.244052860746079
