8
Energy = -64.16127484 eV
Mo 4.6105549108655755 8.555569086862793 7.15399344657159
Mo 5.434754265583734 7.294772909592604 5.786935454906428
Mo 6.962426898698639 9.056734285465266 6.387373115997355
Mo 6.251100967915398 7.089907828322733 8.402223575037873
Mo 7.938112082396963 6.710044397701536 6.9522534039432236
Mo 8.432847177084048 8.327348851729207 8.432142829048411
Mo 10.547939487225653 6.624917736493098 8.309906117350058
Mo 10.83998577891698 7.747946356074583 9.655493520548452
