8
Energy = -65.93791346 eV
Mo 4.630587008004987 7.489439303959712 7.843569050239986
Mo 7.956030002183187 5.714122002528713 6.47827619683495
Mo 5.08351801954952 6.183886646030215 6.814568524825225
Mo 8.207844369606455 9.027850781983803 8.78435181563827
Mo 10.200179716489297 7.630969001019477 7.118745987599787
Mo 6.54626397021851 9.422258774584629 9.004659938671756
Mo 7.685948933869952 6.177559360888786 8.190035144341934
Mo 9.36773144186881 8.175375283707186 5.654805638342037
