8
Energy = -63.97599238 eV
Mo 10.639254030792168 8.885591253381609 6.009771432870722
Mo 9.219986902640452 8.702193163980807 7.058299535965822
Mo 8.158674359715661 7.978227354290177 9.503881349877792
Mo 8.682501419711475 6.221924993429916 8.216986850111315
Mo 7.162691000506556 6.9704780020169235 6.279255239857789
Mo 5.886090422886295 8.490016602825403 9.606401539500867
Mo 6.231280406856548 6.450381951495602 8.531416645207159
Mo 6.485006301775898 8.82083487966162 7.365018707172408
