8
Energy = -66.07514665 eV
Mo 5.832804063343915 5.664516095314338 5.111147845553829
Mo 8.068071845803594 7.0792748001755275 5.162897934496618
Mo 7.508924638632536 8.12704225771347 7.527120029126467
Mo 5.831979874596728 4.695036316215439 6.886547434493861
Mo 8.289672263561132 5.596347197965578 6.520254861273384
Mo 5.529364758647682 8.207809472814883 5.775027447353356
Mo 7.07516002224069 6.520866203144335 8.678371858070513
Mo 4.870530373295034 7.115616155649774 7.345140539564993
