8
Energy = -66.46436309 eV
Mo 8.76890645371007 7.088128216640189 6.288582010971984
Mo 8.433627067503402 7.56153056933282 8.019995668699185
Mo 5.88005743703337 5.816878932413908 5.894654464840934
Mo 5.675755006046126 8.399400600776932 7.377509237092842
Mo 6.262560268985057 5.646769825670667 8.758085448823774
Mo 6.937665726854313 9.402988735684785 6.548693720483017
Mo 7.788260711136341 4.881989976438794 8.250163130197357
Mo 6.344545918749108 7.124329055327639 4.77718212823003
