8
Energy = -65.48237315 eV
Mo 7.3395057819933385 4.958756603246871 6.7560493646391
Mo 4.907162598696558 4.9081809750138214 6.777807976142448
Mo 7.99890384953549 6.744218611513067 5.355533960371569
Mo 5.503178432884838 6.656695444530797 5.344324100471612
Mo 6.1038122580704455 8.492724136615625 6.687569542817108
Mo 5.4459797520247655 6.707474528584862 8.088919143748102
Mo 8.537028553007673 8.544090576924887 6.666139085755263
Mo 7.9419220708545835 6.794648950467796 8.098633323585048
