8
Energy = -66.07046264 eV
Mo 9.598317470917362 5.8834349926584135 9.094441665184926
Mo 8.296252580928229 8.344553159022498 4.599003277856187
Mo 7.692056671337791 6.217339104331655 6.72247379264933
Mo 7.946880422387933 5.9039228019936 9.721028023974986
Mo 5.455706109235686 7.258529799203542 8.405873166506813
Mo 8.12044214848385 7.8543456796671105 7.4978008624324834
Mo 6.628737346792097 8.567500847233417 5.134606991774524
Mo 5.228834904784267 8.885895567206706 7.787137039526611
