8
Energy = -65.77242401 eV
Mo 8.447839022552088 6.964814347146667 7.459595196070255
Mo 8.83135696664893 8.756212791746377 6.0131986090136005
Mo 10.066852818854477 8.16778305423627 8.450825024479217
Mo 6.357858418313438 5.044101035591436 7.847177067966887
Mo 6.02833646941112 6.407207535747546 8.896025036248355
Mo 7.6789050742340415 8.816849584064927 9.411072631898863
Mo 9.314301886924401 10.145949818238048 7.583301988753722
Mo 6.7302841296192435 9.101677879599194 7.710259668015793
