8
Energy = -65.06122882 eV
Mo 6.163546332372319 8.641018134722508 6.811555731150046
Mo 8.942607992041413 7.47133555094172 6.8627590412774415
Mo 7.156004807062812 11.524448153535964 7.010769787729983
Mo 8.198717534764672 3.804549023766343 9.401105566027757
Mo 8.434765788678975 10.495006204795345 7.5347859690105725
Mo 6.525029802116221 8.061489547480926 8.449231959999713
Mo 7.8319042926088835 5.180752284165796 8.478057813722254
Mo 9.613337308699887 7.91532794254762 8.46235363256684
