9
Energy = -74.52438883 eV
Mo 11.926680580959367 8.14067920226097 9.272815310655202
Mo 10.797319879229109 9.388184970884028 9.856837149888126
Mo 9.931640333752727 8.263147946519796 7.357878127993903
Mo 8.212411698799743 9.7908887972462 8.622418778496534
Mo 7.166729320815461 8.358235409096597 6.471344872517153
Mo 9.14407657203281 7.094947187861473 8.750425184606254
Mo 8.060730932487576 8.677191586622037 10.805397093113886
Mo 6.661527198342886 8.142002630999329 9.477518503858564
Mo 5.923666604035597 9.53806419736999 6.953203294005477
