9
Energy = -74.45723597 eV
Mo 5.109010342015028 6.532103574131626 4.289158810531907
Mo 7.660746147148129 5.18690042492592 3.651682659570117
Mo 3.584827473441177 4.551124378980776 3.79575668571553
Mo 8.01030194034147 6.769071464710145 4.495656243483109
Mo 5.490691811879541 3.8139373517349093 4.836598362301234
Mo 3.1256974548912324 2.824703419385878 6.040993265350389
Mo 1.640525002050492 3.7247017850413844 5.473598986722811
Mo 3.738871906716005 5.707807196377567 5.906641759488078
Mo 6.273479209355762 5.52380169255062 6.144064514675804
