9
Energy = -74.88383699 eV
Mo 6.466284981126885 8.29836128593774 6.7450336076318145
Mo 6.2664951970100065 8.169552041180337 4.795862111593263
Mo 8.220923534693414 6.466440687156012 5.716716572765415
Mo 6.081238183726232 3.399946069722248 6.280653669362965
Mo 4.380293196373352 6.356376584596453 7.612956489637612
Mo 7.56628072709085 3.7734596935743236 5.237089841116395
Mo 5.581384934020026 5.806415828282634 5.441291413668161
Mo 3.7317349407316063 7.601520694498355 6.385847058264509
Mo 7.3056218708237015 5.728184642082218 7.384806724424506
