9
Energy = -75.1902255 eV
Mo 4.574141603946008 5.437281411453635 5.955664229630378
Mo 8.297343756570873 5.311901813652985 6.618261542357691
Mo 5.0357748683398516 7.086320446718497 7.8057525647239405
Mo 6.161533900340062 4.994300066208639 7.868733816643964
Mo 7.377112995241084 6.9962255830177345 8.209261426164723
Mo 6.521920351094472 8.64879009438629 6.511721878964084
Mo 5.427662517240012 7.342034086721618 4.8979115665940895
Mo 6.645451493995993 5.050653694420619 4.949099546586535
Mo 7.985954173179798 7.262842930933432 5.322808342417252
