9
Energy = -75.25521693 eV
Mo 6.495167520592542 5.43342727509974 6.02594143502785
Mo 8.888889340280015 9.428765809681222 8.501856765597847
Mo 4.970046764294236 7.9260208722994365 6.566962537603612
Mo 5.724038200797271 9.29968003597674 7.42299370251389
Mo 7.222676990776492 7.1645850852622885 8.27892006342759
Mo 10.002381100552098 7.594621798296823 8.092936391768623
Mo 8.107910823044454 8.07307330258667 6.499135677456887
Mo 8.733900902460809 7.72026916628728 10.091551717564371
Mo 8.190809785150382 5.243968297584022 6.556996560705362
