9
Energy = -75.36305905 eV
Mo 7.1006420199038 8.53082706786948 8.412530668836299
Mo 8.898598510493644 8.737274786303013 9.293144005049317
Mo 7.780581825269398 7.575065459927423 10.100002554948519
Mo 8.150949740957577 9.921367834228672 6.773945682216825
Mo 8.686734567878622 7.975067650632189 7.334716254700712
Mo 9.663332143227654 9.729846345738054 7.681402271556382
Mo 9.65917789231229 6.941402362482056 8.871941426074622
Mo 7.7854477964016455 10.364824207878852 8.412530668836297
Mo 8.146516683168729 6.096302464553471 8.493408288167798
