9
Energy = -75.0925568 eV
Mo 7.161004035416022 6.779413473470203 8.801352611654668
Mo 10.637311198682855 7.49164000213224 7.3312213509906945
Mo 9.021196008036524 6.644339556685995 9.51783008541628
Mo 7.819864364317043 8.983545383101823 10.305677273954773
Mo 9.360672982987438 6.251937964994107 6.7705206586171105
Mo 8.262587595282598 8.625185549954997 7.653103879527898
Mo 9.576193174231133 9.512845701623826 9.522830428032355
Mo 7.47022073119197 11.259220272962992 8.395073090403777
Mo 8.146996241915877 11.952103850218764 9.88243584364433
