9
Energy = -75.28835157 eV
Mo 7.582697921219122 9.916046563489756 10.985284282029832
Mo 9.303328530123325 9.326854825403412 6.2020746673228775
Mo 9.798483890463924 8.68757970630194 11.126757462217109
Mo 6.807310610004446 9.309162660793952 9.299546228947754
Mo 8.245110064287033 7.533366826574234 8.179906026832068
Mo 10.859780495236002 10.196509000858462 6.568330987826316
Mo 9.245029981104572 10.132290571788474 8.827052349397817
Mo 10.404835565441635 8.20694560778707 8.722305537119434
Mo 8.472794340870495 7.189347320182177 10.482875145358058
