9
Energy = -74.95346081 eV
Mo 7.253115874766519 4.870211105817105 6.952098247651751
Mo 8.650360339311922 7.410163767149717 6.735915433203578
Mo 6.1849052945247625 6.6207262868247785 8.004635388250428
Mo 7.396105673854453 8.71091104827662 6.430548561730504
Mo 6.827058395307237 6.514876785126999 4.882691416898586
Mo 4.7899113339002035 7.430865961910361 6.357557347291533
Mo 4.626814975415997 4.881793093409024 6.975256497969432
Mo 6.09693281269942 4.153900288581126 5.09340790792715
Mo 4.435576946762915 5.880837826808534 4.6921233756950524
