9
Energy = -74.41987337 eV
Mo 11.825179254483347 9.35785124845359 9.331880835713148
Mo 9.82737495933573 10.651401385001526 9.262016658953689
Mo 8.064253828909768 9.228514116019985 9.95787738662061
Mo 8.361691626322786 9.627208627333323 7.632070667326579
Mo 6.20237660898865 7.806678516095508 8.209877029022032
Mo 5.697325102103312 9.530071963664852 8.509755889040317
Mo 10.354151716336558 8.084436243147435 10.283243181825023
Mo 8.994094639922537 7.092175187839954 8.471077047344862
Mo 10.524480743058929 8.300100885833588 7.525405562782375
