9
Energy = -74.00362664 eV
Mo 5.968848492269926 7.417365248891478 7.835111165909673
Mo 6.30018486597238 8.911581442640205 5.389048050612766
Mo 7.573603248963048 8.275121750216767 4.319601497852436
Mo 7.617394823536912 8.808658210404216 9.498536670732364
Mo 7.917431901781033 7.255272896899502 7.069422621980031
Mo 6.453921381101608 5.663145806165679 5.21459256611754
Mo 9.09687226627121 7.661160041980552 9.682180474362216
Mo 7.3679465643511755 5.9116013116176305 9.180229038453346
Mo 6.671978278462294 4.729240076053032 6.7007159659256645
