9
Energy = -74.46065839 eV
Mo 5.876304521261551 5.919883496328956 9.25194098786431
Mo 6.840204074862984 8.570247026796258 8.53121901288001
Mo 9.202745760209439 7.675981723094863 8.658643926566715
Mo 7.54695779446675 5.496475322295944 8.773458719363015
Mo 7.978230468186639 10.304832194679648 6.4465203649206675
Mo 8.214066471982829 7.280626226665498 6.193956402715114
Mo 9.856024640600236 8.07387208368141 6.083469809161879
Mo 7.353997459030934 8.113828904571147 10.34276704586311
Mo 8.962083195605768 10.345057769362564 7.95977663686233
