9
Energy = -73.54458688 eV
Mo 8.121967672170781 8.405425550744322 6.198345900655439
Mo 6.745030607271163 6.830050433631748 3.945687166112542
Mo 7.369783470339198 3.7942311931050874 6.730637054888478
Mo 8.707056454439144 8.45163950912327 7.880322499215886
Mo 7.884743990679033 5.4222916714098 6.3493904521747195
Mo 6.284184686246807 7.204704069224852 8.026687587089198
Mo 4.982521969331205 5.309659414360361 7.7659667303296605
Mo 5.528399453491626 7.169724651006167 5.1568837848580635
Mo 3.957092303932316 7.024673593650412 7.577365005964274
