10
Energy = -8.26443859 eV
Na 10.510630362451792 4.9068255982611575 7.55921996174884
Na 7.70977519256335 5.8833514275722125 9.175817036670482
Na 6.93863763296802 4.963801391087849 5.981599747526321
Na 9.55762928921381 7.063965141055577 5.210201606135466
Na 4.910467290640754 6.80496732607289 10.623823770373912
Na 4.463816757428602 6.284792142765747 7.479834998183971
Na 8.110205400858675 8.692888660797614 7.62328014906519
Na 6.692594766560794 7.354858543484187 3.652471351814344
Na 3.3506951268164333 6.528652626973159 4.261806217053439
Na 5.348301925369524 9.126948767348399 6.036729729787986
