15
Energy = -14.32231056 eV
Na 10.661316196160016 4.53712104040657 5.26589904224586
Na 12.025382254372309 7.379481453991293 6.88256591488137
Na 11.224751452305808 7.987615300812751 10.476100457777754
Na 8.963081715275072 6.244740568256453 8.200418171742527
Na 7.254273727519395 4.157103353002639 6.0001400143284
Na 9.986521643816454 11.111926174763829 11.279103087570377
Na 8.810742731742796 7.550755854125846 4.956923530687815
Na 5.505261684900268 6.014831984051469 8.468799550741151
Na 5.355147552896649 6.789439885738126 4.679411335438688
Na 7.695859433581382 8.398423287417177 10.62244114286111
Na 9.766196120314985 9.969958926282263 7.852333757763461
Na 7.128959586645533 11.755104525011959 9.439137977306771
Na 6.497778138318815 9.062179061895895 7.057317178208255
Na 2.890718946669438 7.866879563685503 6.934189884869084
Na 4.333984935086894 9.308974120504606 9.828771409264016
