16
Energy = -15.25199786 eV
Na 13.104357033040207 9.823981294112214 12.158526570596148
Na 9.945798492774287 9.579802612204423 11.007119965002577
Na 7.7436499211335335 12.291058576067249 10.235627133853841
Na 11.722282183984513 6.530109288562764 11.664627746030662
Na 8.301983972760818 6.263509736729264 11.477925221729414
Na 4.3188252318631415 11.565919686784637 9.74730026122253
Na 12.704178160987478 8.784498725225756 8.789798309437474
Na 6.798016774543094 9.0410705107836 9.368350048919304
Na 6.395559720666329 11.586976607174414 6.759719808606924
Na 6.146417001154968 6.0123089068242415 7.74502486466283
Na 11.375377555342052 7.510216858165103 5.758034762679663
Na 4.09469048578925 8.903693445412102 7.3536945973707
Na 9.711398731773546 10.391841483963242 7.53956049635139
Na 7.430991689672168 8.466073833853628 5.584926632406506
Na 9.706824593977624 6.735778528411511 8.470068996768564
Na 8.683802494474676 5.107011657502267 5.291462958007948
