18
Energy = -17.27743941 eV
Na 9.21752797158621 7.116879840022479 9.835800377992147
Na 11.838604456203297 8.985288457921923 13.127367651316222
Na 11.26133414381695 10.437164518203168 10.036251602100908
Na 11.031034830599657 6.148912797609423 4.420483035585142
Na 9.734195040368709 12.087831579456555 13.009179882441448
Na 8.361756333438954 8.569581809224866 4.808693837640458
Na 8.175016435793118 5.63270099042245 6.737426152869378
Na 6.321342560054292 13.054059695849581 12.08610378768112
Na 7.973054074977631 10.253963698392672 10.759729107099133
Na 10.209806461628412 2.909751998861963 5.16590676499986
Na 8.875556627925814 13.639312177123234 9.81141823618548
Na 5.889403326033812 12.286066480585971 8.398498598154822
Na 11.242171498413107 4.8108637352866355 7.982101854916814
Na 11.108982738221773 8.308805507887007 7.122187375255237
Na 9.021626346512637 11.135812732926818 7.332990601391932
Na 12.78748412365939 7.116479534309111 10.341368500252786
Na 4.679936680312989 10.032751137940979 10.928550076753764
Na 6.581241916578545 8.620964495658775 7.9283352144495645
