12
Energy = -10.54707443 eV
Na 6.510697192748554 8.59543271533588 3.5357026559810607
Na 6.548111512697193 5.412561378370175 4.448439781819184
Na 7.12813930598876 5.025743626681465 7.670547712998283
Na 9.333947480285476 7.39091907725776 5.38334326843784
Na 8.627902972166144 10.759391785920666 4.752671276684789
Na 6.522096770511589 8.520351689873149 7.0394755768426664
Na 9.678062690781774 10.156926467855346 7.746416494032784
Na 9.861866881741681 6.794752856475485 8.625369475305117
Na 5.045997072603662 7.306904897399062 9.771432488359803
Na 7.865806069164593 5.616848274611447 11.056739183207803
Na 7.897970020986009 9.101006351600498 10.325372668103919
Na 5.9433108069172755 7.614666186567269 13.026753664745678
