15
Energy = -14.29776372 eV
Na 3.197713837843097 3.933138371351662 5.257528840737757
Na 3.359094651423594 7.623890347699659 4.7464133601972955
Na 6.89899742637607 7.608726720884912 5.580479996833408
Na 6.342846544263922 2.06429350511952 3.99139983709299
Na 8.904469501364128 4.6496092849568775 4.397807492364488
Na 10.422313476118694 7.631158222812151 5.966468926626373
Na 5.562220619630967 5.376264178213013 3.204983096434559
Na 1.5273092725641868 9.009951191730533 7.462417492967449
Na 7.218908765921873 6.935846000679461 9.059525658039366
Na 4.930472544443588 9.626925301663086 7.898049180388983
Na 10.694382955451259 7.711435425821121 9.52852950513862
Na 6.331533403519792 4.205557601361268 6.784118598053232
Na 9.733022371685436 4.789542028161883 7.859309220311795
Na 3.8005582401314832 6.286772280144799 7.853863863311307
Na 8.518029175327962 9.988762325465629 7.850977717568574
