18
Energy = -17.86545708 eV
Na 7.889063756633934 5.5060514478838 2.5061567327322516
Na 4.966002626877978 7.347607626427749 3.1996379948308316
Na 5.468756405015722 3.7372663077813946 4.576587830939562
Na 8.444752877541903 8.326623398440393 4.529812624516408
Na 2.7116581875565546 5.695726852762094 5.559803006821755
Na 8.592294797305993 2.297914431811892 3.850790622247501
Na 2.0495525585966123 8.97248551331552 4.591819643769961
Na 10.298058849515979 5.261833822827978 4.885621870431297
Na 5.259211194477276 10.082926145359341 5.331513680136541
Na 7.162445817174116 9.552355110831666 8.248556425141581
Na 8.01268522620961 3.405480481323266 7.116741402733824
Na 9.684579725059335 6.949997033159839 7.874655739442296
Na 6.337066388165581 6.596654889202721 6.488322419431623
Na 3.411224256451432 8.224962252633713 7.85829040815636
Na 4.633894695514137 4.5947974180723525 8.525993750800138
Na 8.880091350300244 8.222277150865589 11.028706410915802
Na 7.766823287609023 4.879023075586407 10.268488174706581
Na 5.4501256839087775 7.364304725629256 10.576788946159898
