10
Energy = -8.72332499 eV
Na 7.530287622118879 6.250838963341178 4.845085865377147
Na 7.071911475495649 9.755573187032278 3.951865832826824
Na 4.612527347076745 4.265641895294865 5.348767278231857
Na 9.72072074346127 9.063170557736026 5.778734691706533
Na 4.359687322803598 7.754527564626046 5.341700984134658
Na 4.120144766539289 2.5851095611294657 8.458640293180775
Na 8.64489547245789 6.548736529826895 8.199807017035932
Na 6.539705562396507 9.171213071516714 7.563391795543982
Na 5.107636018324319 6.096812017808805 8.440545727152752
Na 7.315736773587967 3.5316297559504157 7.094713619072232
