13
Energy = -12.12351329 eV
Na 9.039686102441273 4.5325431117514245 7.101992460934589
Na 10.67673360948677 4.38756149389161 4.112917530723674
Na 7.208203961693745 3.303675922948363 4.414739657803696
Na 6.71882775579572 8.56105463828827 5.940869567571852
Na 3.213167711179337 8.732826377466012 6.6449647797830105
Na 7.662475431988773 7.22865018306151 8.969741879276407
Na 8.058157371697215 6.4948118460856215 3.4551456068060538
Na 4.044273984029299 7.086857943963454 9.740162976645596
Na 5.364959306895661 10.172344053879216 8.960335664736029
Na 5.573132824430985 4.795357880351711 7.4621914651891865
Na 2.0682469957590777 5.565814495076444 7.277199285670805
Na 4.620332581560374 6.13085537060357 4.451581048669784
Na 10.261645384619788 7.517489704211582 5.97800109776765
