19
Energy = -19.11043967 eV
Na 6.52076868703119 7.224739627027175 2.0648193190298167
Na 3.5528928811457754 5.651436149885496 3.489829269454767
Na 4.022306460614556 9.313224481921603 3.893722335009135
Na 6.851821668387848 3.938935813760398 3.771802409391692
Na 7.562357907284106 9.8667779360585 4.377247033723317
Na 9.353609483134996 6.639347495037625 4.314854088617841
Na 6.052920680895856 6.944303544180042 5.546138489180177
Na 10.232583031131316 3.245477699695877 4.759974464288741
Na 2.6751400627100237 7.269027559338146 6.656698012854556
Na 11.08595454246474 5.8352980822196425 7.331441763951223
Na 7.931372809053842 4.355584522797793 7.161013851127561
Na 4.388050141071385 3.9617220927939525 6.585466557882145
Na 8.682235101728802 8.423835674342845 7.471308825317474
Na 2.4549066948266516 4.900416524374882 9.380667760365796
Na 5.295745384509001 9.996025788223847 7.240316933720795
Na 5.869356409832735 3.550573385469364 9.889119535230757
Na 5.341075763825187 6.8360385281087535 9.015207041466093
Na 8.618662238373432 6.113286692930465 10.140276737220605
Na 7.041501213168455 9.467209563023495 10.443356733357868
