13
Energy = -11.25223614 eV
Na 7.460542302435204 4.7217431512916965 5.613367131117451
Na 3.2775705356895375 8.963734412130346 4.251661557051941
Na 6.856965889587385 8.032318686300673 4.632743408635457
Na 4.122005717487804 5.5841190716131495 4.575264055531947
Na 5.649210081362089 11.284475748059132 5.428790428770107
Na 4.816479666068138 2.1642759360362347 5.662796868249218
Na 7.234865132549835 2.573365935411135 8.33196335309924
Na 4.781916646629717 8.268664245251477 7.354038900620222
Na 8.079989517213246 9.962822800112196 7.51982378249722
Na 10.240276236256417 4.317410893166852 8.148382551967773
Na 9.966240939856656 7.288486903157611 6.334157902576005
Na 7.503346054565451 6.492353974459235 8.739860188121746
Na 4.5285647370068425 4.864201699717965 7.925123328469373
