11
Energy = -10.05143461 eV
Na 7.747161007497387 2.972196966372862 6.0344865272888395
Na 6.603992705230832 5.618202103948996 8.4967609258056
Na 9.903721057542402 5.541306618273224 7.33155448603698
Na 9.086927720808443 7.920506508105175 9.879109897961673
Na 4.654921443234673 4.143598880714306 5.4965373227590035
Na 4.285271151876871 7.521218771372328 6.653117975064233
Na 9.767621389540922 9.016322132657999 6.682707757687707
Na 8.563215979295363 11.421689609060442 9.031385937990656
Na 7.372448245066637 6.769666085083473 5.214473147521674
Na 5.9213731005994505 9.039595300924686 9.387945200887081
Na 6.62532814973283 10.206256236963952 6.218584775733173
