17
Energy = -16.68067654 eV
Na 5.70289233857389 5.70289233857389 5.702253746253102
Na 5.70289233857389 9.828720000000002 6.452801029990107
Na 2.7863998721855885 8.619384804962193 4.953605496681919
Na 1.5770646771477805 5.70289233857389 6.452801029990107
Na 2.7863998721855885 2.7863998721855885 4.953605496681919
Na 5.70289233857389 1.5770646771477805 6.452801029990107
Na 8.619384804962193 2.7863998721855885 4.953605496681919
Na 8.344516789351724 5.70289233857389 3.0476849264371473
Na 5.70289233857389 3.0612678877960566 3.0476849264371473
Na 3.0612678877960566 5.70289233857389 3.0476849264371473
Na 9.828720000000002 5.70289233857389 6.452801029990107
Na 5.70289233857389 8.344516789351724 3.0476849264371473
Na 8.619384804962193 8.619384804962193 4.953605496681919
Na 7.570536818057303 7.570536818057303 8.357637549266588
Na 7.570536818057303 3.8352478590904835 8.357637549266588
Na 3.8352478590904835 3.8352478590904835 8.357637549266588
Na 3.8352478590904835 7.570536818057303 8.357637549266588
