13
Energy = -12.05063213 eV
Na 7.707963609514139 4.639304972560302 2.9163038159068826
Na 4.364752172881339 3.139502239390217 2.512705610110757
Na 5.156101160882073 6.209469631999337 0.9937785636195567
Na 5.288151812292657 8.571302466910373 3.654861499130814
Na 6.781100969037572 3.0296871884117764 6.371665422755082
Na 2.36124874778271 6.373183857865879 3.1100877461921828
Na 5.158943285526387 5.526372407503517 4.669199859245508
Na 7.520429645453352 6.577811465319104 6.769642471371928
Na 2.8357567544756987 3.8311529380677793 6.078352675662487
Na 4.035850911585875 7.51216510952274 7.238932383079873
Na 4.888263898069027 4.539264402086847 8.934865663678316
Na 8.298207708873592 4.255395138746781 9.33045618335897
Na 6.2995766080516065 7.5104481160139835 9.963483281490753
