17
Energy = -16.42727564 eV
Na 8.809251695347399 4.0078934285674785 7.989559097805177
Na 3.9434456219641962 8.952641914536844 4.944075261131131
Na 7.594400671608238 6.820400574193871 2.1334001955237047
Na 8.84058737996562 7.5411081857775715 8.014136898113417
Na 5.764873207993879 3.652465356221942 2.133627706674436
Na 2.6891590360221396 7.5411081857775715 8.014136898113417
Na 5.764873207993879 5.7661637090882625 8.862218909140845
Na 7.614438121197982 2.593483867290228 4.942896987857966
Na 2.7204947206403554 4.0078934285674785 7.989559097805177
Na 5.764873207993879 2.2125622089669035 8.012821063620702
Na 5.764873207993879 5.764365599442701 5.0708074865652115
Na 5.764873207993879 9.279240367171042 7.989417294232149
Na 3.9353457443795166 6.820400574193871 2.1334001955237047
Na 3.9153082947897757 2.593483867290228 4.942896987857966
Na 2.0940194159877583 5.748495677136417 4.942907722861303
Na 9.435727 5.748495677136417 4.942907722861303
Na 7.586300794023559 8.952641914536844 4.944075261131131
