14
Energy = -13.06055217 eV
Na 8.183548440978264 10.930858324165094 5.5880328634854095
Na 10.66868399886309 8.170341393278102 5.798938791292454
Na 6.563002596506727 11.20534708399059 8.842740615789928
Na 7.445832933470274 7.463785067604156 4.24233230735349
Na 10.147156392442298 10.520175200202276 8.631383049127512
Na 4.898124524376364 9.271236736646246 6.133897119895741
Na 7.761213270881684 8.089642523391896 7.662659636367712
Na 7.3262025602603495 5.1978617875517905 9.825406657853643
Na 10.615511648062807 6.801963384111287 9.189756006521405
Na 8.064068337127038 8.632807380264325 11.065144331819484
Na 8.99233579597548 4.892794456312644 6.446319849960032
Na 4.81798809669917 7.91635550990909 9.531195437141509
Na 5.304981067178954 5.601840882288656 6.657149222064028
Na 6.684144198332824 2.5225086352106594 7.645035969763528
