17
Energy = -15.93543883 eV
Na 9.96980636725179 10.490377651168338 9.32671755374149
Na 3.9961180671258356 9.947670832363418 10.112192972773666
Na 6.884060865500068 11.318575435262538 8.001288422764413
Na 7.171182484961524 9.523585356904595 11.14088592558844
Na 9.709009140782328 10.087502925277278 5.94753811706902
Na 9.975710737004114 7.389911085398284 10.926631265033777
Na 11.67369972949066 7.840080979798959 7.854660377290211
Na 3.605074615155961 11.732940579865339 7.2421844418442
Na 4.862061421114952 8.64565277273761 6.604171982888738
Na 5.0886182894694025 6.7960733767252 9.717443748416907
Na 8.05209840595221 7.913960439441937 8.094667195488034
Na 11.52556480756786 4.653732325750546 9.321448947291996
Na 7.806624950138602 7.554277298899962 4.643606170563783
Na 8.00308907896477 4.790723003277543 9.582955540472279
Na 11.505623843700866 7.186847806340521 4.45434205353598
Na 6.127441054883255 5.416121853665817 6.70855370205063
Na 9.58557219334504 5.074741939138339 6.427988078681212
