13
Energy = -12.10425854 eV
Na 7.890108076639639 10.051932100205027 2.843238870114436
Na 6.912027977534179 3.806921170898993 5.011777814922067
Na 6.7982164678706125 7.398195445039045 4.937613871196763
Na 3.862112441568973 5.401064948181826 5.3437071786906385
Na 9.927063134483431 9.045170369488584 5.517043905275477
Na 6.4700114565249836 10.847122559956183 5.937351627187729
Na 4.4149201413142185 2.3089295487167343 7.126902816851754
Na 7.767507984858446 2.3683866224710273 8.171148855875238
Na 9.359517943484395 5.823534532486828 6.9188671802252095
Na 7.867122081349057 8.721991101206365 8.335546325953759
Na 2.7091332151657217 4.945780753622018 8.691007288587976
Na 6.1040713952180585 5.392538296197173 8.204810099558749
Na 4.427223706270532 8.3974685738126 7.470020187842301
