18
Energy = -16.98821702 eV
Na 12.796076102102369 9.009809664105846 6.159667167318107
Na 12.528795517126586 12.277575863258512 8.048089506699558
Na 11.896848070252583 12.039114231723 11.415784628586106
Na 11.531665130409849 9.267826930460808 9.349482555952955
Na 9.699622872952261 7.320885167533297 6.828407604895526
Na 9.950965428895927 10.777197933048045 6.330018839596541
Na 9.052456083466382 7.093180929296219 10.24158676834697
Na 8.856462518114295 11.62060716583905 9.726061967284208
Na 9.711906367249915 9.562868393203795 12.608060409858403
Na 6.4995816625632425 9.43957097345777 11.358366713099521
Na 8.241980729153981 4.345516568960596 8.440436428834227
Na 7.434122133893488 6.663180854239632 13.13876518215708
Na 7.154320170525552 12.5116451362057 6.679775981754446
Na 7.367066817756441 9.212874868332161 4.627740174203805
Na 6.799406933666688 9.32358934142621 7.9830890464078115
Na 5.703377760333173 6.326063699772461 9.837697817498002
Na 6.255129709767042 6.334310720791758 6.327542796287228
Na 5.014016404611254 3.4715316280387136 7.771772229842424
