18
Energy = -17.08108613 eV
Na 8.039755025219375 12.205179125793913 10.685883854523414
Na 7.639506155543841 8.746563615525805 11.115509667321271
Na 5.571186139807051 13.481842575425931 8.700912883732004
Na 5.189754547024909 7.359337102044194 9.189685034023475
Na 11.830543836027266 8.072939212628915 6.57529829881216
Na 10.951972309194044 6.9611863024214715 9.87743474260633
Na 6.541953791963104 10.281457706718115 7.669262750843529
Na 8.759103151040083 13.114691337255323 7.255916939592676
Na 13.292760579978975 9.69823414588346 9.46677805942095
Na 8.325850744294465 7.232923921801734 7.531956287426699
Na 7.832834838130502 5.392147486753754 10.552169193306959
Na 11.492959580222564 12.90963392423233 9.700841822242571
Na 10.033364234718348 10.170611234969442 8.48365186745726
Na 4.767442608130461 10.606468250122559 10.658373177452518
Na 9.175253810387867 10.0957303632412 5.250941933586799
Na 10.713702692880318 10.194076731500711 11.972839092160307
Na 9.7625140005011 6.915854548730343 13.15947251833448
Na 13.140338307224551 7.845790560663372 12.457154516053079
