13
Energy = -11.18093438 eV
Na 9.946377976524472 5.621287860250362 5.868603523133949
Na 8.488304479127423 9.883624491024918 6.443557128706277
Na 6.899035086627299 7.102432723325424 4.682715000145619
Na 7.561203510381223 3.4341902599848084 4.844253249654699
Na 9.272161293107661 7.378374432112421 8.448563263820619
Na 9.890258362461667 8.265304521753967 3.759473200578868
Na 5.368289183681812 5.342466438868652 10.789247972013026
Na 3.624976049643722 7.746481487050146 4.389506787093032
Na 6.848045432626371 5.341937497893793 7.612773356417233
Na 5.395642600638105 8.737599166011202 7.239906220253124
Na 6.70700669602963 8.38436168011065 10.27122230155615
Na 4.375109459299399 4.599854759058969 5.209890281106663
Na 3.594601689101019 6.1043921342814444 8.07267862011778
