19
Energy = -18.25916421 eV
Na 10.858348273568033 5.7405756814902285 6.296524334166342
Na 7.338917686004221 6.242586715003917 7.012999792234247
Na 9.552250648637092 9.127091288901976 6.853749933407099
Na 8.591604286750401 7.406325460860445 3.873239848200055
Na 9.371637273189952 3.8989392775853884 9.042491322286725
Na 5.66630906797614 3.5678461775607357 8.784976502243998
Na 8.896113233713404 10.995560868112983 3.965952913377757
Na 4.884521256859889 6.869709995706682 4.277688428355767
Na 6.235559170696839 9.579305109029535 2.2305319054464565
Na 3.6174713229265167 4.315440453264865 6.173081132157399
Na 10.254079384272467 7.204494559312992 9.659515024152576
Na 6.015186784542267 9.643519683746785 5.864886727856008
Na 9.598334353446557 5.118881460868625 12.389357163289556
Na 4.184712535703867 7.215315237326824 8.063814408536041
Na 6.696920572746417 6.242478240794976 10.625848793474466
Na 7.820419743751291 12.271519427939442 7.333781325642328
Na 6.654580164341055 9.477679195274508 9.343818009193434
Na 9.828624886125601 10.804053311416219 9.994203564444833
Na 8.37307769839819 8.65579943119319 12.456953902379771
