16
Energy = -14.99655853 eV
Na 11.86016503808334 9.781778528165892 7.552157127738966
Na 9.484971929459665 11.358468943909859 9.393794890196498
Na 9.877978398055582 8.04060372474147 11.002676368430558
Na 11.349291304145634 6.319542066007632 8.52715488643832
Na 10.719539465527554 7.844235989983941 4.761071579625264
Na 9.209831868097485 10.93715278746295 5.381038491489176
Na 8.704141516354666 8.416870960268119 7.727758408307962
Na 6.788766207953607 9.457502670249776 10.557555360633195
Na 7.497881392446122 5.795266518741876 9.496506142382163
Na 5.153968778463518 7.919103438478252 7.791975358891916
Na 9.03934002440108 5.256711627772615 6.2512660678555525
Na 7.04953206039948 7.975015823069886 4.841511550961599
Na 6.468633552652417 11.029712348809465 7.32439219116543
Na 4.053142134795329 4.795764750490917 9.05630578546415
Na 4.395730549171415 7.184907148398971 11.347306458794423
Na 5.755314712387746 4.820214554055256 6.19880589655433
