17
Energy = -16.58479852 eV
Na 5.597682651801349 9.214645443177604 4.97936428863819
Na 5.598943624564512 5.598943624564512 6.057846455183782
Na 7.748002883181995 3.491707434283672 2.647296965571497
Na 5.600204597327677 1.9832418059514185 4.97936428863819
Na 8.627786114184287 3.792778827926938 6.33152420124322
Na 2.672772369507003 3.613058330911499 6.4367898894500355
Na 4.289846713688463 4.276635450494133 2.6344516166278287
Na 1.1034992491290223 5.326865123790079 3.7883806092409538
Na 8.525114879622022 7.584828918217522 6.4367898894500355
Na 5.682740594172778 2.737514163440924 8.410178434069767
Na 7.461302517216075 5.640187292373309 9.334111325442084
Na 6.908040535440564 6.9212517986348905 2.6344516166278287
Na 10.094388 5.871022125338945 3.7883806092409538
Na 3.44988436594703 7.7061798148453535 2.647296965571497
Na 3.7365847319129464 5.557699956755713 9.334111325442084
Na 5.515146654956244 8.4603730856881 8.410178434069767
Na 2.570101134944736 7.405108421202087 6.33152420124322
