14
Energy = -12.98390951 eV
Na 5.637898451201906 8.049353378242339 2.108134808127669
Na 7.404339210985092 2.701022429448881 5.304622368902561
Na 5.637898451201906 3.2264435241614753 2.108134808127669
Na 5.637898451201906 5.637898451201906 10.715259905723858
Na 3.8714576914187204 2.701022429448881 5.304622368902561
Na 5.637898451201906 2.6602456493257858 8.525353432926002
Na 5.637898451201906 5.637898451201906 4.719058859108536
Na 3.7980968452008397 5.637898451201906 7.686741580734122
Na 2.884025000911047 5.637898451201906 2.818655467326685
Na 7.4777000572029735 5.637898451201906 7.686741580734122
Na 8.391771901492763 5.637898451201906 2.818655467326685
Na 3.8714576914187204 8.574774472954928 5.304622368902561
Na 5.637898451201906 8.615551253078024 8.525353432926002
Na 7.404339210985092 8.574774472954928 5.304622368902561
