12
Energy = -10.57729584 eV
Na 6.749087924207785 6.797938060639138 5.08649522966236
Na 7.913867228221426 4.206934927956419 7.2019082731003765
Na 4.339588409760826 9.145958450362961 6.03903856659483
Na 7.959393482689855 10.320946609516184 5.897686814006445
Na 7.228228302461357 5.88459447470534 10.243401979951628
Na 9.511158277116666 7.364813548544137 7.0132882574117525
Na 4.6459794249867725 6.03569232544574 7.832336087253864
Na 10.551618186378839 5.104647801311463 9.501207054160389
Na 11.14637450034159 10.440472375744518 7.398449250791818
Na 6.487798373979108 8.89885286106784 8.822814685831828
Na 9.704467736691777 8.755778021485808 10.289222639768436
Na 8.385330102269098 11.82420476323844 9.18833465526329
