15
Energy = -11.18291892 eV
Na 4.723177787093505 7.024432400950314 1.9245245724318498
Na 8.12888973223109 5.774252360707477 2.8436877581802085
Na 6.705940804463619 8.712063433888245 4.297333857092702
Na 11.194381265697475 5.111394344921197 4.870706099447967
Na 3.2330266457737835 8.461609630765908 5.058672038264492
Na 5.314421706771149 5.5269194748469195 5.104062586906203
Na 8.079230884601909 3.32493644652243 5.483110748569025
Na 5.939011035259773 8.28741634924169 7.655137508243408
Na 10.113678514817817 4.1811569984057435 8.30690855450208
Na 3.0118503745249345 9.677755354501747 8.586290997647398
Na 3.0544692874472528 6.114574841840179 7.7800113130119755
Na 8.697251405932285 6.770547242887775 6.402530088961719
Na 6.2954921846790555 4.636683843817081 8.30839390376103
Na 4.74566743331744 7.206517253978297 10.767680616544995
Na 8.293260084690724 6.7194891700263435 10.140698503736601
