10
Energy = -8.93878675 eV
Na 6.018654761555138 7.775673401716278 2.307860344108259
Na 8.388832483933284 5.883981133325983 4.467226661665971
Na 5.159959202266452 4.928890504496562 4.580828671472651
Na 7.4955032388621445 8.968849784369796 5.535970014434231
Na 4.273619881856251 7.99273420855166 5.623301890327009
Na 7.297850503469851 3.885102000450845 7.225880501607287
Na 4.398211431962646 5.378747403196523 8.031591536528772
Na 8.960030596053343 6.74450387383183 7.857156578250507
Na 6.052647694665717 8.244646899120452 8.703858223394322
Na 6.987136922040351 5.2293175076052565 10.698772294875113
