12
Energy = -10.49799545 eV
Na 7.176731119306831 10.50860037916205 5.448672365907771
Na 3.720613612508716 10.50860037916205 5.448672365907771
Na 5.448672365907771 7.467218602091493 5.448672365907771
Na 1.923264180949177 7.483103685717959 5.448672365907771
Na 3.6997056665495323 4.4394672360764735 5.448672365907771
Na 0.20266873181554443 4.416061821223787 5.448672365907771
Na 1.9304689522349399 1.42170558294907 5.448672365907771
Na 5.448672365907771 1.3789726294646962 5.448672365907771
Na 8.966875779580604 1.42170558294907 5.448672365907771
Na 10.694675999999998 4.416061821223787 5.448672365907771
Na 7.197639065266014 4.4394672360764735 5.448672365907771
Na 8.97408055086652 7.483103685717959 5.448672365907771
