15
Energy = -14.09902536 eV
Na 6.299722034981983 3.841139531846435 2.234416879215002
Na 6.334276861691666 7.421187939818755 2.276605131372903
Na 8.447295622074162 5.468017851531566 4.452534679477839
Na 8.367535361157026 8.92113137729226 4.818222239812663
Na 3.4867380000903463 5.642305883409674 3.530243618273838
Na 4.648327966200273 8.501723784718488 5.08716909995186
Na 5.67077418064942 3.746911726220553 5.668530324262106
Na 3.150103128075943 5.704352032113859 7.09901632885597
Na 6.6673704994712315 6.7562173739055185 7.251557047380361
Na 8.689726613270823 4.326655804681422 8.440085802701569
Na 10.140434762885674 7.650160763031832 7.796094469524977
Na 5.324504909270759 4.673002331146708 9.877532166439536
Na 7.520316984821756 9.841013593574637 8.542185976458375
Na 4.712785191017558 8.091926897964779 9.777729905664245
Na 8.049772103667108 6.923937328069389 10.657760549934643
