16
Energy = -14.76164163 eV
Na 9.242299548331 10.380433868652773 7.3118274526169476
Na 11.847865108896809 9.193361798033262 5.606392809692502
Na 6.652156759283276 12.472743196600693 7.462471663142248
Na 9.821175817404784 9.070709006689817 11.016292955263333
Na 10.753778091810448 7.234147376308428 8.443676856941888
Na 6.037374765532536 9.077537690307862 6.381443848006984
Na 5.8577556622556015 5.6608633035853915 6.144903598545948
Na 11.846954961582485 5.922372007780906 5.414482673374669
Na 3.900331242283672 10.946510267080452 8.38973949358684
Na 4.215773893835075 4.459970296952953 9.111315897560038
Na 8.707139563874318 7.408418805051119 5.380428341377175
Na 6.822804597309196 2.8585919709587113 8.25407283158496
Na 6.796041143997747 9.778296835456413 9.9183679312412
Na 9.269044844793909 4.361427977063631 6.793554318064305
Na 4.07135307853591 7.663110448324464 8.775273054770677
Na 7.45648924193209 6.458205698620166 9.153017644837737
