11
Energy = -9.67224262 eV
Na 10.083818728099393 10.740033246210437 9.628753711791106
Na 9.517783670732328 10.492523889675494 5.627366665750179
Na 10.069556566006534 7.444938237761275 11.054208549853975
Na 8.283048247346446 8.502972821956435 7.970684213905612
Na 9.568254679664328 5.399432382903764 7.970835160188379
Na 6.239677809819731 9.199450842023396 4.945387816025843
Na 9.148594399080878 7.058844696339339 4.6522820922633
Na 7.155198741818871 9.583218916132433 11.348454041902402
Na 4.965748390791512 8.775677558840195 8.430001122780052
Na 6.311590100638295 6.024296562951024 6.4369542477662
Na 6.865315419329794 6.25279903407532 10.273222397083101
