13
Energy = -11.62149367 eV
Na 10.475094353018175 5.723251894397113 5.9505994430915905
Na 12.748553703330327 7.9948935889845565 6.778564930815072
Na 7.51031275963367 7.863728303464604 6.460285636807176
Na 7.456567637067979 4.5541804748185575 5.128450709044936
Na 7.2036826057737295 11.399589984828943 6.5867662663645286
Na 10.298790956899 10.228439912971716 6.885973282526701
Na 5.0020925448399565 5.269863336901536 7.270236805296152
Na 8.283608404047405 4.579302113299003 8.503527256148251
Na 10.013985345989685 7.436481795422565 9.010222350340534
Na 8.081128926167892 10.108772137379692 9.69979254567601
Na 6.54330382224835 7.120073254119879 9.866432437238833
Na 3.0327030256682703 7.11420009435516 9.209457828794346
Na 4.834559606696376 9.709722322406485 8.19833276557969
