13
Energy = -11.46034314 eV
Na 11.498043796879172 9.422238816590369 7.966805916842612
Na 9.298663361790583 10.056633677303681 5.1983796798880535
Na 11.392566439794884 6.231062307263021 9.377205224632094
Na 9.769970067497347 6.669241976467715 6.273101793260373
Na 8.597907468862836 11.491485300532783 8.399732955635487
Na 8.883151447669919 8.506335765674532 10.360342189465978
Na 6.990965820171067 4.518716477129279 5.908884395043157
Na 5.618077582973 10.1030099567086 9.843689384865902
Na 5.911955652109262 10.44327256057261 6.283458143929178
Na 8.105034352045095 5.022291753980274 9.1970060673016
Na 5.846899095138075 6.868184452837372 11.151397931752024
Na 6.831490031347102 7.606931413030014 4.2903318483412765
Na 5.435061942767053 7.166000248389481 7.649230310591817
