14
Energy = -13.22413896 eV
Na 5.508458915487233 10.456229999999998 5.30167626587038
Na 7.286582550949201 3.6643595702384357 4.724314155392921
Na 7.286582550949201 7.352558260736028 4.724314155392921
Na 7.939426711542278 5.508458915487233 7.65839644855604
Na 5.508458915487233 8.175707957733254 7.909292755892918
Na 3.7303352800252636 7.352558260736028 4.724314155392921
Na 3.7303352800252636 3.6643595702384357 4.724314155392921
Na 3.0774911194321866 5.508458915487233 7.65839644855604
Na 5.508458915487233 5.508458915487233 2.1015481652990857
Na 5.508458915487233 9.022698658916784 2.0532818956394223
Na 5.508458915487233 1.994219172057681 2.0532818956394223
Na 5.508458915487233 2.841209873241209 7.909292755892918
Na 5.508458915487233 5.508458915487233 10.274326050800148
Na 5.508458915487233 0.5606878309744627 5.30167626587038
