12
Energy = -10.47441477 eV
Na 6.989318046275794 2.125928125911508 4.14818938702016
Na 5.652483072697252 7.5459874275975665 5.4159923976566855
Na 0.7531999605091386 3.3825914304556353 3.5839843249378953
Na 4.672606436716396 4.18764797657724 5.300833427529285
Na 6.942978687218577 5.524320753302743 2.8185185884469113
Na 2.9938553801832697 1.1830212924068229 5.057415609150369
Na 4.534198021061629 6.091246179846406 0.4818004812325852
Na 2.681628941738349 6.270049942242332 3.5975388642892567
Na 3.975645677873044 3.0515700123804437 2.100719948574731
Na 8.012349306087062 4.964404613417048 6.243552082977645
Na 1.680609190610161 4.233785906624957 6.85688073616323
Na 5.100113735540345 5.411640541836548 8.392143079835515
