12
Energy = -10.50523092 eV
Na 5.908819254388562 8.532359146208025 5.908819254388562
Na 7.686993700710566 4.130644808066557 2.9590455087771215
Na 7.686993700710566 7.686993700710566 2.9590455087771215
Na 5.908819254388562 3.2852793625690966 5.908819254388562
Na 8.532359146208025 5.908819254388562 5.908819254388562
Na 7.686993700710566 4.130644808066557 8.858592999999999
Na 7.686993700710566 7.686993700710566 8.858592999999999
Na 4.130644808066557 4.130644808066557 2.9590455087771215
Na 4.130644808066557 7.686993700710566 2.9590455087771215
Na 3.2852793625690966 5.908819254388562 5.908819254388562
Na 4.130644808066557 7.686993700710566 8.858592999999999
Na 4.130644808066557 4.130644808066557 8.858592999999999
