18
Energy = -17.94004882 eV
Na 8.531229570410726 8.273140142216251 3.1013957555808314
Na 6.097773366942488 5.479764459639187 2.843399313193351
Na 9.373907703336185 5.315692199589769 4.511908337599525
Na 3.216737837020935 6.66418870222866 4.7955822430670425
Na 5.092467426069856 9.008412257222377 3.254601069100041
Na 9.727049708473631 8.192479601624408 6.644307799775822
Na 3.9109015209646043 3.3643264634167487 4.984877977389738
Na 7.307049253159533 10.580916803046527 5.406486289639055
Na 7.34556161925695 2.6104903137523907 4.797234410733281
Na 6.533455800042842 6.54659084833397 6.569071101934842
Na 4.297814421355421 9.315103672714207 6.959942472506757
Na 3.509545045251489 5.374767077877149 8.14934547310723
Na 5.6620935310340865 2.4938336916435953 7.841692758081342
Na 8.875390629972516 4.143257529224167 7.870352923274107
Na 7.404673411051132 10.041892682001212 8.804396453538677
Na 8.763172880355508 7.074822542507309 9.92720271635871
Na 5.085926724586718 7.892470289204301 10.16449182215341
Na 6.3134113328102694 4.676012505853252 10.421872865061282
