15
Energy = -14.14377052 eV
Na 6.840128141509674 4.346606666245834 9.922525646754517
Na 9.302622495806885 5.595923618694955 7.707470673680858
Na 9.02919443133066 6.80175007263603 11.118846204897872
Na 6.166511162976449 7.7520336829535585 9.300282429106854
Na 5.833604902905092 5.389919437899214 6.64925941085399
Na 8.074649605918525 10.161083468146156 11.26950763011655
Na 9.43053953846042 12.400424602983788 8.839278018411363
Na 8.414787385784372 4.40492859857456 4.437820936338648
Na 6.090685071606609 11.10050213078595 8.579216792020329
Na 9.400518948705216 9.035975001678384 8.235282650401803
Na 8.130563585334665 11.228132658216664 5.733063269369915
Na 7.812428389618669 2.4606956340367097 7.221921802912085
Na 8.634034427732688 7.811682089923289 5.08325187237214
Na 5.446633629776109 8.857700203719403 6.039047751704025
Na 5.827948214052107 6.609563876963479 3.348691913389553
