11
Energy = -9.3567652 eV
Na 9.38472196257418 8.608269893110254 6.847924987516528
Na 5.998074063737971 9.257622824777068 7.51010226066083
Na 5.7556847472503625 5.555656542477643 7.690020084580957
Na 8.007389113425207 6.390423234461641 4.738147216807161
Na 10.01536166813876 9.69096542058397 10.099485840994612
Na 6.713815048759012 10.540872315836214 10.692029769141412
Na 9.045326516838509 4.7812438885047355 7.544753831746603
Na 7.567963021547348 7.265452630081536 9.95045822732442
Na 4.8843523991259765 7.367696141039112 5.010606837005809
Na 8.372618634276327 11.84204815219094 7.912025330867056
Na 11.058165037139172 6.610506413013135 9.462605475140583
