14
Energy = -13.24728017 eV
Na 6.108435508664528 6.115182824575642 2.147439188455432
Na 8.260648660259275 8.167282172613971 3.741126204603068
Na 9.719928607478066 5.053240677473746 2.885404275989115
Na 4.277407196278699 4.384869622331942 4.3568429019306105
Na 7.126670612765413 2.71950271017574 3.122751393618351
Na 5.079759318221894 7.730215973658869 5.258942843013133
Na 5.900203237415146 10.513203588816932 7.865594674960331
Na 7.794389297637688 4.901016213036123 5.691501547771258
Na 8.0920117253495 7.9131006033032545 7.423794015903591
Na 3.6235707179336147 8.149057987583525 8.872596546615778
Na 5.093448684161333 5.26198587114032 7.900317497320344
Na 8.0937683247031 5.484427742784682 9.811420587280823
Na 4.8769656183753645 5.980702211888434 11.338340284186097
Na 7.013408097055072 8.686827406915235 10.644543644650307
