12
Energy = -10.69224047 eV
Na 9.416700655639971 9.397183631955443 7.4123396017726355
Na 9.704918504561636 4.293438976524065 9.780619758944601
Na 7.576066919641134 9.812513186627926 10.497756973041215
Na 8.786052885881308 6.218718380576027 6.960313356212831
Na 6.852149078254145 11.977454640849748 8.022468817877101
Na 6.844856585167098 6.595308406619446 9.786596069449919
Na 5.388901211524041 5.43613358153273 5.961530366287633
Na 7.304377071434685 7.578765656765342 4.072772416588053
Na 6.940852672583027 3.4825061212373596 8.222434244566603
Na 7.356168559175521 10.828291698088188 4.97632251787432
Na 10.320669726350108 7.576587913737659 10.09683473586552
Na 6.0490918946932135 8.600332794099625 7.327460639285624
