16
Energy = -15.47811308 eV
Na 7.860898540668944 5.704733246631892 1.6492860434976737
Na 4.699494503695817 7.498543004278102 2.43975907156945
Na 2.184993261564344 5.8151283148597175 4.370603503548218
Na 7.579975541234189 7.755470764793829 4.572615899744344
Na 5.652225348304953 4.535526879590823 4.176399418917359
Na 9.44797659430337 4.8472478743925524 4.79755892204187
Na 4.406583970710695 7.698323895494034 6.05338030840445
Na 10.147030448669746 7.366733122566939 7.25782068718863
Na 7.134335408166851 8.999180653619241 7.9338338833345405
Na 7.005638333551659 5.367385368641204 7.365656555655685
Na 3.7059819407631096 4.222120978662959 7.063857688540855
Na 1.452322261027538 6.92903229584186 7.857421567283341
Na 10.03318249581164 4.149791224348959 8.5999104776199
Na 9.924340497240541 9.721194759972652 9.837911661970367
Na 4.5807194129504945 6.830327839525375 9.62656666437071
Na 8.228433089682571 6.603391425126786 10.441549294659076
