19
Energy = -19.18226273 eV
Na 7.39631835746718 8.47448774316293 4.48745212607755
Na 10.46922609949046 6.779836492817006 4.198839499085069
Na 4.521687853565732 6.420119015902581 5.01444052595512
Na 7.769735564871157 4.806104044153996 5.588675268396661
Na 10.22591627173763 10.31228404931559 5.649571110951033
Na 7.135694083374931 11.976371202362358 4.950700208925887
Na 4.599417572542663 9.878198316088666 6.405084365167714
Na 10.98718051927013 4.248418091889775 7.028073599292995
Na 6.354756546217487 7.277445342529386 7.847318432356153
Na 2.9152635401897773 7.061932909851808 8.27675089071956
Na 7.728735592654017 10.715132688092925 8.189196250527267
Na 4.991507110530178 4.0326478384714 7.76889957212065
Na 9.70112992780685 7.423900401216852 7.449713886158811
Na 4.958508077869836 9.53442237558821 10.089628206793476
Na 8.249710181786853 4.602440544545117 9.319691831605228
Na 5.268690061861677 5.9797597072778474 10.928060583699072
Na 8.23346043267617 8.039982815087754 10.858035998587997
Na 11.277465813723161 6.239697072824972 10.2953114672047
Na 10.951653734967508 9.932876691424784 9.390613518978666
