15
Energy = -14.2580048 eV
Na 7.511839658963 10.25492813445556 5.462112353918379
Na 9.797800764352585 11.15645880783657 8.148286056698051
Na 6.301600049823186 11.739374022158993 8.844132095439164
Na 4.665133361384856 8.906529219060673 7.32796170723497
Na 8.850180257457728 7.928611367452865 3.174504652178542
Na 7.770913718229102 8.450508392207356 8.680781719619743
Na 8.443997738217778 10.356995760839462 11.533150203265663
Na 9.91894133201714 4.777978689917323 4.965019407661517
Na 5.1975138209476865 8.894770408610405 11.00377852245764
Na 10.881372688413947 7.991570958113273 9.972764195393701
Na 10.447451422349026 7.99051732634222 6.298864087753846
Na 6.976840303377549 6.495186057552451 5.775298017399733
Na 5.799249918584467 5.6976283845787545 9.168281449218322
Na 9.330832737878847 5.081352126286704 8.425508532556787
Na 8.064176813156992 6.660080796032665 11.788329366425065
