16
Energy = -15.22361865 eV
Na 6.0297720621558 9.973452206347414 5.510969929533154
Na 4.1759209741437 7.355828781947117 7.12670293587523
Na 9.22365430892753 8.361811579490736 4.140910689582568
Na 11.295452237041067 7.190521358416478 6.9346111070770915
Na 7.729863918266268 7.293723327838357 7.086982248689684
Na 5.9785841577280285 9.873574244083038 9.269714327455404
Na 10.542030684028171 8.862287757595707 13.009665146919989
Na 9.352715514636586 4.82746898107675 4.939080314472706
Na 9.588363287045729 7.8252011505771275 10.069475594548551
Na 6.247420216017833 6.251255543391761 10.111825676918373
Na 9.41564536164243 4.538842367625701 8.579557539360554
Na 6.950404923725449 8.646544171031033 12.448912866114407
Na 9.2283759631351 10.45489061351088 7.534326505171801
Na 8.840982767941828 11.280301781133133 10.841275385870258
Na 6.253489282293387 4.1732426280596915 6.7144802047482255
Na 6.0864850021672225 6.636288916251617 4.14456058117648
