13
Energy = -12.12318525 eV
Na 6.861826133396271 7.638946099322669 1.4402391196105173
Na 9.179627375479853 5.219510875257991 2.6345866204569335
Na 4.271572305475612 7.685489387704497 3.7101680029470665
Na 5.842421338055721 4.535270395714044 3.1547143991854725
Na 7.6372204821030865 7.690099589650471 4.800789078195018
Na 8.082327052624091 4.332195021822496 5.888707259569774
Na 4.733191968096922 5.369210353452016 6.459566627712685
Na 5.1652610981886315 8.849255627169791 7.154384761875395
Na 8.017986724686716 7.005513041642442 8.245150877692717
Na 6.531937117910651 3.9269146325020876 9.203818781397183
Na 4.3313587249224055 6.650831401501539 9.793184766336445
Na 6.3193627698500086 9.373274796682662 10.450353599434955
Na 7.531535431893611 6.229117300260216 11.569964628268748
