16
Energy = -14.83713783 eV
Na 11.57781469237981 10.052414614247663 7.065994052733352
Na 12.893385882264926 7.403913907186088 8.566547606870039
Na 8.84357296638842 10.081304372697572 5.15757591006976
Na 9.295161062333452 10.701076760208364 9.513757372814402
Na 10.426402426153256 7.648595128972608 10.841275890417698
Na 9.266103860570473 7.552817873544327 7.551978646598752
Na 6.559386207292196 9.973068350455877 7.707972357432458
Na 5.337668477942995 10.817633021109845 4.463792011185373
Na 11.126059764859464 4.592696212952707 8.294202522163006
Na 7.068981314358106 8.310457938251403 10.732405478335856
Na 6.888986437771629 7.268307507572135 4.970052231853666
Na 3.88356258581592 9.045056785851706 9.802009274044945
Na 8.203720771809879 4.524986517148541 6.421816651375421
Na 3.6900717735292323 8.477456131692518 6.428080260414036
Na 8.214562426940269 5.066149649507012 9.973592420249517
Na 5.761609494927991 6.35196208794864 8.148389232195793
