14
Energy = -13.21102163 eV
Na 11.638383320653618 4.932799448871561 7.311640869953677
Na 11.119874570535835 7.063730886581687 9.835097845526944
Na 9.360485591060854 5.115798409340112 4.836193304420082
Na 9.835789631647224 8.057653738919214 6.551533593168624
Na 8.205995230747886 7.100883092235885 11.74482119293682
Na 8.2504837401446 5.616381927418144 8.421576607216743
Na 8.071028944777344 7.900753887116088 3.3510611437367444
Na 6.0852979396776705 6.647528452240283 5.911494344920096
Na 6.286760931911695 9.815834783253662 12.075032459547348
Na 8.542573185898481 9.548704763376934 9.259212260331104
Na 5.669770704308384 7.623086499069488 9.165441678170614
Na 7.024637519933631 9.968622929237625 6.160187597981725
Na 3.648080030025997 9.272607057777744 6.593696151311055
Na 5.042941276540043 11.004550461805218 9.179008910677917
