13
Energy = -12.14437318 eV
Na 5.679939316914542 4.65308489777206 2.4158630034158306
Na 4.786532559708191 5.181678101628267 5.711803606190032
Na 4.670398008453429 1.9437197562922803 4.518965883448846
Na 7.973539715662015 3.340667528833023 4.777847851931284
Na 7.750224003150189 6.916045377052461 4.35047442177457
Na 6.745971015153347 11.611829996211704 5.932510020121839
Na 5.0220744717044346 8.602047486651632 5.886999524246496
Na 8.543941292085801 9.012007013550475 7.1925621917507465
Na 8.320407053097366 5.546177188088166 7.576145403016367
Na 6.129986124494429 2.7285111204153223 7.736197195191832
Na 5.631497639380046 10.215506712755472 9.017871654036059
Na 5.1685707329394495 6.645199082011754 8.849607417598762
Na 7.9993145985764125 8.025922270057187 10.455548358597147
