14
Energy = -13.0373552 eV
Na 5.492668381326223 7.4299524084246125 10.176866523469801
Na 7.0029423660001555 10.477620387399954 10.786271973178911
Na 9.75520814288263 5.738468260242572 7.855270654763521
Na 7.34100282139179 4.405200686122734 10.255500260048281
Na 8.693716486378237 9.026010085143461 7.918653254377674
Na 10.422155382391868 7.989270653666423 5.018731670268189
Na 7.842778147184291 2.774154794594486 7.162706286786828
Na 8.644715178163167 4.925631459413197 4.479229971709239
Na 5.436190773776868 9.527961351869179 7.252513930000925
Na 9.035282405619787 7.461515474155461 11.05521704020005
Na 7.509461150199475 12.431974576477055 7.96491939027775
Na 6.269126910490181 6.017058963312317 7.107207060886312
Na 8.351754843591403 11.017217541273808 4.916358664562116
Na 6.846987772942782 7.964223178311178 4.315384335294311
