18
Energy = -17.96098952 eV
Na 4.470952908332976 4.981887228293695 3.5031038805492907
Na 7.866480926998902 4.8852349231681265 2.400445145248789
Na 9.80509259959851 7.756673647474335 3.894747498198263
Na 6.3878151316979865 8.089191266960587 2.710549122879134
Na 4.068789742237394 8.186885870562131 5.65849078475573
Na 6.926202785972704 6.272925431354852 5.668317627362173
Na 7.347987384826125 9.873471159380212 5.710998942108743
Na 6.606902477103222 2.7527575356313623 5.3528258628573635
Na 9.849917404881358 4.4884469961336215 5.379891971076538
Na 3.664876242024137 4.653078444120693 6.929808227852803
Na 5.154494131328194 1.8719041057264445 8.437168225724072
Na 8.405174921516187 10.574543983734886 8.988346757161876
Na 7.735872133465083 4.330987475435313 8.491588310194803
Na 4.812537788996129 10.62565740365977 8.090728828034258
Na 9.700893575276199 7.654848583800818 7.441477090150447
Na 2.910709081797718 7.524324692284207 8.887638457121634
Na 6.497929395382768 7.645733317139201 9.10033575174671
Na 4.79963680983977 4.843713376414965 10.365802958252587
