17
Energy = -16.01695007 eV
Na 11.298823971873652 7.127376981705795 7.199288591527382
Na 10.06148744790554 10.667950974965128 7.380975771961773
Na 9.060063077776048 8.396725164356434 4.5672032893874395
Na 12.398577405266012 6.000591779321335 10.444123690406148
Na 6.053141411451178 9.59425404085925 2.981757720067929
Na 10.110641792862918 8.705933041823918 10.400449691520759
Na 8.534776009390804 4.935864541449234 5.91425197434283
Na 6.624000645163957 10.679570549995699 6.305390834984131
Na 5.648559871235233 7.0167747456616665 5.374200419032244
Na 7.875793885658343 7.861743540511048 7.890716459062987
Na 7.211681344086672 10.791680151478294 9.8654022666501
Na 9.133456124261148 5.041618764799211 9.461169115813956
Na 3.371639209300613 9.717185083476858 5.316151053538049
Na 9.71456319950902 6.1202742791962255 12.774032849855068
Na 4.454773155889177 8.597486328462097 8.580322616802817
Na 6.692087110914216 7.330452766605851 11.208709236930279
Na 5.685030295152561 5.0586345825052454 8.403345178779773
