17
Energy = -15.78673677 eV
Na 10.905700240457126 11.602013036256745 6.800434148436623
Na 10.049609012587752 9.505369448476587 9.65727180073517
Na 9.776528102337618 6.342524971991402 8.395041814973533
Na 7.367208627697184 7.478618034482532 10.306967675970053
Na 8.57618766965847 12.713628438011726 8.68694346376537
Na 11.269062876327869 8.436911744441694 6.225663633702449
Na 7.444599777856791 3.9527408630254843 9.692003959894246
Na 11.508742633242013 5.175209323204219 5.502267749387539
Na 8.44154176534318 6.922404313843513 4.65547381447152
Na 7.861962932034497 9.545872913163452 6.935652178921741
Na 8.704165144910396 3.6450508158592 6.528980932313373
Na 6.470361948947253 10.704223998720977 10.09864766721407
Na 4.482022284389928 5.62772574048531 9.919681992551281
Na 6.255888987940403 5.986147243374276 7.0133198741642016
Na 5.4294173895474 8.466919537150343 4.538334876935128
Na 4.546360585517619 8.758492963695454 7.803081344408082
Na 4.175413917300448 8.624558643571556 11.39285077331333
