14
Energy = -13.25765458 eV
Na 4.630807325015312 5.832225296078117 1.8351693908802686
Na 3.919117836145882 3.613502940556684 4.4829534100215405
Na 5.216128162895696 8.878160665813787 3.4774661219978977
Na 2.5492093194022805 6.943777449549678 4.74485616683678
Na 9.84875876600541 5.567899491395061 6.308455771728275
Na 6.406446803711245 5.995435368662049 4.913082013770531
Na 8.385433445407134 8.65824742738391 6.212099772852151
Na 6.860786407528528 3.5064253394261735 7.2931753197461315
Na 4.793958440294107 8.561710980324351 7.07296038041328
Na 10.556349263496982 7.711609199354739 8.835856531341529
Na 3.5880046998890545 5.329930462854808 7.51417962205592
Na 7.033384097392084 6.44774320332099 9.016056601798956
Na 9.594402593762624 4.306956387195225 9.643294417017644
Na 7.623810804539265 9.652973753570029 9.656992445024699
