19
Energy = -19.0973738 eV
Na 5.811053964040585 3.7036056547360015 10.631308999999998
Na 4.4711114286297855 8.757696442296544 5.610122135790579
Na 6.604624576857374 5.890010526388155 5.610122135790579
Na 4.964606443004447 6.639178855136279 8.61737308674501
Na 8.797036647124028 3.130164831362192 5.610122135790579
Na 7.699973301963267 8.732674171337475 7.390240742199205
Na 8.34551935816428 5.245651567531957 2.633024944769569
Na 8.34551935816428 5.245651567531957 8.587219326811587
Na 10.066004659685046 6.682990002484626 5.610122135790579
Na 7.699973301963267 8.732674171337475 3.830003529381953
Na 5.618102701589453 2.8305858307947025 3.859588514579523
Na 4.964606443004447 6.639178855136279 2.6028711848361494
Na 3.209646683728542 4.8800991342880735 5.610122135790579
Na 2.580638446716393 4.036148792773693 2.2955171519760014
Na 5.618102701589453 2.8305858307947025 7.360655757001637
Na 1.7020542019811262 7.437834823829235 3.7615346841236192
Na 1.7020542019811262 7.437834823829235 7.458709587457542
Na 2.580638446716393 4.036148792773693 8.924727119605155
Na 5.811053964040585 3.7036056547360015 0.5889352715811565
