10
Energy = -8.76043723 eV
Na 4.007893128712132 7.043570431719712 6.723996169768576
Na 6.902540193936778 5.648645566823653 7.539959503900355
Na 6.02917253205715 8.668306657665086 9.277230138633657
Na 11.589987874142011 5.541811360766031 8.993758958232707
Na 8.744698347744729 7.0931864745611 10.084391971396977
Na 11.8592836781078 8.746229114726503 9.179595892096913
Na 8.99096161528204 10.189189337136686 8.326777627817407
Na 7.112105656553463 8.770663278718722 5.791657204080575
Na 9.832384741622924 7.186896511009851 6.569438556632791
Na 4.221503214830964 10.257667080381548 6.844892372926919
