10
Energy = -8.72102322 eV
Na 9.779963978064027 6.907945957662453 7.363564929671284
Na 7.6640841583032655 6.6989307367572986 10.065229973508764
Na 7.070163913337597 4.342955293066007 7.342005946595216
Na 9.415597756274819 4.994816652997212 4.678592748452033
Na 9.272140925516581 9.035929189306227 4.872352269365252
Na 6.379493440675755 6.886840671509871 5.2002481690537765
Na 3.639448276307461 4.688785709960297 6.132296281009852
Na 6.882738713304138 9.253357308277794 7.5722029841846785
Na 4.520709062347126 6.646136114866382 8.651863163061714
Na 3.476139262422914 8.759505561709398 6.331247263630266
