14
Energy = -13.25971138 eV
Na 5.551590287423823 6.069023226563692 2.096608930637917
Na 2.748968405580579 5.953757515028684 4.18859574582736
Na 8.630611217540258 6.578529330085104 4.552463564710504
Na 6.2657479996430165 3.9113504281141247 4.54557973990787
Na 5.517618556528115 7.588027207669475 5.6048333348131605
Na 10.903226629626745 6.119325098524736 7.352648993285705
Na 2.374949887832283 8.032974004778914 7.124956557813401
Na 9.706056746636557 3.307063211153723 5.319915086631432
Na 4.096568949013181 4.91653521576296 7.328635943646668
Na 4.78116063585037 10.410335897295342 8.073878794442665
Na 5.6090460787593885 7.4903496881626515 9.475812010929184
Na 8.266670311884566 8.62807462009347 7.3819266860646735
Na 7.594991532812876 5.125746326014839 7.642643362367833
Na 9.052159250984873 6.968274720869071 10.410867739038565
