12
Energy = -11.10236915 eV
Na 4.129693865741829 6.738110386450108 3.5243374134895404
Na 8.183188718537682 6.249943467973491 4.2852618596521665
Na 6.103725642894542 8.515619456197326 5.704798929328119
Na 2.7731220063468722 9.60680435420232 5.320803528216476
Na 5.77008841314401 4.313398514386406 5.794530971673278
Na 8.844119624882582 2.690705444212203 4.32477744945066
Na 3.369639360615787 6.5211522672917415 6.930289661375392
Na 9.184034746799936 4.189684396008037 7.286280414672196
Na 9.015481644810253 7.854571427411852 7.4012044735775815
Na 9.86385618764336 5.733934221452396 10.169199185144869
Na 6.319613440606151 6.1827975148414165 8.761063248226264
Na 4.48626981990075 9.446112021497166 8.540286337117493
