18
Energy = -17.6138924 eV
Na 8.705601428599351 12.234504861898442 7.489515225753659
Na 12.381567018547639 7.573761778521728 6.0683726497632975
Na 11.288953078818816 13.58794109383219 9.784507380444154
Na 9.289482099700555 8.8165615934635 7.277329493688297
Na 12.085457968038126 10.90525273879597 7.368056491487217
Na 10.884313624361209 4.875015806101773 11.325944104213795
Na 8.77740713790225 7.46689850082908 10.867188630728494
Na 6.061554950873176 10.020016552496768 6.279363084537431
Na 12.199337367384848 7.866975875839635 9.515557027679927
Na 13.670045813955808 10.984678771807106 10.656137916581152
Na 10.137166237549193 10.581131613579217 10.568947616929423
Na 5.3376423810444855 7.019914146181504 11.437095087347174
Na 6.513027128540293 6.742890890297808 7.911765242028356
Na 7.4706908259917295 4.345591119376529 10.558496948555588
Na 9.889147329750761 5.421917632508649 7.805241176094778
Na 6.669349966121457 9.977384016265905 9.760769276660737
Na 7.75086540752061 13.244671059625029 10.871191574641125
Na 5.145157812122846 12.710891912669924 8.385883926247761
