12
Energy = -11.19493803 eV
Na 5.862486796905764 7.409212897488066 2.286380590965554
Na 8.233961159968574 9.467061089841033 3.706882899612472
Na 4.995298203167118 8.803584844892496 5.377608188483093
Na 3.974049515922393 5.294859869006022 5.306293818133323
Na 7.46101668433045 6.103506046911654 5.143822221743356
Na 10.561316617491897 7.730164307025083 5.565938199174968
Na 8.611849959778478 5.64857836364377 8.50687333554903
Na 6.201159678605202 3.5092618762177143 7.260986103504739
Na 2.9968248009031804 3.9916946684957817 8.529945236287025
Na 7.833488427136769 9.020908480055715 7.352969123996683
Na 6.069901138360904 4.230877828331268 10.659745546961418
Na 5.214484877247792 6.806127587909904 8.318392595406399
