16
Energy = -14.73878425 eV
Na 9.67788335234532 3.473745550751856 8.91906059259968
Na 12.279298725141231 7.053727330463449 7.332948781574807
Na 10.597183102178466 6.349333924847331 10.227813437760968
Na 8.807830754561019 6.312182721214471 7.0189627925887255
Na 10.374115377112881 9.00763025091313 5.407602385635907
Na 10.055471146926646 9.318981080489353 8.941494453110666
Na 6.914736721001286 2.998699163651383 7.181344163474294
Na 7.99658288261465 8.341797213344057 11.666556766489137
Na 7.624095051799889 11.445080639017354 10.461296222472654
Na 6.914024103876342 5.61371743047533 9.898714841901471
Na 8.351878156792639 11.433176192095743 7.112729306401221
Na 6.996608636208343 8.519576512688879 5.142103210577085
Na 5.297010080256348 5.870510675177778 6.755973674187584
Na 6.343595692176345 8.704062344922425 8.589976827299463
Na 5.11053165908991 11.29429156158174 6.572782009696334
Na 3.360955002920179 8.518821888229308 6.190652378865067
