11
Energy = -6.46373972 eV
Na 5.5429092426933515 5.5429092426933515 8.779725307858968
Na 7.382181272458909 7.322886954096618 6.328388744638148
Na 5.5429092426933515 10.320058 6.668147693017502
Na 3.7036372129277924 7.322886954096618 6.328388744638148
Na 3.7036372129277924 3.762931531290086 6.328388744638148
Na 3.768865906052297 5.5429092426933515 3.2297989712363773
Na 5.5429092426933515 8.693570057039949 3.541413650970201
Na 7.3169525793344095 5.5429092426933515 3.2297989712363773
Na 7.382181272458909 3.762931531290086 6.328388744638148
Na 5.5429092426933515 2.3922484283467553 3.541413650970201
Na 5.5429092426933515 0.7657604853867042 6.668147693017502
