13
Energy = -11.74671538 eV
Na 9.979383995538267 6.074562130995997 7.865892674091814
Na 7.734482334071418 3.5103837663414494 8.413320422795788
Na 8.868842156407103 4.468544529664333 4.955952671397372
Na 6.529792015230081 7.007457413722725 8.26047434366068
Na 8.085542770531385 8.090516760202167 5.350978516712207
Na 6.14816085471497 2.1692574527578987 5.760298486041022
Na 5.584965042371138 5.562921326507881 4.819796231806424
Na 7.860657624756811 6.594869255109851 2.219737079438868
Na 4.256806460355143 4.469056249811904 8.083537716572202
Na 5.531607256042253 10.14409194731618 6.899600409866243
Na 3.4131873165779285 7.5407189471097835 9.787552818098659
Na 3.2269361363402598 7.631588965362996 6.337729779131004
Na 5.16898762229616 8.975346606892273 3.5890177134016965
