18
Energy = -17.40842066 eV
Na 7.8028957039387645 4.691880162402066 9.52511405738134
Na 11.034382504150804 8.435466332834677 12.656250402301195
Na 10.643840284293802 7.286658250104692 9.22959446901927
Na 7.788111816581365 7.6120684954088 11.749777865151476
Na 4.92204104853021 4.377809967334869 7.536121545213773
Na 12.984634080942751 9.732252035055081 10.161739233863708
Na 10.183289071221873 7.595158462260603 5.636686097982304
Na 7.816461910646466 4.913064769622388 5.777760754430364
Na 4.56223911226287 5.649036305167004 4.345168738235889
Na 11.12564167786713 10.511596894362548 7.2036122399552225
Na 7.47085426534616 7.717951881819852 8.00562500940434
Na 4.222019467324132 8.158919522755138 6.947025372805307
Na 9.25835089933094 10.571023234490298 10.214097437988656
Na 4.623872832447242 6.66188902927663 10.210941362156172
Na 6.90149390789804 8.39548329075648 4.4671925359479125
Na 9.540938362400226 10.746537494777453 3.979871184066364
Na 7.663906236130908 11.03934516269289 6.964316333677194
Na 5.771673014477092 10.028659890339235 9.893981372803717
