11
Energy = -9.53793893 eV
Na 11.374003646255591 9.019718253043683 7.572708400846202
Na 10.262991897080568 6.183170251814239 9.533514332733679
Na 10.00438702105204 6.268865018210148 5.854650575596201
Na 8.417215561435187 10.891653075447088 7.196548539938257
Na 7.008407080852367 4.57599004961113 8.168085551137153
Na 7.721515973785104 7.731835241250168 7.679570586473605
Na 9.193786186243758 9.332687947384631 10.443695457497487
Na 6.230154711337147 6.123835806578825 4.924356089476917
Na 5.195201826424843 9.288514014841017 5.828296756413156
Na 5.444341142548296 9.173884433783934 9.517706044683994
Na 4.051135099690482 6.458142854613551 7.787569385716218
