14
Energy = -13.28016683 eV
Na 9.31408370582653 5.118703377015414 4.333125442501164
Na 6.619024453201605 7.225203691253598 3.957086121869267
Na 9.89646612447283 8.470387987798146 3.816057812982368
Na 7.272100552591528 10.564987605496095 4.690837850482625
Na 2.8827259172183477 6.269564435546377 5.149488632132714
Na 5.763632112196823 4.162356550698503 5.597561304991087
Na 2.642254896314662 3.0204857965080976 6.649703604981934
Na 8.752941573632226 9.051827076919471 7.39920926437115
Na 11.29970770404787 6.875544089890193 6.6790950750299745
Na 5.159081236745268 3.5376072426971588 8.984319624299813
Na 5.204910452133841 8.066690461350996 7.056315984132162
Na 8.014709005273504 5.7095945415372364 7.739637993226793
Na 2.594011478825537 6.071905283921673 8.596165387063504
Na 5.5001287724638255 6.770919844311131 10.267173886880139
