14
Energy = -12.77671064 eV
Na 11.138967227635534 9.564934207409292 8.695676089347812
Na 7.707976943796255 11.411534953933996 8.295114180705701
Na 8.30999086242037 8.877933483072324 10.642992334555425
Na 12.10000243691501 7.253074453653224 6.231051475071854
Na 5.546047907885838 8.541348060734476 8.569995365706129
Na 8.791233925856988 8.778822187156766 6.1508815720447405
Na 9.537492367954854 6.245130224389528 8.53604769799064
Na 5.6287500735965095 10.369683575973239 5.558617672531388
Na 6.598266177885351 5.625023726171393 10.324610356014455
Na 6.072279684270765 6.563135892973273 5.663627796360404
Na 7.17482550452038 3.695797300193867 7.490844496310917
Na 9.385672704037592 5.173277386464797 5.140616395878185
Na 3.796763235357467 5.388946452508097 8.178382607149494
Na 2.85981763837198 8.160496860746557 6.222573246696587
