11
Energy = -10.02863306 eV
Na 4.710298915465591 11.384926443210228 7.2398265423058685
Na 7.441777697775321 9.03594069499416 6.10331205352877
Na 8.004938737792246 12.149623352238793 7.839522284523219
Na 10.0543929936905 9.280393437588023 8.469795781605516
Na 4.213878227673166 7.986481139500043 7.384973482638924
Na 10.052513950347826 6.620724333095371 6.214523818694464
Na 6.731093383827139 9.28204564055374 9.635380474267173
Na 7.1653267400872735 6.126119750719575 8.083730694910901
Na 9.096894154935576 6.927255066657848 10.85908645766005
Na 9.970671670698092 4.011424690196547 8.798024336564788
Na 12.266779510276303 6.50669113129784 9.1090959724183
