10
Energy = -8.98541773 eV
Na 5.898255616760161 4.451750238952532 7.291445149047228
Na 9.464866128268136 4.73290522647394 6.414664482255348
Na 7.943811151835316 6.994263302426186 8.571953746986436
Na 8.116985256232043 1.8077586564641432 5.673389073149303
Na 4.451039992484869 7.213713443687144 8.712665684450016
Na 4.705091370961147 7.1879051218031345 5.267502978287995
Na 8.149869636141627 7.757340624953694 4.997465328957491
Na 6.425524495220877 9.915900972573674 7.124488631581023
Na 6.718923850936116 4.748583346284082 3.940784977807244
Na 3.133642581877255 10.197889147098705 7.0136500281956105
