11
Energy = -5.0165938 eV
Na 9.02124495022555 11.50781715876944 7.500946805130443
Na 6.307125842103732 7.027761146792495 6.1441251518116236
Na 4.870040503658173 7.58854438895623 8.918725609103825
Na 8.636021170557036 5.235909705918238 5.632048143060513
Na 6.677310390452271 4.81400770247491 8.536858316896339
Na 7.416045226853892 9.45056810490545 9.17746046773389
Na 9.635836792018251 6.198003462811495 8.278390463143795
Na 9.300341618318324 8.698396220413716 5.954094926422594
Na 6.154008168079818 10.139506259040825 6.35349904104631
Na 7.919668107393996 6.8284756396376975 10.875516026700307
Na 10.554356767381245 9.033295572291241 9.18700665253172
