12
Energy = -11.1000135 eV
Na 5.475604895575502 6.076959419625025 3.4643997411253027
Na 8.707355752855191 5.832265800702502 4.547929344375322
Na 6.4106823643272115 2.942765484535073 4.561631341745798
Na 2.8890398925759575 4.0807109862924245 4.499273895332108
Na 3.1422134815059297 7.49334482997642 5.561997280955487
Na 6.949588867608073 8.391879426702346 6.049817375118433
Na 5.25669586386064 5.284409973420556 7.076259211035206
Na 8.54149074919899 4.288914884020522 7.590869191970649
Na 4.82246340353312 8.885708138129152 8.677587216542594
Na 10.227800730270605 7.6215469174543085 7.547568919648669
Na 8.151056002607813 10.263988508921262 9.014673929324578
Na 7.516622433333198 6.928120067472785 9.498606990077507
