12
Energy = -10.77388102 eV
Na 7.335505504274659 5.586334402345271 8.330403473961983
Na 9.977554740822768 9.899450000192276 10.377312384313267
Na 4.954559017267079 7.27671797611569 6.179791048010195
Na 7.865556034945224 5.860078475310479 4.812214960355013
Na 7.6179920286289535 9.354521785558859 4.91402444326942
Na 9.957848320595838 7.632495394242119 7.092844931688281
Na 9.964185018700121 11.088618413712618 7.10404650600606
Na 5.60265041547355 7.452625012274411 2.708569783193343
Na 10.0263256654604 6.504050764202742 10.470298570870108
Na 6.996136860237807 9.148931103811657 8.41382314252535
Na 4.397890976516663 6.7453509073558875 9.740354458299535
Na 7.094322016099484 7.663267363263538 11.744249133201004
