16
Energy = -15.48099981 eV
Na 6.155898730130833 5.963589765124722 2.813450741876254
Na 5.876451903210717 9.469591817215358 3.2719165579268417
Na 9.124184155943334 7.760505703014536 3.488051366681823
Na 3.391905101150015 7.222386791725971 4.733066839424854
Na 8.75295834253135 4.420008575893466 5.583658573336044
Na 6.760356302731793 7.152053967547497 6.0707760407076785
Na 4.9606967126600665 4.053809752921223 5.77745036800889
Na 4.743442772737928 9.98860138832445 6.594302369005851
Na 10.294871752328744 7.657176971079512 6.847244687898865
Na 8.202003815453084 10.385011741507236 5.95826971733654
Na 7.027588662150406 2.631502280450782 8.208007014264192
Na 3.979259747700893 6.805177380398185 8.345838658514133
Na 7.398687419776366 8.290931772772325 9.22163310171496
Na 9.2061739033065 5.149897927680477 9.114557742404486
Na 3.6013847649167436 3.3800387446242395 8.91207239261021
Na 6.105269208340248 5.250848714788465 10.640837123357397
