17
Energy = -16.23396366 eV
Na 12.56404629824276 10.36308613390127 7.486236937218745
Na 9.568515929992374 10.463414625859594 5.771120689419256
Na 8.210479764204074 7.406256543347202 4.72234260049052
Na 12.667076809427265 8.187783018174102 10.27130875506953
Na 10.748808025664397 7.282717888133462 7.308900056288083
Na 6.571646103295388 10.615066517630387 3.9463701453774886
Na 9.59387183511873 9.949586266333432 9.438512425492268
Na 8.700276477481587 4.333908600134292 7.952390854592246
Na 9.705993566281105 6.483944565593642 10.781613467802401
Na 4.771399413715868 8.298662750070957 5.826556937330682
Na 7.2893169899134955 7.524795631676346 8.170930565134977
Na 6.625943415514388 10.982963691077382 7.6232354078583375
Na 6.1563233052212585 4.816439049739027 5.72251920772744
Na 6.834879663717856 8.713238188088058 11.441494521033874
Na 6.517239015152094 5.029774590383107 10.909066189591613
Na 4.1689992418604795 9.295688978104828 9.388221387728363
Na 4.243774944377823 5.851647900706284 8.521614135105438
