12
Energy = -10.94372019 eV
Na 3.8681190591709265 7.441507958913296 4.830133804353742
Na 3.8681190591709265 3.863285650987136 4.830133804353742
Na 3.0803548627614847 5.652396804950216 7.803639793664152
Na 5.652396804950216 3.2767757499901 7.966697553376674
Na 7.436674550729505 3.863285650987136 4.830133804353742
Na 7.436674550729505 7.441507958913296 4.830133804353742
Na 8.224438747138947 5.652396804950216 7.803639793664152
Na 5.652396804950216 8.02801785991033 7.966697553376674
Na 5.652396804950216 9.072204880894237 2.1575352927267226
Na 5.652396804950216 5.652396804950216 10.561923652659509
Na 5.652396804950216 5.652396804950216 2.0905582625599415
Na 5.652396804950216 2.2325887290061965 2.1575352927267226
