12
Energy = -10.74909825 eV
Na 9.617441773651088 4.67252956787374 7.780208576096447
Na 6.94430603352598 5.616681585190438 10.182472132187819
Na 11.621187936790408 7.764140336597361 7.059391285032907
Na 10.274852226774511 7.128860392507807 10.47739942686982
Na 8.21903375653251 7.873187875988994 7.714236616685596
Na 6.156005789820558 5.276349278876831 6.582723585185453
Na 9.429253994182535 10.31538931951253 5.489822564211705
Na 4.779822406153336 8.096595231877673 8.589586151785047
Na 7.342575479960611 9.169639207979255 10.901878161999658
Na 10.162235381358132 10.538632870054617 9.090350442883828
Na 6.083679923283963 8.711413234954266 5.126527821389344
Na 6.747426206949048 11.127136024350852 7.908639697649209
