10
Energy = -8.6277266 eV
Na 8.253733379924544 9.593873315425478 11.221717928603708
Na 9.787300079248398 8.91713708298833 5.495843968683695
Na 7.228542094285924 9.637800493355822 8.011309899166928
Na 6.327722244869524 9.38792105498838 4.770902876386137
Na 10.768288823815167 9.050695776953859 8.745017323462394
Na 9.592244337982063 6.501273039012863 10.908497297393374
Na 5.151980645708902 6.8138040413877405 6.9528424729626055
Na 7.641641760197613 6.27885394710782 4.494397716938726
Na 8.71277756064682 6.178174246342526 7.679580422966101
Na 6.139759123234691 6.906189445560611 10.20388295204828
