16
Energy = -14.6745815 eV
Na 10.895283634301947 11.464513709934113 7.19399629853681
Na 9.013064194540009 4.9682615134954835 6.580518208566953
Na 6.6967175662762495 5.768252955557394 8.91781313898717
Na 8.097502227293253 10.588019501838158 4.9778690778487755
Na 9.942779947321375 8.18231368715055 7.253580717646729
Na 9.184758276648552 7.203532945820003 4.089026160360809
Na 5.001838708609071 6.953054530357683 11.707843654172292
Na 7.909418288750885 5.326862492717566 12.361182380511341
Na 10.179919768056893 6.181058168710028 9.843545776152942
Na 10.975326198962216 9.765554772264192 10.090474285795302
Na 11.423276035691693 9.689551409738314 4.383958425563759
Na 7.787340133338935 10.889810822645682 8.541805345614822
Na 6.461291504409594 7.614313011417378 6.168032391429492
Na 4.884527928447387 8.965077896871925 9.022584452205512
Na 7.9047275600845 8.754383986642999 11.083093863507683
Na 5.131881992590092 10.792232227324348 6.339676268799372
