10
Energy = -8.78293623 eV
Na 10.01550084438359 7.009868996875189 7.712394168877338
Na 8.0005948588557 6.091072886537104 5.1806249987532365
Na 7.678184341662408 5.014131297191114 8.808733732309472
Na 7.849973413899175 9.363235682107725 7.017883216361918
Na 8.272962232168444 8.300568085582697 10.492457104326212
Na 5.717876014903685 4.070506775695135 6.346921932635389
Na 5.521392686600311 7.424727322056932 8.29496120548175
Na 5.746693338218473 8.400202430740245 4.636161335581676
Na 5.139786304315046 5.272730411222018 2.971460436050485
Na 3.4709816424144515 6.397598011499535 5.931419891414608
