14
Energy = -13.06665345 eV
Na 5.382937099323585 7.8802963916512345 5.382937099323585
Na 2.885577806995935 5.382937099323585 5.382937099323585
Na 3.6068757549044874 7.158998443742678 8.298255168149295
Na 3.6068757549044874 3.6068757549044874 8.298255168149295
Na 3.6068757549044874 7.158998443742678 2.4676190304978713
Na 5.382937099323585 2.885577806995935 5.382937099323585
Na 7.8802963916512345 5.382937099323585 5.382937099323585
Na 7.158998443742678 3.6068757549044874 8.298255168149295
Na 7.158998443742678 3.6068757549044874 2.4676190304978713
Na 3.6068757549044874 3.6068757549044874 2.4676190304978713
Na 7.158998443742678 7.158998443742678 2.4676190304978713
Na 7.158998443742678 7.158998443742678 8.298255168149295
Na 5.382937099323585 5.382937099323585 10.831734
Na 5.382937099323585 5.382937099323585 10.831734
