17
Energy = -15.95497302 eV
Na 7.200691649109046 10.520855033640235 7.607499100350191
Na 6.044773673816574 6.178458984736458 6.306179113223393
Na 8.001686161210625 8.960619589844587 10.599987374080815
Na 6.328279512632686 2.7752500933640425 7.508627176017584
Na 10.877485301910637 7.120354115338575 4.140443480564696
Na 3.2425047327117733 3.3606239489448058 5.944693764154614
Na 8.053286559884633 9.047056478629754 4.560405599967457
Na 4.103874187914166 5.96040544429238 3.5082528190215108
Na 6.338419580553756 3.13677233062632 4.035683648325917
Na 4.788407417088331 8.32895633387297 9.208170562451945
Na 9.756828675022268 7.9216634432469 7.555554486238464
Na 4.006755000045674 4.8352214513077145 9.24473332530154
Na 7.840520649312293 5.972643291547064 2.7395141233881253
Na 9.148309727315509 4.7017223107015305 6.0206890808419224
Na 7.644532025688983 5.74556365241369 9.323978012081646
Na 4.6856067043397305 9.256125297281491 5.5466007603191265
Na 2.451179592988699 6.69084935175703 6.662128725216289
