11
Energy = -9.68230934 eV
Na 10.706258974966966 4.8360953892419625 7.999161199410367
Na 5.5494700443992135 10.486206535612833 8.406474099078133
Na 8.8405911861124 10.846641957972427 9.085109476546924
Na 5.1967319583695195 7.695589439543689 6.5178397286960745
Na 7.912278145796868 7.193221209429525 9.072748491634904
Na 11.170693619777524 8.309842436529603 8.182301021494208
Na 7.97775603170355 5.552073756221973 5.916755941162905
Na 8.329279120502175 9.247788544949037 5.970527868598325
Na 6.83335298420465 9.346848770027353 11.64874340954111
Na 10.997748525843328 6.929737822906761 5.047850156297663
Na 4.519710214820204 7.35739945623826 10.024681522581403
