13
Energy = -11.75755256 eV
Na 7.8002754054160395 3.1926768414877715 5.252302903957977
Na 4.180407346440131 3.5078491536208003 4.460916130304539
Na 6.642564397408809 5.650677571765587 2.7247997307332916
Na 5.391582026248838 6.506659889812406 9.699019705982291
Na 8.600801928241987 4.985224483460674 8.456187806398304
Na 4.201701954912626 8.96411680372402 7.098748738777079
Na 6.042890024405345 6.056963841424353 6.270548221947154
Na 3.507513393057588 7.064954350377649 3.8862537167510935
Na 2.687813382488347 5.5645237463742 7.240095065497617
Na 6.668683259798776 8.976829896181039 4.344430388151056
Na 5.3411985209110755 3.0988790914256974 8.020519138395956
Na 9.374583240069011 6.57483053694897 5.1454148937510285
Na 3.5222866686721503 4.63546712096181 1.040880162697294
