17
Energy = -16.62373587 eV
Na 5.442638295223803 4.091364571215714 3.169990000370176
Na 8.190882509708066 6.432127543099544 3.221960420384767
Na 4.276175562322294 7.342358933121529 4.243963446507902
Na 10.578901774735488 9.035773084333588 4.196952205413513
Na 8.256051430713493 3.5071366563888278 5.365319928051944
Na 7.227429949703964 9.430465431056403 4.770654153175136
Na 2.1889634175834045 4.5634005038607 4.369886834408099
Na 6.617948841232623 6.2972555204106 6.5577152029689785
Na 10.767194792624936 5.900073840211016 5.820356253832368
Na 4.698887896318956 3.3329119030597836 6.621585782879035
Na 5.104489730761369 9.198342736767144 7.708348645530443
Na 2.8454132144052613 6.439606010090724 7.402133349508422
Na 9.223148177768167 8.699424518358274 7.589946983570327
Na 8.962303596658822 5.253308395817314 8.786267059181315
Na 5.3318128493542565 5.002566146324369 9.653629470955288
Na 3.6397557206939246 8.016553740421768 10.60308577454189
Na 7.158369599703005 7.967697824974366 10.428571848232684
