18
Energy = -17.88671857 eV
Na 5.683487659187545 5.683487659187545 9.902068821366553
Na 5.683487659187545 8.600401709726297 1.7511821397416407
Na 9.622817014608872 5.683487659187545 5.307153326894956
Na 5.683487659187545 1.836262974800573 7.581025571992822
Na 8.428923815734814 7.455907501815007 8.184295018956517
Na 7.5756710368740325 8.540109518122245 4.757663635116243
Na 7.5756710368740325 2.8268658002528433 4.757663635116243
Na 3.8350068514747457 5.683487659187545 2.4775433899903643
Na 3.7913042815010605 2.8268658002528433 4.757663635116243
Na 2.9380515026402745 7.455907501815007 8.184295018956517
Na 2.9380515026402745 3.9110678165600827 8.184295018956517
Na 5.683487659187545 9.530712343574518 7.581025571992822
Na 1.7441583037662172 5.683487659187545 5.307153326894956
Na 5.683487659187545 2.7665736086487946 1.7511821397416407
Na 8.428923815734814 3.9110678165600827 8.184295018956517
Na 3.7913042815010605 8.540109518122245 4.757663635116243
Na 7.531968466900344 5.683487659187545 2.4775433899903643
Na 5.683487659187545 5.683487659187545 6.399065319557034
