19
Energy = -19.08271306 eV
Na 10.488243025087787 5.181493456687712 10.1601234010001
Na 11.99044959163302 6.506980825026097 7.140777180056439
Na 9.653053222936139 11.427153195217974 10.253740946578354
Na 7.063541406249712 4.7699569544213585 10.421040655815789
Na 9.116807574772926 3.8641401236915978 6.6243698215781865
Na 11.545547020057343 8.50983782581028 9.960461348477228
Na 8.388206330323449 6.7804311207302375 7.693277944467951
Na 9.980076025864912 7.333916611111796 4.45647244995565
Na 8.365166201108542 7.943630430427002 11.441995127359014
Na 5.380274738926837 4.6894258918383045 7.402715354649677
Na 4.969046603607308 7.57158157321476 9.75232867586134
Na 10.640505550851325 9.933539059646336 6.821246281208185
Na 6.056349142550779 10.855697646237397 11.129449834435313
Na 7.467686285976648 9.662586175231986 8.412762345731064
Na 6.803975677254959 6.012897994423567 4.376679721838367
Na 4.569978917894271 7.885303082642358 6.264837770408387
Na 4.633814660264693 11.12231445434456 7.634953474066556
Na 8.05237237087693 12.61209159891154 7.092391342009156
Na 7.320164486402603 9.660303668627582 4.914043565000535
