14
Energy = -12.74159685 eV
Na 5.696311355125933 5.381721003517527 5.670234377214752
Na 6.205260914493563 8.155045873824722 8.2529859164504
Na 6.205260914493563 8.155045873824722 3.0874828379791044
Na 3.522020006039418 8.28464137707004 5.670234377214752
Na 6.1769220010854715 10.533324671080509 5.670234377214752
Na 2.748508917767556 5.395800170748847 3.7652670086085243
Na 2.748508917767556 5.395800170748847 7.575201745820978
Na 4.728670937508708 2.2592554255100152 7.501141633179408
Na 7.858499865694102 2.590337359556009 5.670234377214752
Na 4.728670937508708 2.2592554255100152 3.8393271212500966
Na 5.719568160432869 4.935875844724848 1.8201354928449995
Na 5.719568160432869 4.935875844724848 9.52033326158451
Na 8.662755221789388 5.550651120082587 3.772598782314759
Na 8.662755221789388 5.550651120082587 7.567869972114748
