15
Energy = -14.34410436 eV
Na 8.334154323271381 9.272811559845866 2.5485398016175007
Na 6.367457157261409 6.17479384016866 1.9227022443035613
Na 9.206230966583542 6.110714105015469 3.9909685954949308
Na 3.387346450808778 5.4723154672142265 3.706421810557293
Na 6.0829967916424 7.96006319442046 4.9073817181775485
Na 9.214962307109952 9.178730769143677 6.016748761790456
Na 6.298842358533872 4.288184133270871 5.141463830525783
Na 2.9321508464830273 3.2084300446445373 6.599003624627021
Na 8.32463678877504 5.893287788663286 7.408492546955508
Na 3.930454031304567 6.473534242916421 7.104857045559487
Na 6.313264259383669 8.501279042039782 8.49385898851888
Na 5.725437539627004 3.9046209779837984 8.750660228681207
Na 9.810812498639514 8.424872252040698 9.484645341464732
Na 4.020165102856383 6.566434675841785 10.53379403054097
Na 7.5696377540531445 6.088477083124157 10.90901060751943
