16
Energy = -15.4833257 eV
Na 6.72829365225202 10.778165565718947 5.423553220464537
Na 8.519633161147407 5.162151886346013 6.661072301346799
Na 6.207617651935583 2.1020797643324682 6.356615724164641
Na 4.006319152802694 8.772343177968152 4.887865336870973
Na 7.813483271905006 3.755953324882787 3.602070850071619
Na 4.059392869590521 10.36176704844816 8.07329137400812
Na 7.287691077527484 7.477295738066065 3.9842260273391363
Na 10.65465017754195 6.107398934265913 3.9521899200641624
Na 2.999400000830708 6.850580247083095 7.982608195629299
Na 9.595913242781503 8.789126856470888 6.175722786740877
Na 6.3594307979886695 7.808478798247541 7.465355440394004
Na 8.548304809187245 2.440791567909584 8.93640619359666
Na 4.978074116971135 5.170685489455562 5.348192956616952
Na 2.886507263412747 3.1776136992312165 7.460302388052081
Na 5.787120336306716 4.600895427162484 8.850577860631573
Na 7.582030258290875 10.658534314883685 8.853811264480834
