13
Energy = -11.32695872 eV
Na 9.396621908488319 6.051175108265281 5.074184299338494
Na 7.049991271262362 7.774366185019829 6.495028251498322
Na 9.76801549308372 5.944686360350393 8.407806196965522
Na 9.116976312915227 9.142418498721405 9.087437064887151
Na 7.193216087934737 6.866086585070907 2.7653709224039833
Na 9.461427414039035 2.8407062161508945 6.839232559430127
Na 6.56174732401562 4.144215332100038 5.880391065265412
Na 3.6537382977278137 9.796558431771091 7.4413426652564105
Na 5.023999593539629 9.255918745079319 4.51992834708921
Na 4.310952073929699 5.933997428710508 4.344246269007494
Na 5.925817365520191 8.517167532018368 9.54600879899814
Na 6.654432962060982 5.106167262552213 9.010253194526213
Na 3.824907834816888 6.348770549969323 7.5185070040031174
