10
Energy = -8.83371047 eV
Na 4.728933214996301 9.834702845450757 7.2362366431956655
Na 5.713515554147941 7.0562135040123 5.499591777209771
Na 6.6212699347870085 4.317056956384445 7.454294414939827
Na 8.287290330372468 9.392752144011466 6.711362967872074
Na 5.111572141580707 6.914819797258934 9.084891412361163
Na 9.117487545136026 6.220061917244814 5.64120891569888
Na 7.083559950217255 9.683978902678879 10.01883844529319
Na 8.721003354317125 6.724694815998977 9.158030200829177
Na 10.559083471966051 10.07693864281507 9.628588117691578
Na 11.766166693871261 7.794449819543334 7.385029887691584
