14
Energy = -12.54328894 eV
Na 10.698305718686033 5.3702257510536295 7.924602812365626
Na 11.039804498014345 6.996078956654519 4.768924701458095
Na 8.009841695887236 5.440259334255524 5.667423009959818
Na 7.442112264995213 4.98115828231784 9.397594451719337
Na 10.730268978761307 8.938927954821942 7.850223272125234
Na 8.369961865870316 9.191157766822265 5.05569563513819
Na 4.953470295436603 4.409516552123268 7.058859148187193
Na 5.209477590295732 7.525078432472441 5.259381181421743
Na 6.379935827482851 7.420669678649989 11.953615871031044
Na 9.749305292922344 7.261709481257291 10.874199529747216
Na 7.736251363184626 9.99158904474652 9.930211818465171
Na 4.972649211622874 7.6241847390190784 8.791813350536753
Na 9.126495640252466 11.965477164924797 7.3606527969028015
Na 5.823805473532203 10.628159343251431 7.045099724599658
