13
Energy = -11.29631967 eV
Na 8.702946991744575 9.524329309807733 4.94449789641913
Na 7.373126623419132 9.370582551075632 9.037100731444937
Na 6.381415832939526 7.468958361913835 6.635117324000441
Na 9.798154173992986 7.393396524577432 7.709088271398192
Na 6.266081358899298 7.408039738516917 11.584758442913747
Na 4.632532269370431 3.875688854738553 5.7352972305181105
Na 3.1717924147278516 6.8885750300857005 5.77489327570987
Na 8.245778562437327 5.244614650690871 9.633692791943613
Na 7.643087892609818 4.336716093650307 6.615094873716871
Na 5.474147265955198 9.032149851780572 3.870076028663747
Na 9.271457426867045 6.265663674159768 4.450079763255929
Na 4.8381218155158345 5.802339903935914 8.931496886555504
Na 6.277559618624606 5.797351258063283 3.2814969949033843
