12
Energy = -11.14448904 eV
Na 5.054905144409678 3.324981849288115 7.302205766038208
Na 7.958526001258479 4.949803880171061 7.112627505549383
Na 5.00327193687552 6.960431504341501 7.129807450545953
Na 7.854774077581654 8.346272777420522 5.4166868725377855
Na 7.958526001258479 4.949803880171061 3.7207462395261883
Na 5.054905144409678 3.324981849288115 3.531167979037363
Na 5.00327193687552 6.960431504341501 3.7035662945296184
Na 7.606571383505577 1.7153017281770144 5.4166868725377855
Na 3.7082603160412204 0.8440878522775859 5.4166868725377855
Na 2.1575000981831574 8.493367670437118 5.4166868725377855
Na 2.6059410609237537 4.816387867338107 5.4166868725377855
Na 5.033789620053073 10.314390107202012 5.4166868725377855
