16
Energy = -10.40523415 eV
Na 7.005024738022244 12.043406466442429 14.287636440311685
Na 5.691325806059452 6.590448152525265 8.319015639855902
Na 8.590325864901068 7.020102099550807 10.0620135745622
Na 8.668498152082886 12.28141231620511 11.245250828160094
Na 6.700488412307211 9.948976096469638 9.281618302627823
Na 10.360283964762214 11.034122605769596 14.003756883828416
Na 10.141325891032226 10.69713909184344 8.457777760415732
Na 13.545696625551793 10.105214447063297 8.735120012454033
Na 11.408419528846526 7.459028546885152 7.943483801724202
Na 12.254175580189246 12.147067494029338 11.27033813905678
Na 7.743968015928425 9.196618614404324 12.53689110419558
Na 11.26396933649875 8.8957652302138 11.323063410990615
Na 10.627853565156299 14.04284217154725 8.96230568019421
Na 8.307286401863413 8.307661811537924 6.598788664474465
Na 5.073323817943116 9.314257676973009 6.30069792667633
Na 8.777366481433837 4.9986335972103095 7.338256881098473
