17
Energy = -16.05452542 eV
Na 5.555678368551203 10.488821 5.4912412662683225
Na 7.332416317369043 3.5514998962741733 5.219728036741905
Na 7.332416317369043 7.559856840828236 5.219728036741905
Na 7.801864569479611 5.555678368551203 8.012099088123227
Na 5.555678368551203 8.339398775145414 8.36618724324767
Na 7.321092742484441 5.555678368551203 2.319671209754455
Na 3.778940419733355 7.559856840828236 5.219728036741905
Na 3.778940419733355 3.5514998962741733 5.219728036741905
Na 3.3094921676227966 5.555678368551203 8.012099088123227
Na 3.7902639946179555 5.555678368551203 2.319671209754455
Na 5.555678368551203 8.734091053822421 2.3129866392241323
Na 5.555678368551203 2.377265683279985 2.3129866392241323
Na 5.555678368551203 2.7719579619569936 8.36618724324767
Na 5.555678368551203 5.555678368551203 10.717179710129859
Na 5.555678368551203 0.622535737102408 5.4912412662683225
Na 1.0394305510842363 5.555678368551203 4.923034757518681
Na 10.071926186018171 5.555678368551203 4.923034757518681
