19
Energy = -18.37482267 eV
Na 12.397970853480576 6.639186217407653 6.567400956062019
Na 11.29332039806063 4.739696761349806 9.509892419972285
Na 8.366489000192136 2.8937837890559694 9.305553341083026
Na 9.502476174004688 8.629750248142948 5.545716563215639
Na 9.11774813732721 5.38275464300205 6.928203195782505
Na 12.634990397666716 9.984757224529158 6.7078165179700004
Na 10.590598711036643 8.207775466207634 9.097262406104615
Na 6.606845061747461 6.329765418563593 4.977793762192799
Na 8.311482895443065 6.170589739960646 10.635051502222966
Na 5.693618652210461 4.810885916293286 8.206989096945032
Na 9.934872188225667 11.398621003314165 8.01972444256182
Na 7.019147195726072 8.143525185005538 7.92246983042893
Na 3.7742276137031356 7.403597511915285 6.923886040635244
Na 4.992224924501476 7.000058095185144 10.845062450792442
Na 6.206764710436651 9.639193603625145 4.864208184567849
Na 7.8705235076199775 9.729672896550444 10.67096374308283
Na 4.489774000822574 10.037713297374875 9.641924753763771
Na 6.696375985092329 11.729422037185198 7.63683844231298
Na 3.4043879381602205 10.841649976342158 6.3973355491171615
