11
Energy = -9.93358291 eV
Na 3.9755327537521183 4.146115019610421 4.762954798162988
Na 4.9818672156104356 7.676820889038748 4.811678125065462
Na 7.4140463632935 5.188755772156612 5.491284921187856
Na 8.46328247332664 8.396709439635263 4.5807817872880685
Na 1.621059646735547 6.4613945483778705 5.675970297080296
Na 10.240544695852995 10.241067969804844 7.052631576863351
Na 10.252693477807723 6.822342336146289 7.281324529023995
Na 5.714551082759149 2.693593403519421 7.299084792814834
Na 6.964975518649938 8.496251022662658 7.671020813736774
Na 4.382146638610026 6.080361790004549 7.84910220304858
Na 7.545807414491567 5.353095089933423 9.080673436618198
