16
Energy = -15.47058846 eV
Na 9.26651373271732 9.613134954360618 12.136742085350123
Na 7.592588650395036 6.515242800196883 11.617816633727376
Na 8.769909685788756 12.55129634123923 10.438740108356525
Na 5.322064320923098 6.146758580063792 9.017719755108631
Na 8.514456350641005 8.29997903242412 8.585826186629738
Na 12.108846914915427 9.146116121444681 7.367879116105247
Na 6.010103334662324 9.783296596999987 10.393664008921341
Na 11.950210047574888 10.825349389211157 10.370121169096407
Na 8.525188758559187 4.474798456842021 8.963170170941215
Na 5.425699195623391 8.744765871753776 6.7182152225241465
Na 11.196071816525357 7.055613333417982 10.28384043272966
Na 7.222260376905076 11.725961782977695 7.484941124898345
Na 10.569840023503442 6.024818869937314 6.609023767649434
Na 10.612239504207794 12.239030638965994 7.343117469567052
Na 7.163987390557387 5.84875634490868 5.918797021153722
Na 9.015471934421056 9.296284005707866 5.350733794753874
