11
Energy = -9.9881441 eV
Na 6.548589374121488 5.744809194656245 3.3509134472803996
Na 7.625493032448754 5.493307241099806 6.463712470257397
Na 3.9997659059371538 5.090737217563606 5.853968890899052
Na 8.554733899538062 8.528156140896114 4.300980792772189
Na 5.3158316161974986 8.44882382814691 5.536852859136397
Na 7.506694074243667 11.468205843132806 5.79040280920204
Na 7.9050566992290765 8.767743749770071 7.950875856800199
Na 6.180993458393142 2.403087808031212 5.350054876626085
Na 4.824541191426193 6.893164628881998 8.63301915286053
Na 5.307978081096528 3.2471070866811464 8.62448112920836
Na 7.85857342693174 5.543108020704002 9.772988474520957
