19
Energy = -18.19223522 eV
Na 8.933176773181744 6.060705537282557 9.761322769695084
Na 11.725668062193714 7.526339696590996 11.29267378490458
Na 12.341096902148138 5.746763742980729 8.646942365684327
Na 5.68735428741708 4.8121864484559715 9.750250798466228
Na 6.127293073961039 8.281116915804429 10.536835474542158
Na 10.028862935061866 6.148547844979257 6.252918347936494
Na 3.406586036835971 7.007257877314389 8.537170420990353
Na 9.129080710078595 9.599779418287142 11.51814424402012
Na 7.374401060322318 4.009141911583801 6.931555361399013
Na 10.798404069292651 8.990616398902329 8.257721881813712
Na 6.861258926413845 7.469724504650519 7.374127120801513
Na 4.418022114031642 5.493235384772464 5.792586964972547
Na 10.348819277655167 12.125180012931411 9.678418316074447
Na 4.268174932766162 10.079796703642863 7.675360208340282
Na 7.328543287228365 6.186126959746085 4.012265680734907
Na 7.50117786073285 10.802414027193704 8.298839824472205
Na 8.760466087110938 9.333841258119714 5.135211482025496
Na 10.295789366261252 12.059171923225032 6.412526514988848
Na 5.224739934760963 8.893631885329501 4.618893076216513
