18
Energy = -17.84039698 eV
Na 8.818087952651911 8.705170756708082 3.2974209093424367
Na 4.710574209235866 4.400745627801834 3.405341353493134
Na 8.22607383006291 5.221239783735 3.8849153030252044
Na 5.290500876561768 8.029685374569363 3.7870366481095252
Na 10.958922166662116 6.729204417351564 5.561273358032659
Na 6.793132566934229 2.434625220436486 5.656225235218256
Na 6.586355558343194 10.937691137394484 5.30870506403564
Na 2.4757642865242904 6.516383613188332 5.39864592013925
Na 7.960880193381833 8.053443799524539 6.522060852813206
Na 5.643747404075516 5.585635429216058 6.503042653437796
Na 3.1943004681464737 5.8842813173356765 9.004321467059295
Na 3.2504437287562578 3.084003031841763 6.562460824197804
Na 10.115555974637774 7.650312979736318 9.159655584026824
Na 8.931343419292057 4.635324339911363 7.766333314865016
Na 4.462266041503968 8.873605977095771 7.467187579584263
Na 5.91133693592311 3.3019496068981016 9.141943262564439
Na 7.270801378567447 10.309302260667021 9.058162139143779
Na 6.617048572505352 6.864530890354469 9.732404094677399
