12
Energy = -10.90160415 eV
Na 5.5488099069965875 10.294653999999998 3.152754700391853
Na 7.360394417765475 3.808175103926919 3.7724130110032834
Na 7.360394417765475 7.289444710066254 3.7724130110032834
Na 7.329866113442343 5.5488099069965875 6.834817898640074
Na 5.5488099069965875 8.959064000386654 6.372277230831385
Na 3.7372253962276982 7.289444710066254 3.7724130110032834
Na 3.7372253962276982 3.808175103926919 3.7724130110032834
Na 3.7677537005508337 5.5488099069965875 6.834817898640074
Na 5.5488099069965875 0.8029658139931782 3.152754700391853
Na 5.5488099069965875 3.6873047287822507 9.388183841031877
Na 5.5488099069965875 2.1385558136065215 6.372277230831385
Na 5.5488099069965875 7.410315085210923 9.388183841031877
