12
Energy = -11.09042332 eV
Na 6.902294797122505 6.547949698181133 1.7541436647930353
Na 4.354484233207944 8.724025717482668 2.850812831263453
Na 7.752384204120818 4.403001169373897 4.307827052562568
Na 4.649435510843328 5.913396661832737 4.907105457573715
Na 7.765704495881248 7.900339946490265 4.884728484969149
Na 4.846038244677293 9.231951209254213 6.232786035961508
Na 9.629585442381188 5.708087896986688 7.060316196800948
Na 3.8816050644232805 6.567649769763013 8.349174895079889
Na 6.451411372728941 4.298267400608134 7.686954996446115
Na 7.222076860672534 7.81321538324371 8.499885050565826
Na 8.818510098160663 4.756508218920509 10.257499109723742
Na 5.739242333422586 6.1483795855055146 11.221538881902216
