18
Energy = -17.02862607 eV
Na 7.5708769829636084 3.9700326553694363 8.010379200609338
Na 3.9030712015012377 4.2869655106257225 7.105855095811229
Na 10.596717551096416 4.900427124425172 9.027596178396072
Na 6.3967963056133375 4.685524607016662 4.807963819959198
Na 5.10899434805445 5.474689769499896 9.999424461968072
Na 11.548726416686817 6.968708468580315 11.461113988790826
Na 9.173530489391629 6.371371668905463 6.162623091673262
Na 8.137622458959147 7.170916019580202 10.019356095878596
Na 5.909327302594452 7.466161698239301 7.185464767015468
Na 10.178872417625342 10.036847243203397 11.17103158933324
Na 4.855082241949593 8.710235850402773 10.379351264905788
Na 6.872413994581447 7.788070877639185 3.810792740690224
Na 7.272924501062693 10.356517476946586 8.849378469647608
Na 5.711306447948155 10.544090951092182 5.40292025009778
Na 10.969706741920774 8.306598161276623 8.255119660813032
Na 9.062416137595275 9.673505517295617 5.776970532516633
Na 10.360256965270555 11.821962093848336 8.273459168855208
Na 7.780562563327237 12.987728195166786 6.506344914576949
