11
Energy = -9.71186945 eV
Na 9.340533937402315 9.883451029377218 7.010433559714144
Na 9.539002003665944 7.041821598431163 9.772579596456012
Na 7.42327022007849 9.845077062442178 10.569522880000545
Na 9.897967122195807 6.362985843719833 6.249176263389469
Na 8.858455953310463 8.548487843700837 3.769757471359717
Na 5.978931810672334 9.902763266407124 5.085552486503622
Na 7.622975123426796 4.558485173357752 8.359933502065745
Na 6.718545948676903 7.9586390239115685 7.829086138646582
Na 6.527448966697505 6.1432753893656 4.9655214663141765
Na 6.210124387411302 6.495435069915032 11.08302131781192
Na 4.217898927102766 5.731059651204156 8.196350278459052
