18
Energy = -17.89761996 eV
Na 6.459520320950487 3.898912953669834 2.667989647964988
Na 5.816136278022743 7.453804538093257 2.4719262561325888
Na 3.7797168813355175 5.466122535861705 4.8819303422449
Na 9.191874327643788 6.714038585499312 3.254078468641336
Na 9.766801825696595 3.5373668185680818 5.057745074548203
Na 3.6862576281383785 9.049527153211503 4.720596675267791
Na 6.0707765445336355 2.332854037504957 5.9846276752561085
Na 7.375722856153314 9.390688390069313 5.062313227158786
Na 7.107942427256512 5.458505703534306 5.522639570913439
Na 9.757751667560381 6.629364588666927 7.260464682537725
Na 4.915590166631373 10.69548481099898 7.683026066810657
Na 5.889402461721754 7.532903162928681 7.465284794929615
Na 8.452548310986856 3.3245938662958165 8.42168078242043
Na 2.573689286186287 7.506201000012851 7.728742271226646
Na 8.132984014118241 9.442021896854163 9.02069017391329
Na 5.097249566535071 4.526867992358493 8.809411379109896
Na 8.054158375351827 6.167989172027726 10.376386242970462
Na 4.870134463014301 7.871010195681608 10.60872406979051
