18
Energy = -17.38697914 eV
Na 3.4772374133994988 7.24235386182068 8.616211435740269
Na 4.654899563402424 10.432118104433412 9.937383427222418
Na 7.5335596083271765 9.80527956538395 12.104905278549804
Na 5.595991450191489 4.620868530985698 10.004930185183404
Na 7.998300113034838 10.930965140485965 8.628843344921323
Na 8.091186878228836 6.192609170029676 12.145165837045312
Na 6.860917819679719 7.801773159400145 9.30023621591361
Na 6.096899648544055 5.810153485415202 6.611633086023027
Na 5.545313927469035 9.319274930510604 6.5277505392114525
Na 8.91031140985055 5.138054201467012 8.689580733215099
Na 10.141172206076995 8.290412844567635 10.012649093108196
Na 8.972983951458513 8.098298414762281 6.605629301081147
Na 7.120419790637449 7.478917002710579 3.5360877932943393
Na 7.913797432483887 10.681849520362386 4.292259372443646
Na 9.081003811483239 4.964099848980199 4.775924537620562
Na 10.520282410067317 11.380266491659059 6.273946476811509
Na 11.735344808140686 5.735059244916724 6.700893932112242
Na 12.419792789702196 8.915791575146416 7.466229708178419
