15
Energy = -13.63440114 eV
Na 7.819219365665139 11.620088536191044 6.996076519270647
Na 10.513150069524647 10.81174894748447 8.927816789009285
Na 10.037022138619564 8.94333348929907 5.936753729892857
Na 12.927804550812771 8.572349640445122 8.191101533501142
Na 7.387934120939126 9.788237699022535 10.0645755671655
Na 6.860423379754734 8.36339696288774 6.3760093325486675
Na 4.717342643950883 10.559597564071103 7.915409040176674
Na 9.975442190865602 7.541438068108308 10.088019552651232
Na 7.452867327401396 6.564423778026183 11.965413826569765
Na 8.627209553517416 5.73543419222014 5.007212486716646
Na 11.172737965252297 5.8415989732356 7.264825049525529
Na 3.3256092890268625 7.80746073652193 6.590124694189978
Na 8.004701331913568 5.204582087966434 8.527522878253965
Na 5.450584731752023 5.249641281826948 6.1239418087803035
Na 5.342996832903504 7.137500978314868 9.429744809682042
