15
Energy = -13.82732772 eV
Na 9.653992406796426 10.338842123555363 8.135574659172697
Na 10.915651887063188 7.118000605335976 8.46024253202731
Na 8.146274668885091 2.037913600035958 7.490492389879485
Na 7.294551753964489 12.560457084302241 7.099042647936845
Na 8.30491642061711 8.31963919834131 10.879207324502476
Na 8.23409122122757 4.866970385973674 9.622703965466103
Na 9.935819486475904 8.399245538992222 5.004569482288826
Na 7.50457409089305 7.563772020996454 7.483676307160871
Na 6.592479572138838 9.970958694605892 5.006187100793287
Na 5.667010807511668 10.143092776365036 8.978338436646933
Na 9.293399395219367 4.945109197017931 6.041355441226915
Na 5.063491209282793 6.76948805270163 9.967025598249773
Na 6.685128375255462 6.60955936528625 4.1367930909946
Na 4.066637389190596 7.81382647208823 6.550881816779839
Na 5.71266687308151 4.568992705500721 7.050294978540663
