15
Energy = -14.28738753 eV
Na 7.532837550149095 5.963148257791707 3.7207398607329485
Na 5.936076541884783 9.184033558488686 2.8646955134165606
Na 9.165193634706412 3.151031542582645 5.37199568831187
Na 5.453033706141659 11.047186981683797 5.906891309549476
Na 10.943364322443353 6.2952602044211465 4.522367559372456
Na 5.250581112258495 7.440951224995336 5.833557663312049
Na 5.60963751754996 3.915999776599902 6.0095408970592334
Na 8.66685245995991 9.103489870699836 5.1289070905572505
Na 2.59362699415737 5.550618988454035 7.5488155427317265
Na 4.042449766411929 2.6891083781459897 8.981845672061338
Na 8.478630082947381 6.106210563196788 7.135373721119502
Na 3.4352916995603957 9.046308328543658 8.272235196539981
Na 7.640475458881618 2.9450298377857718 8.714374398339892
Na 7.136492519774631 9.138459951380254 8.313238722427236
Na 5.611684148295808 5.919390050353559 9.171648679591728
