17
Energy = -16.21110953 eV
Na 8.861027536990417 3.942975624185252 8.118667401069787
Na 3.9779248764661004 8.774416809349898 5.176036289684134
Na 8.437440110015476 7.26477777256785 2.2143091229225167
Na 9.017109618547 7.622266194300855 8.169686166008821
Na 5.738327270052413 2.6428811964593995 2.1820979722679885
Na 2.4595449215578253 7.622266194300855 8.169686166008821
Na 5.738327270052413 5.739036814176992 7.228396048289606
Na 7.516876115580335 2.716848071647845 5.146907670612631
Na 2.6156270031144118 3.942975624185252 8.118667401069787
Na 5.738327270052413 2.0037536707359025 8.15833716191214
Na 5.738327270052413 5.738969978024066 3.8343360111810028
Na 5.738327270052413 9.311432130631077 8.142561514765847
Na 3.0392144300893498 7.26477777256785 2.2143091229225167
Na 3.959778424524491 2.716848071647845 5.146907670612631
Na 2.162505599193853 5.736460302918959 5.17731054001639
Na 9.314148940910966 5.736460302918959 5.17731054001639
Na 7.498729663638731 8.774416809349898 5.176036289684134
