10
Energy = -8.83310381 eV
Na 8.688557374270149 10.653954088819916 4.2541194102239
Na 8.031616067500847 7.411690014210757 5.214139550614205
Na 6.927543836184183 10.085070531542204 7.138482602481971
Na 7.048166056482224 4.3210102734615115 6.184961465099336
Na 10.322987070609603 9.141880643816961 7.202399504289501
Na 9.453105552784999 5.8823827401861335 8.161207786398561
Na 6.002729420585757 6.7672481912732865 8.349032167840253
Na 8.480011441815623 8.499455143971641 10.123859852271718
Na 5.179264282354507 9.67672185572204 9.987570888343331
Na 7.513919836905288 5.208487456488474 11.03212771193041
