19
Energy = -19.03007141 eV
Na 6.039527129083544 9.249845621821137 3.5791913458785554
Na 7.103460955041534 5.9143049944185915 3.6921327496379828
Na 9.494379497684132 8.302696096644507 3.7729573430515284
Na 4.251150091562785 6.8364855841120615 5.853586437649594
Na 4.5292479068048515 10.364069534566342 6.573132443341997
Na 8.028124842558706 10.726723004135476 6.02081387774368
Na 6.300624347575153 3.7348665368897382 6.202049278345978
Na 9.650132308665414 5.05308941360795 6.091987124184748
Na 7.272244663104907 7.330323731557423 7.462816253015665
Na 10.803061976932417 8.368301057852852 6.944317512862954
Na 10.107736776277724 6.0716173148818315 9.568827581432203
Na 12.419577333513097 8.741709334505167 10.001162528643835
Na 3.772185111026417 8.126165290846817 9.2398315651351
Na 4.369178552819003 4.696171477760962 8.991359808685733
Na 6.553380065806899 10.286124320989114 9.51129824661111
Na 9.945832519373916 11.150936309960176 8.90096728575395
Na 7.735013405820698 3.6091058598945316 9.28144448206862
Na 9.131955287710147 8.879541912343797 11.389925113403446
Na 6.545177085401253 6.6099124599736845 10.974188879315745
