13
Energy = -11.65104665 eV
Na 6.799614223190091 10.684282902288066 5.9353785693393215
Na 10.005338512773148 10.020867807871328 7.107220268639416
Na 4.738987349840812 8.08266009980427 4.913075737057035
Na 13.192563002381219 8.837850818583219 8.041022512068004
Na 7.975797087769162 7.306187229275254 5.580401201452991
Na 4.1743273951888415 9.353975432900501 8.04989728979305
Na 10.291611044212141 7.6451478892562115 9.641443442427441
Na 7.334732341961732 8.884766644591705 8.935678806882493
Na 5.577969951225741 6.084573136854966 7.688004459175605
Na 4.5634580346640465 7.522525530863481 10.824926158950792
Na 11.252110989623661 6.693484501100239 6.269939190702107
Na 8.885490265942423 4.8535865743746065 7.866432254949965
Na 7.391835421133776 5.729479601246462 10.761692123373333
