17
Energy = -16.44688095 eV
Na 12.849648275349363 9.233159672468705 8.250980469085226
Na 10.536409989909627 7.901096722340383 5.884531227393608
Na 10.959073334585941 6.278058268914826 8.960788383487085
Na 10.479568017417025 6.410196480876119 12.358796157829373
Na 8.779175495631058 4.797510926042081 6.4782123172794535
Na 7.049578618838604 7.73491200227525 4.8147525362617065
Na 10.154288869935769 9.421484319945613 10.540427466499693
Na 9.490452363032812 10.570677230564339 3.9958018068287857
Na 9.83813871377482 11.011821243264409 7.504915238071354
Na 5.372808248561239 5.408129169095477 7.19980694056617
Na 7.699442674435707 5.087190803757235 10.112232103998487
Na 6.680888387861566 11.020718183707178 6.124678928381037
Na 7.345950263969958 8.086494866245058 12.039373254736038
Na 6.581623538951463 10.796210256209497 9.744983087494646
Na 7.73761504339532 7.9912231720689 8.216473115451917
Na 4.6302316505304235 7.1707720846783465 10.160477573452425
Na 4.264289102988013 8.765392517877082 7.044070057819627
