17
Energy = -16.59817627 eV
Na 6.883993452926714 8.91845795711998 4.08433593475192
Na 7.39608523152862 5.206498279025047 4.033501886936545
Na 10.068713399152902 7.415236009463224 9.141333915913494
Na 3.5443682408736232 10.005659615712434 3.6878646678592752
Na 4.573582215956646 3.2485984085128723 3.8493937968366687
Na 6.846635614196564 8.86544671422201 9.879962760451122
Na 4.131968120726766 6.67094293212088 4.655360214240536
Na 7.630875940176498 1.8018478276946963 5.171640041360967
Na 2.3153828369876646 4.15822991386146 6.48177028946462
Na 4.863671693686748 9.846879075447022 6.899432729246912
Na 9.373058831222538 4.20385891922284 7.203562797210696
Na 8.522865087768496 10.309615643509229 7.026849342858296
Na 10.128255346278547 7.481618066529955 5.543933542654092
Na 5.645328460293092 3.544343028079879 7.344882410628276
Na 4.030921054603013 6.583794438921545 8.426265509970849
Na 7.122977279094778 6.991744853310862 7.031662437188763
Na 7.4406561447842225 5.266567267503351 10.057586672683339
