16
Energy = -15.47489982 eV
Na 12.203564551998076 7.315657642531228 6.29902546943893
Na 12.267981953210745 9.805848738852534 8.990495284176065
Na 9.982227621066235 8.388464753741102 3.5774718861035137
Na 6.668142949352046 8.694879484286398 4.872177139941911
Na 9.70747844021465 9.927727388093684 6.658142487944915
Na 10.449188271681994 6.755409234019391 9.259413059668107
Na 9.046014285870669 5.900519005215562 5.941781749175687
Na 8.963847505790786 10.114369621659627 10.305795527524195
Na 7.085543259215235 7.838592124217667 8.313213460333065
Na 3.7941082992669597 8.743442199777716 7.4155535820089895
Na 6.444970527508118 11.133707035366488 7.695550566623871
Na 5.251823593329948 5.577818896980018 6.33147819979859
Na 7.527227049107238 6.987248689341012 11.718893864428722
Na 7.601034767477635 4.559045538590333 8.981857395416403
Na 4.437854462352606 6.048673746452392 9.90624215307044
Na 5.1801635651163975 9.597789190077773 10.692138743480768
