19
Energy = -18.60793128 eV
Na 5.444698952452401 3.340484434477596 1.465598600211925
Na 3.622413587216445 6.4968872417770696 1.4656535815915093
Na 7.266984317688356 6.4968872417770696 1.4656535815915093
Na 5.444698952452401 7.733227186873516 4.2915663505103385
Na 3.4635033168177 4.300189330509855 4.292543599916195
Na 7.425894588087099 4.300189330509855 4.292543599916195
Na 5.444698952452401 1.2627200073215554 4.325384145202526
Na 1.8235302976618417 7.5363672224985265 4.32346349904533
Na 9.065867607242955 7.5363672224985265 4.32346349904533
Na 5.444698952452401 5.443510199280533 7.416274397840338
Na 7.301539424862048 2.34431756500454 7.321149780889
Na 3.5878584800427493 2.34431756500454 7.321149780889
Na 9.057278328434585 5.385223357311579 7.321662639153741
Na 1.8321195764702143 5.385223357311579 7.321662639153741
Na 7.201685194462382 8.603485041971565 7.321332979076953
Na 3.687712710442417 8.603485041971565 7.321332979076953
Na 5.444698952452401 9.886258082194328 7.285682556225778
Na 10.697589999999998 8.477961256237565 7.286580692707525
Na 0.19180790490480013 8.477961256237565 7.286580692707525
