17
Energy = -16.04642377 eV
Na 9.864681516757381 6.742895069719841 4.972447547407479
Na 10.065872957529745 5.429790689723213 8.068939676679898
Na 9.628708010192229 10.06532649209419 4.270428750568344
Na 11.14027455751297 8.811707050248609 7.646870839128566
Na 7.375196842838636 3.737200064155025 9.3924324749003
Na 6.873131625306038 5.480070697380011 6.344601720193409
Na 6.7270255806582355 8.074068773872456 3.8716611272960124
Na 8.463660987593283 12.321634387643453 6.44862137392307
Na 7.842677300514929 8.667910477838062 7.109994066658189
Na 4.416661874418064 7.9887995451783365 6.62270947586154
Na 10.120402974969005 4.741493632728191 11.421646325938793
Na 5.372128005149993 6.53267795773857 9.494426770707305
Na 6.815185706413398 5.5251157754686036 12.431721534278779
Na 5.551928702487882 10.991600710384407 5.493370068580732
Na 8.670943489397976 7.834641786414617 10.479134693684239
Na 9.116560533916475 11.01546029485882 9.497310568440408
Na 5.725343718877471 10.08462389455381 9.280659117052894
