12
Energy = -11.06031044 eV
Na 4.563642772478161 6.267633928600977 4.660996853255917
Na 2.636295603184736 7.681638808461612 6.994542487757727
Na 5.880266307365421 9.337160783359945 6.511122202620091
Na 7.839633401899787 6.580685699630946 5.7038168736798935
Na 3.9238599120431754 8.98185666018634 9.788799549759101
Na 5.60477891874466 5.926304935797051 8.294693686723834
Na 9.592952970813407 9.294262838548926 7.010151831666748
Na 9.311932367904097 5.875149543892239 8.773228554780516
Na 11.270298458066398 6.213549698829359 5.52444567495392
Na 7.357237699925435 8.641743361022753 9.581542496311943
Na 10.620974169997027 8.876206063004355 10.675984755122863
Na 12.558778012931246 7.548126315569348 8.301777100632181
