18
Energy = -17.47517194 eV
Na 9.612957647584695 11.231892351133084 10.457694553942627
Na 5.573116675118869 7.9637044063676035 7.478219877098561
Na 6.635715089368813 12.717507734880538 9.673266970749122
Na 12.723389913678716 10.226042294050776 11.275756365417953
Na 9.724975093088936 8.26930346785477 12.186159750930452
Na 6.981809614709242 6.2380391437087 12.443311887940027
Na 10.592239590906729 4.852379555939331 7.611129086730281
Na 9.459251468885588 12.614740001847908 7.310510705762019
Na 12.094915309107316 13.42374326769133 9.61577275650459
Na 12.23018957400732 10.550100385528506 7.764431029818425
Na 6.63989612321622 9.316183256929127 10.598124656571274
Na 8.021602434549512 6.400917802504255 9.21885351322456
Na 3.895679418423443 10.663080584101719 8.94698541948542
Na 11.630684285904293 7.517088638110572 9.435518151622073
Na 12.234864959800968 7.554102946114148 6.046151893885642
Na 9.124114144036865 8.891537855285453 6.989831009604453
Na 10.205038195872215 4.886021631054903 11.323021650994406
Na 6.447582723703584 11.135768305885904 6.628236885449299
