15
Energy = -13.83091648 eV
Na 4.6079852311461575 6.891681295197403 8.587851023893256
Na 7.793984258942843 7.511789886334539 7.420994104745838
Na 9.58010397948499 4.874769349068179 5.847754478579289
Na 5.4200599920113 10.127247749339354 7.451286672116637
Na 6.757929867822981 9.02940963703819 10.426487968848834
Na 5.207257937089066 7.333885177129183 5.196038533183652
Na 9.595947483684375 7.559526072081826 12.40217059476292
Na 9.890703613786954 9.703760619224207 9.229611844121289
Na 7.4982397276308905 12.54692725824461 9.280568498286963
Na 8.276475037896152 7.8423469422915595 4.047107652416009
Na 10.518466043539282 6.202081735256633 9.052802046948186
Na 10.960067402360897 8.171348542468232 6.199457291022481
Na 6.390812216272702 4.283320788439263 6.901396868695277
Na 8.551260262468066 10.721281203497243 6.219272851698355
Na 7.373839475841865 5.507692490753497 10.170733909750865
