13
Energy = -11.73797197 eV
Na 10.622750789952287 8.331892708154221 5.769623322190271
Na 9.026971855959317 8.677269671149253 9.037078906866993
Na 10.011144454859885 5.580947291186226 3.6528082108688915
Na 7.271767316965895 5.8252484481023545 10.135394663081694
Na 8.52969728553897 5.649129676864157 6.917541573282759
Na 8.022358350630372 10.61506227994919 6.293245130022832
Na 6.645722968796728 4.173440326827153 4.126275027936803
Na 5.108395143983376 4.39615249840925 7.586390433306532
Na 3.8566528458756313 6.248635125463749 10.523335103273526
Na 7.364518215539694 7.766398022929503 4.39957079119522
Na 5.707032256677842 7.9551693801406245 7.681484277789032
Na 4.123019071932847 6.416748879519333 4.8493979348025835
Na 2.1549468168104604 6.787811223560144 7.672915732880425
