18
Energy = -17.63975253 eV
Na 8.008661196131662 10.565550574748741 5.943708905334652
Na 7.976118038872964 8.88937433648136 9.224433535422229
Na 7.773547758819958 3.622009270102802 6.969467995112741
Na 8.280637536465342 10.780308787714022 11.909309503808762
Na 4.943935175751382 5.534854966401783 5.763573476218111
Na 13.476165779335298 9.993529160106016 8.392333355312372
Na 11.114755984395238 8.608682866293575 10.697767411608224
Na 6.3938825598088265 11.89486011622722 8.933499479768608
Na 5.905245880256653 5.864719757282954 9.37249430082425
Na 4.914772501997689 8.957143598983908 7.234105082005938
Na 6.641118725322617 8.059981863383483 3.726487051556277
Na 9.85542850726794 5.73063573128226 4.534198834895281
Na 7.996113942910749 7.106072197172099 12.13352210456752
Na 9.72979216170952 5.622219133224072 9.202365309525268
Na 10.952153242447421 8.351599307454821 6.856836306410544
Na 7.774595398850278 6.998712812696691 6.617272131828996
Na 10.175766603815184 11.520192091356925 8.69602882578857
Na 4.979440439477006 9.086633622895496 10.971189975337836
