18
Energy = -16.97184333 eV
Na 10.423620266425347 4.542461326801718 7.276715484837027
Na 9.724427022153982 6.116295666370007 4.248305234514912
Na 6.988509478576005 5.086227421404198 5.941742781746428
Na 10.393347857509209 6.541544676658116 10.748536436194328
Na 7.073105802000378 8.456812171089533 4.626302156271935
Na 12.36623607104334 7.590153054055982 8.257750904811695
Na 7.630205563053832 4.7901830154509835 9.364180584483309
Na 11.608483655862921 8.732587308656166 5.2601664310359215
Na 8.85510385734256 7.614100524154665 7.438042364105837
Na 9.9521784022625 10.135105394496144 9.371095940724718
Na 5.008392786450645 7.212758251938269 7.735339311759075
Na 9.34265988080091 11.024543756013784 5.917850723508499
Na 7.307940753310144 8.231110866971516 10.599259867514625
Na 3.8922906356536044 9.340952447885977 5.071401936386874
Na 4.73979735598863 5.44636557767629 10.85300880168013
Na 3.9512192079103143 8.63928134553211 10.79639394712785
Na 6.62995648203746 10.386760610060916 7.829280356713686
Na 3.220404985419454 10.398754068378926 8.104501001164788
