18
Energy = -17.06252216 eV
Na 11.02016999543105 5.11887432493571 2.39311408065321
Na 5.311379418816892 7.3050260905134765 9.7131150355844
Na 6.131730894798279 7.256841114501574 6.272323638293161
Na 6.656468848979633 10.149382835300896 8.308603546572806
Na 9.290369334521541 9.104986436962573 6.139499653024325
Na 14.558510137502124 7.821309747602038 9.065028717007463
Na 11.810122586596856 7.898324048555125 4.130452499262329
Na 11.361102945870472 8.410249883390533 10.101583659810753
Na 7.535243852539996 12.52121246038154 10.768875895476645
Na 12.644576788436034 9.790251885617563 6.975231096142168
Na 7.489552170511596 11.199487868597723 13.937214815086724
Na 9.971827831111012 11.333299055280419 8.672947094842291
Na 8.60083174776842 6.697106799161983 8.641600941175616
Na 8.129325529618114 8.874051759308283 11.385315595516833
Na 10.567869904168086 11.17928258502727 12.178193323909275
Na 5.009670043283839 10.299082697222447 11.510703114297593
Na 11.879455282945646 6.374978620971658 7.329835551048713
Na 9.15454147365493 5.752866086874714 5.182271324165648
