17
Energy = -16.27397398 eV
Na 11.186751407063273 9.40296551348694 10.611337876384255
Na 12.384447138921844 7.972223609912492 7.673806709962284
Na 11.051314976178578 4.922104566751033 6.414787290786704
Na 8.91863963361618 7.070901975592908 8.381718421877169
Na 9.464940864402045 10.55352575877707 7.758935603116
Na 10.159310758637957 8.331076183501688 5.033777695183071
Na 8.533611415594354 7.63995271909403 11.903627247213754
Na 8.140879319307684 3.6559934130174576 8.013563177809626
Na 6.878341636650992 9.098169919153639 5.981503536466448
Na 8.138309378038738 11.246640935670555 11.0130697061335
Na 6.358679104843309 5.229083161310906 10.707800786133035
Na 6.031913845153468 11.875122410882101 8.07911049346517
Na 7.783361203849214 5.6362721489723615 5.0366895589997265
Na 5.249105051231292 6.097429002396049 7.4748162590854195
Na 5.949914642246305 8.750462347216304 9.647247735447904
Na 3.553139296449953 9.343968482327641 7.008926933642045
Na 4.625989581892571 7.256848636976424 4.197810855728175
