19
Energy = -18.84807246 eV
Na 8.444014223500417 5.283460345081369 8.362340311414023
Na 8.444014223500417 5.283460345081369 2.2045803787487093
Na 5.283361312297366 5.283460345081369 3.6240899008431327
Na 4.294197648543984 2.238968611844317 5.283460345081369
Na 6.260102491915133 2.278076916009712 2.2044225332590455
Na 6.260102491915133 8.288843774153026 8.362498156903687
Na 5.283280042254422 5.283460345081369 10.362896399999999
Na 7.874094955752226 7.164649095774435 5.283460345081369
Na 5.283361312297366 5.283460345081369 6.942830789319601
Na 6.260102491915133 2.278076916009712 8.362498156903687
Na 7.874094955752226 3.4022715943882953 5.283460345081369
Na 2.081724290222898 5.283460345081369 5.283460345081369
Na 4.294197648543984 8.327952078318418 5.283460345081369
Na 2.726428983491393 3.4267436413863943 8.362772903285759
Na 2.726428983491393 7.14017704877634 8.362772903285759
Na 6.260102491915133 8.288843774153026 2.2044225332590455
Na 5.283280042254422 5.283460345081369 0.2040242901627362
Na 2.726428983491393 7.14017704877634 2.2041477868769754
Na 2.726428983491393 3.4267436413863943 2.2041477868769754
