12
Energy = -10.81411949 eV
Na 7.902405137166338 9.943628889019074 4.6246620516955455
Na 9.07442089773159 11.292289033392352 7.459605007518544
Na 5.49806660957432 7.39272734670885 4.996634213276486
Na 11.725553882974015 9.108084055796803 7.261411652241508
Na 8.650602316133304 6.957500475186808 6.712124551997709
Na 6.034211320222141 9.47657518511437 7.671640486297726
Na 9.004894153706228 8.480205993283612 9.711930096084668
Na 3.0545567433410357 7.268071193804404 7.595946835401958
Na 5.799370483258721 4.924459409562011 7.426300652787477
Na 5.769547878263928 7.046065138687601 10.031969585190101
Na 11.686281419484395 6.168309878315887 8.99431086502861
Na 8.511008342986294 4.800353658189956 9.805423507577428
