15
Energy = -13.91276622 eV
Na 5.519666091819348 5.519666091819348 5.519666091819348
Na 3.5172713096732573 3.5172713096732573 7.5220608739654375
Na 3.5172713096732573 3.5172713096732573 3.5172713096732573
Na 7.5220608739654375 3.5172713096732573 3.5172713096732573
Na 7.5220608739654375 3.5172713096732573 7.5220608739654375
Na 7.5220608739654375 7.5220608739654375 7.5220608739654375
Na 3.5172713096732573 7.5220608739654375 7.5220608739654375
Na 3.5172713096732573 7.5220608739654375 3.5172713096732573
Na 7.5220608739654375 7.5220608739654375 3.5172713096732573
Na 5.519666091819348 5.519666091819348 9.66740676
Na 1.371925423638696 5.519666091819348 5.519666091819348
Na 5.519666091819348 5.519666091819348 1.371925423638696
Na 9.66740676 5.519666091819348 5.519666091819348
Na 5.519666091819348 1.371925423638696 5.519666091819348
Na 5.519666091819348 9.66740676 5.519666091819348
