16
Energy = -14.8860062 eV
Na 6.563985761561269 4.065333289056026 5.675778542426013
Na 11.30672338099167 8.085608207289349 11.716637060616502
Na 8.997644244123439 6.454780660083442 5.510438972280927
Na 10.44674676815396 6.884413936798081 8.664892362446128
Na 8.802026631432382 5.430145770236766 11.333519013682526
Na 13.219110343758222 11.729778683513358 7.290877574126816
Na 4.01484804011757 11.91698168077254 10.542870380112603
Na 4.981407555425572 9.261742619621682 8.679263436073253
Na 5.4839927483758 7.363030844458822 5.712341134898409
Na 7.269220791354733 11.87821663329026 9.603246972792077
Na 10.590966383723435 10.676352815142245 9.28218413073147
Na 8.057920909423801 9.426872121174457 7.12052674963422
Na 6.941467572730831 6.109090239035044 8.503647265930569
Na 11.436076692909662 9.047646801313178 6.135032818976861
Na 13.467817183331322 8.762285027618127 9.020153471749165
Na 7.948903441051109 8.704909300513854 10.691207472740842
