10
Energy = -9.07627854 eV
Na 8.666919095183676 7.08884041690373 11.527190208316394
Na 9.653494229403153 9.36106524135499 8.925780758142814
Na 6.315240058550227 8.382135679551899 9.300328463489327
Na 10.08147386424399 11.343637491222982 5.66168260096502
Na 7.166895267550333 11.488512436699793 7.7297718606224795
Na 11.026838631878512 7.923393252816193 6.064306283031379
Na 7.596575085241451 8.478844269415271 6.050843497614372
Na 8.870599259797775 6.034485353946661 8.213498779853644
Na 6.1181119482583215 4.789713677192382 10.552092355324525
Na 5.565488788022153 5.754697081883201 7.147770652101805
