17
Energy = -16.11342343 eV
Na 9.52262771113767 6.292599187068886 5.586582124263321
Na 8.765043616541913 3.320048820963264 3.759206328348255
Na 8.765043616541913 3.320048820963264 7.413957920178387
Na 5.768583593088754 2.4685792289749044 5.586582124263321
Na 7.0000013004661295 6.353755333290388 3.0309213326096414
Na 7.0000013004661295 6.353755333290388 8.142242915917
Na 7.4263377324245745 8.985720135088549 5.586582124263321
Na 5.7576768774780005 3.002307574452318 2.067325332124882
Na 5.7576768774780005 3.002307574452318 9.105838916401764
Na 2.9974992249746153 5.847754351037553 5.586582124263321
Na 4.357144129121141 8.721980391714297 7.454356248118545
Na 4.357144129121141 8.721980391714297 3.7188080004080977
Na 3.5417830951383316 5.773716929314917 9.077158904465037
Na 3.5417830951383316 5.773716929314917 2.0960053440616053
Na 2.6605260910397566 2.7256751906549646 7.367923988944851
Na 2.6605260910397566 2.7256751906549646 3.805240259581791
Na 5.092497380357608 11.582274980448263 5.586582124263321
