12
Energy = -10.87781256 eV
Na 5.608542819166732 2.7542393565193923 3.237653170819664
Na 2.384971151365641 2.383922170433536 4.535154705515477
Na 6.715305734135624 5.133710742706767 8.751895781524802
Na 2.680032885098418 1.7846600589902528 1.0907538443596416
Na 3.115334882930578 5.024932618740926 1.99669400352234
Na 5.472850371035561 2.180550003490673 6.86821562325293
Na 8.04946863029742 4.41679433122145 5.600643600147863
Na 0.8381110567480754 5.459227211872355 4.655651276541286
Na 6.808380619169199 7.684360938797535 6.3774730109857245
Na 3.6394772924641257 7.857205179435515 4.060604080047118
Na 6.557903670392008 6.126779765980839 3.0256606021919192
Na 4.323374818004289 5.1374588630570095 5.9061110815895415
