19
Energy = -18.55765041 eV
Na 8.911151829156763 7.947939473222966 4.239789452453228
Na 5.777464701689605 7.705188979936898 5.325969431332043
Na 7.795911477424472 10.875912336063676 5.302699781368354
Na 10.927368453867066 10.201031696315054 6.105297958562508
Na 5.479038939248393 4.293496148701235 4.77652920939313
Na 3.002015528220427 5.727091530362351 5.911178800014418
Na 11.464671065078095 6.983426357162481 6.08952210937515
Na 8.532795230673619 5.001619085205969 6.459016937947101
Na 5.535505629116278 10.920561529621585 7.574349426285535
Na 8.088479102589297 7.993988923615565 7.967889505289657
Na 5.485066915498998 4.945037731833634 8.15350052542629
Na 4.157461048231107 7.982091391769949 8.428690107783169
Na 11.145548835729908 5.773890746460974 9.03998935326936
Na 8.859609507309264 11.21620401447061 8.815984757709623
Na 11.611242987770105 9.110531288847389 9.10100559586959
Na 8.289016869533205 4.784473787907158 10.147774684275905
Na 6.192957877317196 10.05813668941353 10.625918090615212
Na 5.896098058472503 6.827146170476345 11.149442824559548
Na 9.220923879233146 8.024560054771507 11.157779384629059
