15
Energy = -14.29024635 eV
Na 9.182041708057913 9.01886475840059 3.6216215588766407
Na 7.171715214130799 5.90908221099904 3.7043060409138255
Na 5.8741053463960275 8.696823085218305 2.1348890670991274
Na 10.620987097838855 5.661690150597903 3.9503345857726835
Na 3.7477082398123267 7.142546308138904 4.505724868893997
Na 6.397259358631321 9.248868165149952 5.676857108080332
Na 5.908531260830772 5.893550280465562 7.0370100491909655
Na 8.78803281044997 3.8959198939086925 6.427002057048929
Na 2.7642632521781536 4.5794526473454145 7.519642612402782
Na 9.150377288384927 7.4635672263346375 6.702427017580556
Na 6.57115315477495 8.34316919289568 9.401755268009513
Na 3.228020138531876 8.080214681080891 7.998923179499693
Na 5.577214661116946 2.8026370217482395 8.548313986160212
Na 8.014727275976087 5.031073308648236 9.802472606128886
Na 4.531027634208639 5.75970551038675 10.495884435660813
