10
Energy = -8.34852851 eV
Na 9.960558986525214 5.71962399404311 6.61138344816155
Na 5.793509154872718 3.5302331545065453 5.876329542002365
Na 7.02453474248841 6.335589793595754 4.893516441009703
Na 6.569876977253354 5.123933181886135 8.545329297922402
Na 8.930866689617103 7.113973637341429 9.50316027641387
Na 3.104869453330033 5.200423448697927 6.58676798798581
Na 8.95860651862379 8.876164312604974 5.322809121538151
Na 3.988351873569365 7.591908683884882 4.513207707844714
Na 7.889985408497802 9.905459351052153 8.214003591156294
Na 5.434111939583136 7.956939622669982 7.519073394701305
