17
Energy = -16.53018723 eV
Na 9.519096578137955 9.100546631187242 11.399963353531291
Na 6.472581391439901 7.408439260290295 12.108028110924215
Na 6.792620659083641 10.88573486896701 12.46768448377281
Na 8.56534204185284 6.198658290513256 9.509696402121454
Na 6.15468330116178 9.440928086288721 9.401957612913577
Na 8.525773626222115 12.14045957898763 9.70557505911446
Na 11.946751898014618 10.90890253284807 9.42497515497866
Na 11.868504240372003 7.352519625959454 9.326331460075492
Na 9.352358505735731 9.247452294204239 7.938844652271628
Na 9.268260414063601 9.401120617073426 4.525599955949894
Na 6.7174376210173055 7.627179083493358 6.359238811780407
Na 10.06665598739368 6.278761095432102 6.240342083477998
Na 6.913020756840249 11.21925901825887 6.487596731968206
Na 10.371820062819893 12.192335700034267 6.572185979140286
Na 12.305230188054919 9.139877023481475 6.242865544888271
Na 5.190874142824268 6.038088086539774 9.14299583262546
Na 7.266923816760805 4.295238900163378 6.935908924771817
