19
Energy = -19.10356857 eV
Na 5.85770147368811 4.32014490234359 2.722861241421446
Na 6.617461099732854 7.701591376443811 2.5137868778697054
Na 7.491738388044321 2.7127360442149384 5.24103642579024
Na 8.645989713852538 9.021163864663187 5.090082039414338
Na 6.486805283542981 6.161651659664594 6.42025718479405
Na 9.125988314246401 5.5933567763478775 3.83884722293575
Na 3.4139939483078656 6.541910494852981 3.691456611357775
Na 3.9888399573282713 3.667812067015476 5.919396328619183
Na 4.983533709390751 9.386063154162436 5.138208155023965
Na 11.393279152793108 7.061650950434677 6.081421575776756
Na 3.357521270568446 10.43831679113029 8.062144620223789
Na 2.901174514241439 7.075343769804713 7.080985496930776
Na 6.995924903102917 10.677082411226964 7.730835455189305
Na 4.062797253856518 4.801606749076913 9.428434178896497
Na 9.06161987303474 7.944180387995449 8.561699755150295
Na 9.576888656943728 4.433521110953577 7.60316985591229
Na 5.487606782911858 8.061669899006821 9.51437321781671
Na 6.500706469094601 2.5455763119349113 8.483820185524285
Na 7.507056274891799 5.3112483182997305 10.333810610926843
