10
Energy = -8.8704755 eV
Na 7.436444510946926 9.365636424003768 7.662074838387947
Na 8.191897753747895 5.808309631346387 8.148073983177072
Na 7.9027811398977486 6.978755269070916 4.9366249680087115
Na 7.309976839689442 3.5103148837901292 5.60647639435962
Na 5.831594046987814 7.374085073772396 10.201859182189672
Na 6.601155486692664 4.9016315925253515 2.36422532552409
Na 5.0777071152483435 4.312527922401563 8.388640938609024
Na 4.7134627940601845 7.450389934954059 6.820912260049626
Na 4.165643065132657 4.689632018754672 4.888887737216553
Na 5.028714370593637 7.946699768099769 3.314428821385296
