14
Energy = -12.58872925 eV
Na 9.19292020067728 9.651913799060297 3.093549836545802
Na 8.963292961780851 9.93067180354886 6.610199893529107
Na 6.337498600470487 8.277825292787961 4.547140789862761
Na 5.6532014234266095 9.284370143694993 8.056689752163217
Na 9.562257859506055 6.683215723991304 4.886545257107015
Na 7.6736606230186775 11.75539042682592 9.524400137550959
Na 3.806149330136169 6.540115187748544 6.631710471796496
Na 10.664265858682489 10.267408318664234 9.849860857825494
Na 4.822400458887357 6.389580906559466 10.288470108559551
Na 7.741150704057586 8.395117328809976 10.923348873889736
Na 7.0423724256223705 6.23854362968749 7.509475962706133
Na 9.338544777808808 3.8038733522353696 7.213867180356004
Na 10.167981181422064 7.049599094536487 8.531017748467983
Na 8.006006385269709 4.819586748525557 10.625801745279494
