19
Energy = -19.06240436 eV
Na 7.52301687229255 4.162178450138769 2.185397814256339
Na 4.420672511736796 4.770136768707848 4.016544248874689
Na 6.144224277789222 10.843682802836033 3.9858554717387267
Na 6.705003941837023 7.4419223001836325 3.237642596487092
Na 9.57746054987983 5.787769840204875 4.569055345780625
Na 3.688461716851238 8.30485222625789 4.976197270732794
Na 7.422391430613297 3.0331389556280315 5.449293111008201
Na 8.8868591170042 9.154276843026732 5.473502021111101
Na 2.208493584414341 5.53620041863686 6.779829721459289
Na 10.442221523254485 3.439035141689076 7.068662464759187
Na 4.415337739377132 2.866157878849061 7.199664703319233
Na 5.947104552220469 10.07587745535715 7.344452554152818
Na 9.55584339036387 6.722444940187515 8.007515988792411
Na 3.300014732625973 8.264878569110577 8.669078378620124
Na 6.059767110570844 6.334203344549814 6.742305652883949
Na 7.429518677428982 4.0164653385831475 9.054462887590503
Na 9.046332198717604 10.12483957163552 8.877805706754671
Na 4.058380539962449 5.084095433218337 9.875244036077445
Na 6.690474652248064 7.559422840387645 10.009069144789482
