10
Energy = -9.06670712 eV
Na 5.0744942059044496 2.8925935641774267 3.985669087507294
Na 6.40624912702581 6.12089525488319 3.975409039065142
Na 4.715482517209978 8.877774450229769 5.362892057414789
Na 3.5532495324174875 5.472999475779731 5.900201095407691
Na 9.22354303639124 5.163132606698724 5.682595756896052
Na 8.055317133264792 8.47576778498972 6.120360288117557
Na 6.342623463158447 4.176363243723486 7.2867995005958255
Na 7.832013675762679 9.970661783495924 9.285765941645945
Na 8.500597067688329 6.498439626612959 8.970638489026884
Na 5.277510667256652 7.33245263548879 8.41074917040282
