28
Energy = -28.90730392 eV
Na 7.114964149328716 8.330019505436711 12.40361590670324
Na 4.297683509089109 6.651155140322002 1.1992081532748589
Na 7.7846436594350585 6.263211775575708 2.417342925546557
Na 9.78497491177903 9.10672872384743 1.965280284049488
Na 5.868052726791593 10.002032935770282 2.504193188456297
Na 2.409551227099478 9.040724530961414 3.3371044909506917
Na 5.342669182137068 3.5723032175368505 3.730610235381928
Na 2.0187736696237994 5.55066636613211 4.055164552397802
Na 5.044582993471981 7.0640531008741885 4.516916572588072
Na 10.861374420250344 6.590662314594096 4.7358464229009085
Na 8.18154743166966 8.912901301369587 5.1818234376821914
Na 7.854047817089933 5.130385705283921 5.706485009944698
Na 4.891238018205634 10.434653369022158 5.87724028679059
Na 4.097128749309598 4.296866075109145 6.950349726405404
Na 6.894485054310996 2.001111928340112 6.870054699532902
Na 6.075107208809649 7.5041728282677935 7.7171481496658085
Na 7.676428914183619 10.438801813683458 8.444552252688073
Na 9.749522925915823 7.404946223647612 8.163521331643828
Na 10.668105692138498 4.0938861933317625 7.780111631490702
Na 2.546933814552062 7.563681585901483 7.042152200302529
Na 4.310805596149089 9.651110304335472 9.635128274667867
Na 7.293095275421629 4.72826117007414 9.087693676936443
Na 4.813210740274547 2.438268514820256 10.049628269748318
Na 3.910906796847304 5.897868798394757 10.247226399954071
Na 7.270600764010501 7.764946531969261 11.077826306991293
Na 8.469284665685203 1.8991383804613322 10.422996267835558
Na 10.107891959069642 5.176633515035191 11.161038918237255
Na 6.66098936753714 4.489409390088469 12.403615906703239
