25
Energy = -25.61804704 eV
Na 7.303862942961821 5.6180365456514805 2.588807472663723
Na 3.507123054544712 5.597919719754755 2.1282263388838882
Na 10.831105367253313 5.656354824422036 4.339434991152738
Na 8.926380122653427 8.701786580062988 4.363827584501511
Na 8.35408775413459 2.7098791225984895 4.664094632082851
Na 5.224676707816431 7.900938253855137 4.305370198980619
Na 6.418258033865368 11.19392415007875 5.194114654318025
Na 4.891080240420986 3.850878013351074 4.775524110601421
Na 1.588667985163972 2.97221472389513 3.9533437715667006
Na 7.728325872746762 5.783923558742089 6.016206655924386
Na 12.485361398619995 8.862153154089162 4.960260721459884
Na 2.0855238552190003 6.20921392121064 5.400415425483759
Na 3.5576650120060465 9.3321108887866 7.092384638689365
Na 10.124241271985722 10.882614549927217 6.9219699479195125
Na 6.429735019796802 2.9712674048684633 7.916917626157866
Na 2.487631908508309 3.306772275014153 7.520425231372832
Na 1.7206647580628296 6.515084331226886 9.103132329277587
Na 4.7761446928048485 6.1310691200624134 7.584075224579461
Na 10.545475645994046 7.474191140863592 7.585845743059102
Na 7.103047235574548 8.910276664991672 7.586102170791538
Na 10.004780756952032 3.764218249240046 7.726382661374992
Na 5.008409293497204 8.23538011492251 10.365796767535587
Na 9.252528170888192 9.453415208276475 10.217369825815215
Na 4.408281707740448 4.5306783911826125 10.578150851178961
Na 7.792877007992539 5.991634910129054 9.667756241831903
