27
Energy = -27.78887711 eV
Na 3.0008451899489943 5.973152715438313 2.1095854238478546
Na 10.03335969555769 7.1623949127210835 1.8972654995712461
Na 9.72011525113983 3.7302935237423727 3.1957643848111537
Na 6.552226831013225 6.089497410282173 3.0041234923529676
Na 12.607509710060606 5.633824700836718 4.055995976227147
Na 4.16245012309273 8.638049787276715 4.10647493810625
Na 7.863669260171251 9.492548311857632 4.051302138672704
Na 11.515253947648306 9.160000566146827 4.5334910870375085
Na 0.8119549801238668 6.724808785704444 5.003590596385689
Na 3.8377551913352037 5.113390729875147 5.36951252007574
Na 9.427840063874624 6.495636045470521 5.235953570896036
Na 6.989636226227738 3.6867149430418698 5.854190388435975
Na 12.09281409877704 6.868540442160642 7.364854988773311
Na 1.4790428533900268 5.022892473427842 8.154576201819777
Na 4.019234202551848 2.2990594379927773 7.609134212090989
Na 10.42051458353409 3.5653356775355927 6.811624073364611
Na 3.0226122630210948 8.187191346064926 7.543736020537275
Na 5.671188424011284 10.732025691770435 6.938907683116012
Na 6.337207230157481 7.360342629104258 6.493263369230016
Na 9.072359005818997 9.4513962962765 7.519005828900549
Na 7.448477217082724 2.692463598045153 9.150570796721825
Na 8.713827812046334 6.039305430791005 8.934286678101136
Na 3.084012935865146 3.5321923767290433 10.922696942422705
Na 3.3650346359876724 10.678588384404845 9.966337779479373
Na 6.282281584208368 8.650642071154945 9.815075862038972
Na 2.846035987809088 7.207311088265481 10.962503970949655
Na 5.158796821670209 5.348456750009076 8.932231702158111
