20
Energy = -20.13746058 eV
Na 4.478066613127818 8.55243817030261 6.9548833282123335
Na 5.286616730345854 6.685415603802292 9.793023098441681
Na 6.661016510973641 6.319709667462468 5.006419763110775
Na 6.330883710897722 8.012816668071281 13.030169907553647
Na 8.510208652996733 5.963205736864255 10.925380673018969
Na 6.375165368151549 11.431201079954082 7.136783516508751
Na 7.351655284352473 4.569302537033417 7.948003204813908
Na 12.335823061658948 8.428544611553843 6.237558895277258
Na 10.652020908853453 3.595998774683157 9.156226186431285
Na 5.762649478012664 10.109830304709925 10.276025352220504
Na 9.411908477332279 8.327903285780463 4.410074880146912
Na 6.286032863376516 9.758037773127567 4.124568439741312
Na 3.9203083471400344 5.08237848241902 6.815038479032962
Na 9.16804053242926 9.353782547265888 11.45897631989971
Na 8.177521119109167 8.275191109973717 7.926488527060615
Na 10.251774062430007 5.523855281360746 6.2564135391951705
Na 9.61119202112423 11.484447353048175 5.86291655502382
Na 11.472558928423407 7.001458790045916 9.39787492876865
Na 8.463212632697886 12.382187407709353 9.707582198550892
Na 11.116119866588773 10.391869897911022 8.8003921214092
