27
Energy = -27.82208725 eV
Na 8.355898003877899 8.785199872660815 1.5743264770056875
Na 6.114637404274281 6.041629543020233 0.7835636836367899
Na 7.158907388838441 2.6441264229877857 1.5302911194572397
Na 3.6651732010454507 3.552330701409888 0.9274502377549316
Na 8.770435278937345 5.360792208998031 3.064211594510031
Na 2.9599618342217973 6.591657300070323 2.850422934959979
Na 6.054665726421292 7.8004040189195525 3.911126728172006
Na 7.3672068775475665 11.039940445265842 4.431116771076767
Na 9.489063588459237 8.40204206045846 5.358700287605541
Na 5.216871301006333 4.086057289925622 4.048097850221131
Na 3.4409576360639837 9.628855561444617 5.430366532648631
Na 8.157735575197004 2.540591461904809 5.493686711690027
Na 10.706576987204276 5.034126738719174 6.433313302579506
Na 3.7207890947144024 6.3701560371815695 6.490961957852736
Na 5.218830631083846 3.2626154825405362 7.7431592291924645
Na 6.463135273647278 9.131322789440123 7.241080127535014
Na 9.277782150837519 10.907082409244369 8.220175434210084
Na 8.556166742054737 3.818933880249345 9.089408866753212
Na 7.364205203660016 5.756567341177836 6.372741202426556
Na 9.524297916037614 7.483109566605075 8.95650009565355
Na 6.079061513451802 6.404858329514344 9.458043782704264
Na 3.603140178530183 8.830939975019623 9.302112413769718
Na 2.8307195381553063 5.2351340314834305 9.810601532641318
Na 5.582904239461592 3.8200000092001223 11.669634209376952
Na 7.093470746657233 9.553872639297461 10.831588581131063
Na 8.21268743435047 6.3014459112341275 12.179616730729162
Na 4.695868977788663 7.297358415553854 12.478852048231547
