24
Energy = -24.17111543 eV
Na 9.108255108277284 12.156292676420732 4.478305206229431
Na 9.07138466131856 12.503610837831607 8.144646676367763
Na 11.086222168711084 8.994112057429541 3.850707107727118
Na 10.669954223357076 9.432476654279931 9.833422138551144
Na 6.109905498579231 11.27325345597544 6.327638400895325
Na 7.053360500321932 9.919328536911568 9.629333633127885
Na 7.4169501664030655 9.183340592857013 3.368105591106002
Na 3.9105610104404627 9.112303461094028 4.542105406892032
Na 9.24247718095108 9.403770065557634 6.669336535637083
Na 11.763709299554648 7.01109626984368 7.302771320575384
Na 8.72832233732715 8.524269541430803 12.587078766210311
Na 8.518008730934454 6.623015242079882 8.966932004533081
Na 3.783446144768901 8.98777609212022 8.476897159664773
Na 6.301938572323322 7.6638293450607256 6.574574595984387
Na 9.189473056475393 6.132431309085909 4.942589303430982
Na 5.147931363166893 8.2292460222192 12.00271194016235
Na 10.362564966633762 3.812725460747277 7.481452898858236
Na 10.846147095877113 5.4305007369907194 11.007393164208464
Na 5.787345158405995 5.990547562618961 3.506560231236012
Na 3.4060399589702777 5.8897682614928515 6.372946617977748
Na 7.974457665849399 3.1653299281405767 9.974977339194519
Na 7.416046016324784 5.413072554058416 12.557283491099723
Na 5.1668226626661715 5.705851557383276 9.58038876752607
Na 6.780326411508251 4.106400320982376 6.655392173518552
