29
Energy = -30.14606874 eV
Na 0.14586934758527773 8.280787735461278 7.136460962118566
Na 2.6377603807996293 10.181270931762395 8.985877384145066
Na 1.6029131712326739 6.917162365329486 10.277770054126298
Na 2.8107306340935834 10.063205996366477 5.188599956596597
Na 0.9573994410397628 4.717952401348686 7.354942609602737
Na 1.66818793646274 6.616181426751028 4.155395573002909
Na 3.303877295303261 7.232148978829028 7.277007343301167
Na 5.230667019002104 7.805498855439778 10.289458407521266
Na 3.471383810962838 8.813661612441974 1.8100066697400794
Na 5.891398827898301 9.932848122284431 7.308240025916407
Na 6.093738339872904 10.541247699460982 3.7233871594646804
Na 4.0805936335395865 3.935787356418405 5.558135326496022
Na 4.234983954800273 4.217097910112243 9.203436338510699
Na 5.194392937829419 7.250126569172206 4.269331031998643
Na 12.831681059764115 4.599800499608615 6.814007061762412
Na 11.829155852048029 8.058549027214786 7.132867652600197
Na 11.455473650018185 5.944614008705488 10.03932641629561
Na 11.021659642921358 6.274147314355891 3.927517832060904
Na 10.564539267503111 2.6230492458202006 8.80741340604475
Na 10.232313141627454 2.624471782301987 4.982166491397137
Na 9.586430465962193 5.398257899342982 7.053653243081689
Na 8.763985652236098 8.404549562406094 9.179017919637724
Na 9.66372211113719 4.08908821751765 1.605214730064846
Na 8.564001003485151 8.491792094086412 5.426829023969025
Na 7.999431804983185 7.3703470360726255 2.0938686033310576
Na 7.030941956778661 2.6472004994214084 7.251313689595316
Na 7.845365363318352 4.7956142367648775 10.204317746096386
Na 7.352787928513269 4.473005301443984 4.155614923346701
Na 6.4475892993494535 6.213510243825659 7.301797348242897
