24
Energy = -22.7762149 eV
Na 5.118884305944802 4.956304459017622 1.3676506710645873
Na 5.120388840728885 4.948488298069068 8.8415088046632
Na 6.938689490158735 2.5359532400314606 3.2502460033547886
Na 6.928081097618259 2.5397200703334954 6.9448385970192685
Na 8.026117298956327 5.871267808534914 3.274997756674921
Na 8.027166158735485 5.894774522296839 6.965116511122012
Na 5.108111104898176 7.989861571420562 3.2027926036998737
Na 5.0900944012574 7.96661541819128 6.999737534915984
Na 2.2321992886801287 5.875750199088598 3.250041909760675
Na 2.226224293509662 5.8958786206874265 6.964625652371413
Na 3.365778633345616 2.542461308185787 3.1948714702354537
Na 3.37462738755985 2.554242113064414 6.89615221332896
Na 5.1433494289769035 4.999739754827504 5.098162411332661
Na 8.711596810981128 0.021353671434586823 5.125385322478597
Na 9.899009097693483 3.3733713196519868 5.14197723673007
Na 10.995607840771724 6.749506541971413 5.165770669492276
Na 8.097953888302879 8.886662481845928 4.988879783914151
Na 4.990335136914737 10.946086722327584 5.110847663949912
Na 2.0836124045952054 8.938369014682369 5.103464061632253
Na 10.995607840771726 6.772872722639581 5.128463351291784
Na 0.39087063027308466 3.4111500930408947 5.11078515718322
Na 1.6006766038751754 0.09142500663120555 5.0089790807792065
Na 5.133069012789867 0.04800983629890713 5.068134605565214
Na 7.255434489382267 10.722831562184078 7.835443650973382
