22
Energy = -21.84036132 eV
Na 4.2087431302059475 5.4587730242048345 2.7306904193149677
Na 9.404294423246029 5.538051645574906 5.5918920736531685
Na 7.266971585110945 7.285577211707544 3.206715060152857
Na 7.3603024878235725 3.5296271905950256 3.4174334236888524
Na 6.871496311662983 10.864825862247201 4.187649536426459
Na 6.548048219294931 0.026142721475759557 4.43528653236171
Na 4.088671428286635 8.6136681337481 4.698236533775005
Na 10.030878219717572 9.022820704845497 4.936865309600762
Na 4.315033018616778 2.494502262716785 5.146585360093115
Na 2.231682514479429 5.678989223985809 5.8813382121872095
Na 5.74779264284858 5.5629116581325 5.882338328569017
Na 8.40308696943415 11.48660580454903 7.50414194697376
Na 3.755345109145992 7.813179232298681 8.280398114664425
Na 4.948227322999347 11.161571248767146 7.375728313055351
Na 7.066244304601071 8.42401367080092 6.6431218749221435
Na 7.474740243524519 2.6858198448810335 6.961944210223781
Na 9.97451910133904 7.81528137293007 8.413043715418029
Na 4.164218430007412 4.177653053129394 8.633749731839963
Na 10.460720247383772 4.182456376809811 8.602792438645286
Na 6.738542857255148 9.118392483058532 9.956504720824014
Na 4.662617594744736 6.4508753612493 11.393416356819202
Na 7.314250788308542 5.644688862328716 9.156554736827518
