23
Energy = -22.61239858 eV
Na 11.449409620891455 5.571715654777724 8.539801823687466
Na 11.445863124914947 7.40082722063986 11.564937761736157
Na 8.626321497446805 5.284583036799119 11.143769796506488
Na 12.231229768612957 9.049158738685291 8.087523391434935
Na 9.45373332393563 2.7801348952583345 8.92511945493289
Na 10.396711862242514 7.661634549410402 5.574211158097008
Na 8.9982771623059 4.693358165792089 6.074706516296498
Na 11.762956643530599 10.746338560003416 4.866746300806362
Na 8.90752143922792 7.778845037826189 8.852087598419082
Na 7.83933192890811 8.629239213044105 12.213856493739987
Na 10.219123624015253 10.570008898524941 10.519223792540869
Na 6.423337562013808 4.433689799581297 8.471615459402221
Na 4.515658717113043 10.06472957372115 11.703738989106773
Na 9.295636378930595 11.020148324743186 7.152170918893784
Na 7.909102712641542 6.707845651341403 3.3851933715306433
Na 5.6442519014641945 4.919676793760017 5.108627048976131
Na 8.399058262220729 10.095596744070995 3.9031705082643953
Na 5.581387997321905 7.219108238412359 10.089244143796634
Na 6.6090891149615 7.982013150014471 6.419579506824207
Na 6.884485152622578 10.805338040310147 9.417303352456782
Na 3.6243237674663016 6.331602342093351 7.396115598468223
Na 5.9524048330639445 11.331630670474505 6.060699997619768
Na 3.7875998470165677 9.682644911914274 8.246867796551257
