23
Energy = -23.10574335 eV
Na 10.496266273364695 5.035334054567723 3.4716880845661193
Na 8.574397961790673 7.811526905000461 2.744076763895699
Na 11.201098900069713 8.144866236921613 5.383560470634336
Na 8.277089577102291 6.257852814719753 6.264338975945601
Na 9.124537333307325 2.6586480521188154 5.5799869520438
Na 11.734989631954889 4.839689311261562 6.827213181522997
Na 6.665563456610621 4.8581813056682375 3.5751011548363993
Na 10.512971655303252 7.540604561151279 8.887648893179621
Na 10.73310270885299 10.780087942835182 7.7891261269608405
Na 7.977012091118513 9.788324775911278 5.542057352632465
Na 8.87082219223223 4.06773972824757 9.032923291277568
Na 8.476262746000822 6.488973265280721 11.47196678048498
Na 5.976458794491303 3.436213840310181 6.95961644305105
Na 8.584222860945877 10.188823954281895 10.95998065794593
Na 5.488005898809825 5.238285062186688 9.870657608124459
Na 5.162936610582398 8.436390370423567 3.5648434818830266
Na 7.4283578945141135 12.075949491435917 8.106202442556636
Na 6.897938791399778 8.29447711714846 8.646405580455355
Na 5.4734473168873885 8.215064041947647 12.126118119711972
Na 4.913916886176384 11.07199021066195 10.248878485949582
Na 4.596349254209723 6.551366932773663 6.3707861108932615
Na 4.557708013839664 10.162827797273666 6.670419782404609
Na 3.1816855840321074 8.074501166777145 9.323026253157241
