26
Energy = -25.84503156 eV
Na 6.163291634888686 9.04075527134296 13.767854307308069
Na 8.467136819639038 6.518481804394375 12.748418496759603
Na 8.478020545410685 10.19155704497518 11.566982658079306
Na 4.755102109849726 6.689600094448779 11.891381829449433
Na 4.861440255429773 9.958623696071271 10.523449430823948
Na 10.769515483918976 7.736417593025178 10.471097932309185
Na 12.54329632696449 5.068568047185256 9.114378958017495
Na 9.052268449052749 4.65175647119929 9.663257717392467
Na 5.500543469068797 4.37163964975391 9.591290045570577
Na 9.511248615168048 10.296683532505195 8.3424481237589
Na 7.276339015198373 7.578923336266066 9.381118664346317
Na 6.964315032019289 12.520542621820239 9.36327455911875
Na 3.8405206959281393 7.316499559900366 8.384258493916759
Na 5.637617279212062 9.957889469752764 7.22047209634113
Na 8.33887952198537 7.872022217450346 6.075862084791012
Na 6.985077065661573 4.71207859064892 6.686451929439659
Na 10.39736914538689 4.935901042893445 6.394120101091317
Na 4.909878327810249 7.168121931611553 5.021978889585126
Na 11.83435053320174 8.014453372611241 7.238313487718768
Na 7.82400703603972 12.420429034834957 6.089574560472959
Na 10.390158268965685 10.373621581326262 4.964688979813374
Na 11.618692696048623 7.1483072512541215 3.8369503391149187
Na 3.481631888299175 4.345506721333279 6.539325609903686
Na 6.446593758949442 10.051673817052349 3.898250739427025
Na 7.994188806297716 5.479253083948551 3.561886866306357
Na 8.929988694461656 8.572363997346661 2.2299790500017735
