20
Energy = -19.15855719 eV
Na 8.7630295027346 11.509280570452946 8.905004695548106
Na 10.487629974820885 9.906275284972553 4.51160456165251
Na 6.897992201705573 10.685689910409383 11.770847779934572
Na 10.482551024773773 8.591555879716124 7.876936657894052
Na 10.222206403922948 9.35926215265711 11.33318447693938
Na 12.447968709456585 7.197624459266543 5.561744830543594
Na 5.216220890992337 11.209422252372919 8.67995746842003
Na 7.301609481330786 9.81798117840363 6.1864808472804524
Na 7.4808855415440325 9.022629453296442 2.8879859405015744
Na 7.3582547769940785 8.329684079991504 9.263871707896902
Na 4.2991279871144155 8.622636661181549 10.89728591384596
Na 9.166982596954757 6.7482149178718105 4.852307786748823
Na 9.640598001504753 5.91530659864526 10.241978706992253
Na 7.541766712850303 7.415443586933019 12.643550694898252
Na 4.487496242683798 7.862525004291834 7.449499563789253
Na 5.57320882727728 5.45013708591474 10.652239325653083
Na 10.621567592772102 4.5863732886137605 6.97055770995376
Na 5.7990634507006895 6.356016574094849 4.412919061015225
Na 7.127074719235485 5.315169561498418 7.655555110654242
Na 7.892360472135183 3.55977166415477 4.973624969797896
