26
Energy = -22.85020823 eV
Na 10.38681243370568 5.020512650682396 12.756964197290786
Na 10.718936972829013 8.304512167397732 12.312304708186295
Na 7.992903602904389 10.308019054862013 11.204054068470292
Na 11.236829690923344 11.590755104053624 11.828662762543537
Na 7.634254347524676 6.894232081043064 11.445855439900363
Na 10.645305426591754 6.038350052367679 9.295652894602807
Na 8.207181691558755 3.500380030063348 10.77889244700898
Na 4.95978613067458 8.775771062616187 10.348263307987056
Na 10.979664177512056 9.54188597307091 9.056001463263796
Na 6.570721044952869 11.376639474739598 8.322626553090775
Na 5.602397547443882 5.151492054408994 9.352638784479211
Na 9.61697343755418 12.727809512755131 9.02110379828401
Na 8.446209762280974 4.084307493576776 7.389143695852141
Na 2.7400792586687617 6.347580171239294 8.180288673605606
Na 11.447774036652339 7.688442889943749 6.382341408422035
Na 7.856382599375876 7.928049549720887 8.047059870130507
Na 4.667342304013659 8.938637286399487 6.9472555069264725
Na 11.796477385018198 4.24695327361263 6.280878954356668
Na 9.191965845724328 5.700382636518235 4.447093834594235
Na 6.161665749395193 11.817033845322864 4.983926135478361
Na 5.825508553716697 5.624012793392997 5.9254237301960755
Na 9.527200124902798 10.701980621936379 6.053702516051215
Na 2.843563709354796 6.70242137283269 4.791514967416776
Na 10.58634195431804 8.666789829092217 3.2004975426590976
Na 7.2316800741561575 8.433585958140151 4.525416019159675
Na 4.015736511326129 9.638848332411381 3.700164885616464
