21
Energy = -20.50245167 eV
Na 11.778683269223432 9.544056512503511 6.48803361349834
Na 10.445856734112335 6.293546462096871 6.997778974854326
Na 8.708783376754212 8.763634535933969 4.892476376135678
Na 11.740388935118913 7.9594460345152225 9.85585743429385
Na 8.987073682946406 11.952701293553044 6.374144003682737
Na 10.828589509732453 11.512044554195086 9.364957454150744
Na 7.7288559326418875 5.507268720447972 3.8951571344125635
Na 12.239738409326188 10.502020427752083 12.361101541018778
Na 8.462041579413363 3.416772885622228 6.364060982040099
Na 8.8280980991959 9.052535847102082 8.336985094562532
Na 8.866617222288209 9.426764059949594 11.784096297882597
Na 6.672958544292586 3.5041067273446136 9.154964843934996
Na 5.9478227220341635 10.21727817141524 6.7966671803355005
Na 6.83110593239145 6.607155556858914 7.246161018290005
Na 4.752043653274274 4.409103551988842 5.915154574798848
Na 7.239863037837335 11.905342016299349 9.614004982342696
Na 8.644260272529609 6.194892094055294 10.281613602965859
Na 5.189834812215103 7.718762385826973 4.258094201741255
Na 4.109352574757576 5.571842922185929 9.52615425587072
Na 5.849652616726184 8.654105308282803 10.090433529305054
Na 3.3696568846271306 7.742025347425159 7.134055084169564
