24
Energy = -24.04317276 eV
Na 9.09599249507164 10.141398517250188 3.552271495071079
Na 9.871360957001926 6.569091335193094 4.537584390163682
Na 6.780480798364827 4.930702484629684 5.217737120230416
Na 5.003411693397695 10.536197008658169 4.072920718018731
Na 9.852408843123156 3.426524074929375 6.189273869709901
Na 7.623594891776891 12.020704793936773 6.101283812209425
Na 9.981819079540662 9.076193685840755 6.832763187626824
Na 6.450870883402635 8.41105441624098 6.426535720931237
Na 11.502150888596201 5.898128811251311 8.091137218276367
Na 3.809559575358659 7.069917294962172 4.535496227270901
Na 6.891207275865093 7.6486839856686695 2.8474749747769184
Na 10.488981380663084 12.154876443875205 8.234200649146016
Na 4.483122708371294 11.1354405852607 7.68143901516897
Na 6.78932897518348 2.746089290819549 8.092150410801594
Na 2.4464920955105796 8.395340819988752 7.516474145775797
Na 8.138833627997787 6.369236382649961 8.607261842564933
Na 10.765988430201311 8.956512553361808 10.256841451855793
Na 4.504130351136645 5.485071762238669 7.911154461558177
Na 9.822806961562069 2.981924673120138 9.736808807558921
Na 7.636767230292554 10.323680324017726 9.357449573121054
Na 4.91089757986052 8.17001010176909 10.04930256890571
Na 10.344085951818583 5.729851155590037 11.71047718670188
Na 6.7088993630561795 4.64027419918628 11.245268055380851
Na 7.7159500611171925 8.008795787341564 12.10079895588721
