24
Energy = -24.5829705 eV
Na 7.258105267702678 7.787491675536652 1.329864392642871
Na 3.879870430975091 6.960562984334457 2.7715362847627985
Na 9.558801495720624 8.173548243956837 4.198721041587771
Na 7.035787761866949 5.550300492421677 3.99371381442528
Na 6.130204426515791 9.509324367586958 4.235562702192892
Na 7.482583782908825 2.191173708484732 5.207784090927386
Na 4.061840553478503 3.7374305978455515 4.830840493694505
Na 9.90182360267684 4.858051886705549 6.179138998260582
Na 2.480450102662581 9.714351724304725 4.909153304464614
Na 1.1247972875026138 6.341403549049694 5.183355197300076
Na 8.531349087667136 10.87740929795618 6.6242237775560175
Na 4.387774892570824 7.036751705798795 6.145967685525207
Na 7.678578911226012 7.610462907819863 7.023397322814732
Na 1.990286251124245 8.313295314391048 8.207966800042453
Na 6.470510650612915 4.38055555155572 7.650328196655243
Na 12.287457699520985 4.4536376513514915 8.742623293226085
Na 9.339765502031245 2.2910337133063394 8.441673864531362
Na 5.1055571763314065 10.206576012381149 7.687080376018141
Na 2.8122223968968463 4.612272461968722 8.061164233274598
Na 11.19389975927254 7.788396520583373 7.8102343936800604
Na 4.852759053622587 1.4390970141992108 7.535833794077893
Na 9.04682850343144 5.716646553845979 9.710054164093327
Na 8.158068129812577 9.383896223821905 9.896578488073658
Na 5.293930269668989 7.129582836594507 9.686456285973048
