21
Energy = -20.70777613 eV
Na 11.88234227025433 6.839405599287176 11.017506176406915
Na 12.176630528863257 8.114823199077414 7.713956872895337
Na 9.84567051815897 5.433328599083208 8.585810581287912
Na 12.637869001423518 9.44650928221261 4.258211827634214
Na 8.490979878888785 6.22934885788353 11.88784942374876
Na 9.524887329892158 9.176722082770429 9.991286286478845
Na 10.236290319300638 6.82894944044189 5.089225460917955
Na 6.248731806264491 4.814080658738075 9.592102208433952
Na 7.478588232519456 4.645871913265476 6.138842057252609
Na 9.50864924760917 9.670996647824222 2.924794884394938
Na 4.9590309043140515 5.539510688731928 12.919020647930274
Na 9.916592228449865 10.481503851284925 6.454222234399042
Na 6.986170298610733 7.09824121847131 3.6222898763684133
Na 7.166472414338272 7.837140931133784 7.281470647007858
Na 5.936277066431322 8.442536879053144 10.94605596923933
Na 6.662401327080684 10.737545173758809 4.988078704322751
Na 6.933950007514796 11.001679629712582 8.51949230474907
Na 4.150415623697396 5.664744149592682 6.8310058241885185
Na 3.0164840914349327 6.372887435440931 10.25501443173042
Na 4.053489794908751 8.474334278762548 4.819277383666628
Na 3.8413961679439983 9.292746844875042 8.176418315512318
