26
Energy = -26.76888256 eV
Na 5.936211482762772 2.805126112347982 5.435816146875985
Na 10.048247058304746 7.889984649972717 8.304801248523734
Na 8.403862944997227 4.596388633845548 3.4515304553544373
Na 8.150814069682147 5.2014212506936826 6.937139072819855
Na 4.44442086973276 7.996344439880101 10.349155533909828
Na 5.629876908246612 6.440673075417149 4.954327534670128
Na 5.770170875957189 7.289467148931033 1.898661035087941
Na 2.7434936486794217 5.016157132895591 4.49423485325628
Na 6.551442826326195 8.279680927588537 7.710511965759419
Na 3.0634158967826823 8.29537456840077 6.844902802318453
Na 10.625070899415782 4.029617689274461 8.99878091249139
Na 7.661267851664566 6.140233764545706 10.337324951266469
Na 4.588296889539135 4.340252752506606 11.232537414644607
Na 8.775712363776748 8.1009328672578 4.8105788792270925
Na 2.630095761132858 8.633430642033892 3.3825740539729066
Na 5.278162459348093 3.601129780712345 2.0735577712233733
Na 8.361523644820272 11.060117953164909 7.085527317971867
Na 7.150718414840914 2.705700723212198 9.010200720323159
Na 7.538571623478269 10.012905512771004 10.500599009478227
Na 9.523186980940853 2.062749627435442 5.9876573410791
Na 4.743634483455329 11.28430031649643 8.28467974615358
Na 4.519545708906449 5.108399594012325 7.936730107564201
Na 11.281600839341612 5.439455171028933 5.687855909082384
Na 2.2936108483813307 11.53119468184095 5.5472362167304645
Na 7.764893226150863 1.0765432864724944 2.9262413381862715
Na 5.538780094351008 10.079046368277899 4.833466333045028
