22
Energy = -22.22452869 eV
Na 6.8715882637317565 7.121938581429558 8.735560872372943
Na 6.089542863376816 4.122387394025689 10.507638868293165
Na 11.379832104595259 10.084745820157515 6.560040916473669
Na 8.027676272859283 7.083013442836981 12.155825080975285
Na 4.527107032233964 7.362331689498646 11.21753373694767
Na 9.762849766613936 8.701635981089664 9.37319641158684
Na 6.783336735729167 10.288979898963246 10.587633545018633
Na 7.5108215022337665 10.47704414798191 7.029137690558971
Na 12.865663526565594 13.225581351083692 7.578646915043201
Na 9.935958851918462 10.244426752305516 12.409508488745539
Na 9.522858568954454 6.919000186941568 6.186632838371855
Na 12.831790594765605 10.4609039845027 9.91255090025576
Na 12.498777365189449 6.958068672026583 8.303691990664106
Na 9.739033719269074 12.231114089576241 9.193818642586502
Na 4.27333948889571 9.268142854153695 8.020562765853832
Na 6.098686251418564 7.480180504043004 5.35866694636476
Na 9.750004405793137 12.984622761384422 5.668726899956773
Na 7.131107773588818 4.207465105632098 6.988068482849152
Na 11.6649580735081 7.079021587828798 11.803265302563014
Na 8.819809708612397 9.640915707418412 4.0004211444899225
Na 3.8785280232494816 5.464372105261977 8.036278325857145
Na 9.690115484649308 4.977220229792983 9.57441188993718
