27
Energy = -27.53785909 eV
Na 8.155718376196706 3.3915286004257355 4.521375839217383
Na 10.50875558549582 6.091778495045152 5.469010525966124
Na 5.8528945676188195 1.8489924930279293 6.612598330849656
Na 4.6392555219329745 3.7209576744748256 3.604924924612335
Na 8.505394050794484 4.476464915999652 7.863106358965626
Na 12.132205414852416 5.4684076052033115 8.725244502420185
Na 7.056727732513739 6.462848155242802 3.6022703133877827
Na 5.982027836871343 3.381985434142826 9.954572943859153
Na 9.673312508993686 9.085753900052119 4.073307697367375
Na 12.407981859218022 7.886794577922012 11.282887538538573
Na 5.075335308204436 5.1985797744271816 6.832213344894399
Na 3.5199068800127553 7.146111910861206 4.164343165357086
Na 12.06265499148501 8.916648015132024 7.024607130818312
Na 9.654786767637857 7.805293154497036 9.128674016697218
Na 7.373303739174875 7.816886770991741 6.747869314920206
Na 6.005301139834497 9.875743880710662 4.420447430393733
Na 2.5627701098924214 10.460253921551926 4.981817067318148
Na 9.320537698395908 5.110090041499971 11.262967316054494
Na 10.700376123909619 10.953126089345307 10.220823095977103
Na 6.284934601879495 6.779984571368539 10.153929822560585
Na 4.104453675287117 8.59606073554381 7.701240101735046
Na 8.95208710705101 10.92162356351803 7.038885365784503
Na 8.868992795278343 8.560841621000822 12.422412985481635
Na 6.853541652839311 10.162917532439922 9.927631652554473
Na 5.375382818483485 11.853648640690885 7.273497156289359
Na 8.231863804487045 12.030364024580113 12.625107726501449
Na 8.040599050567566 13.428024785491319 9.397361936137518
