26
Energy = -26.04966448 eV
Na 8.156585105032688 3.348385429941464 5.960097469714694
Na 5.892674054073507 3.1657301330963414 8.641753205025719
Na 6.185930732562494 4.898939932088146 11.452908651385984
Na 8.622716551532442 5.19303754116295 8.999351208149328
Na 8.991185292118402 7.012126224875346 11.921420721963662
Na 10.931194865923585 5.456505763760999 6.554005345306789
Na 11.51861598530962 7.294295056610666 9.484903818568824
Na 7.983028083191769 10.024184081667556 13.19415994029711
Na 9.339853507761465 5.196603680154909 3.083306368288151
Na 5.848374603393085 5.6592326432626825 3.013940161196524
Na 4.657299396527881 4.732165859174585 5.915169170104457
Na 5.031623325209628 6.657142182810326 8.584329194772172
Na 13.440647182630649 7.844481993716396 6.587235331009291
Na 7.651469811456863 6.843410865896611 6.034298163844338
Na 5.493905513311556 8.31216875596375 11.451127575713896
Na 8.03076803726197 8.678099832024316 8.978037966473266
Na 10.511389024432368 8.229781227075021 4.436512784721827
Na 10.848253218149523 10.088089485471986 7.243726051106311
Na 10.493112750031967 10.471063538370261 10.693172446714286
Na 8.928542503026224 13.345516204071624 11.825411833835892
Na 4.532514046293688 8.293708040156094 5.3401297466827495
Na 7.251918979555957 8.683702870020333 2.9972476588503
Na 4.941308283422935 10.149914769526205 8.183033842665639
Na 6.001071401270436 11.717326920944716 10.948590662411918
Na 7.63190382551978 10.507853620953759 5.709091456606743
Na 8.339804821069963 12.256174104873708 8.381769589524843
