25
Energy = -25.63663583 eV
Na 8.901699353738914 9.499889452197758 1.5223120007280826
Na 5.710464750428468 8.72455784132847 2.776515582986791
Na 7.386209673608825 11.660740007477926 3.980665504470353
Na 4.289030349120009 5.111146176914022 2.7715233155881247
Na 6.540446964104192 2.9577961723266153 4.67071758117771
Na 7.986910128807187 5.77142406190493 2.622219941514304
Na 2.7870342341488263 7.794708388428886 4.941923838978059
Na 3.780803265667111 11.473608281230351 3.761831834972212
Na 9.349631523789405 4.916165424235699 5.875434190081683
Na 8.853500121017124 8.446935776632932 4.86252936557246
Na 5.962952316875496 6.396200181009352 5.429494499377112
Na 8.626080660752963 1.637213831906146 7.709899398748458
Na 5.368163958197692 9.789809005756904 6.396018875324099
Na 3.228888913671973 4.2307846908676 6.149245890468163
Na 9.392491785645086 4.684391876091488 9.58651272587854
Na 8.569888584391995 10.75442964804657 7.501949691692472
Na 11.039578494247047 7.505256016025952 7.6548306725526745
Na 3.766226941758331 7.052039207319841 8.360301272439667
Na 5.012634774906602 1.0800246991639961 7.809977764954865
Na 7.641568950147604 7.493308472682139 8.230990012214574
Na 6.297122674361276 4.233513215141271 8.014812895471893
Na 5.617976209838604 9.594237497823793 10.051535679589836
Na 3.516607330064987 3.5599030377464453 10.01637218902999
Na 6.086542530700941 5.925944760420062 11.048050507236336
Na 6.803031956732549 2.221458724044212 10.769821215675247
