28
Energy = -28.89967181 eV
Na 5.573724863090639 7.64368195162904 1.3680184277252971
Na 8.918471223954128 8.073713431252356 2.380246001469433
Na 8.34328005786059 4.905877933925038 0.7336969797720478
Na 6.985091430033383 11.017492181429768 2.029000458009689
Na 6.597877927307947 5.292050032960384 3.672166035649293
Na 5.6549730045894195 9.06711608432597 4.626482913520338
Na 8.082838434436885 2.202373097164285 3.184790559447755
Na 8.623038138968571 7.276188963856278 5.8006039534315725
Na 3.3029126163871902 6.437684704548501 4.38122108259617
Na 10.394557092724714 4.934692692395256 3.659189855834899
Na 11.72158966159304 8.272090467430985 4.608019351706467
Na 8.930681777107079 10.675925394438666 5.0444499807473315
Na 8.32448057777042 3.725304917993332 6.457051885019265
Na 4.839441043866023 2.9109678583410967 5.801250232285742
Na 2.45913449531896 5.138743714025296 8.054915314561706
Na 5.627508841535507 6.224184524336315 6.90180636566219
Na 11.347545124407656 5.6240151724846426 7.171771677895937
Na 2.929264781542523 1.6214512508061683 8.907185188394811
Na 3.2413148681200474 8.675137510674821 7.4211544633133855
Na 10.432068097257323 9.061354652811652 8.069223415549153
Na 6.726986857164687 9.582784996089169 8.039892926427658
Na 3.94587032004841 10.464731399840625 10.432498945858972
Na 5.658500179400566 3.6177473973914753 9.31780780497735
Na 8.31819739574007 6.239593292316142 9.29091224749196
Na 1.600524993649931 7.550770713723347 10.69429680735288
Na 2.7571147266666496 4.222917342435781 11.418809610815984
Na 4.89209877910222 7.086630360779808 10.294537554531669
Na 6.103792087006298 4.787657357244488 12.571879356601029
