29
Energy = -30.06860132 eV
Na 3.7911768445165044 9.78441595878823 1.498133208897387
Na 4.607214530479246 6.1789913930589755 1.4869698001174156
Na 7.31335034039029 8.68125955120788 1.420714283164613
Na 1.6401976072097353 7.679296175995869 3.6732576794340392
Na 6.411027574014567 11.46725535557709 3.5269646501668706
Na 5.9436726921739185 2.939724203270094 2.815053771980944
Na 2.947218363098991 10.965759101953658 4.884220471560443
Na 5.1242415946897335 8.360228023392983 4.173075086529211
Na 7.651714586536369 5.779300870903559 3.540645454464263
Na 3.786289795713499 5.0427491531846895 4.922540365972003
Na 12.123497106770733 8.092579761218175 7.121736024424086
Na 0.666482638110042 5.651025939573284 6.416800631531558
Na 8.799348104169734 9.006577189803139 5.045239998664717
Na 9.460533573066762 2.6608263906892984 4.468453345527092
Na 9.84561076145745 5.6640477280268176 6.3188830135630845
Na 6.631604944259076 3.3750168649048553 6.332568401573301
Na 6.381264473594215 6.871662974318021 6.774885756241545
Na 9.771449720352885 2.440548497314675 8.11900425833376
Na 5.963060378614421 10.35018571956301 7.163022078852653
Na 2.9832113490662953 8.153746397359097 7.239572218355739
Na 8.898350929014743 8.602469162654055 8.639925020811685
Na 11.250876705956717 5.694707480686244 9.639644110442948
Na 7.681677182255473 5.16748766018774 9.255959208349937
Na 3.9470917274896373 4.884025083320957 8.597246618545741
Na 6.369577895680631 2.0294260394412404 9.801287308191524
Na 5.460129242477366 8.028201456816051 10.016026743459085
Na 9.129331616052928 3.3939940393847046 11.671596507020602
Na 8.45793735715106 6.934590726102752 12.034912032613866
Na 5.593785812851875 4.750826548517752 12.032587398424793
