24
Energy = -22.90698269 eV
Na 11.196661089071807 4.2353529451966425 8.483945930514782
Na 9.77104131912266 7.362842210364579 8.924457570024538
Na 10.667821405987446 5.479136766722539 11.678377474098957
Na 11.077583840105735 9.473978239574521 6.702283784213758
Na 10.835496240624986 6.1999450207615805 5.678061828952442
Na 11.748710279422522 13.078827870839667 7.21306433999791
Na 9.736676036358798 11.777062661919324 4.669142983464801
Na 10.564891037978054 11.01919062695354 9.7441534436523
Na 9.74776661486129 8.55840574111452 3.4314087622035734
Na 9.822233100312216 8.727662097183764 12.163348771451895
Na 8.161375111889724 4.12111834725703 6.620810631896545
Na 7.890532886892047 4.381294720038948 10.007568371690112
Na 6.7675642990157145 7.182193335057491 11.718787164603642
Na 4.745817323243815 4.559636505401367 5.84605859841492
Na 7.570781339136749 9.406245828385895 6.024841300244489
Na 7.083199685784809 6.513529292214179 4.277829954324092
Na 6.306400415421155 6.829499866945121 8.025340982105327
Na 4.443520133969831 4.936217325419184 10.348873005775415
Na 7.35894887880725 9.795921630170485 9.665461633408523
Na 8.07475651769074 12.422737076416212 7.628123102502553
Na 3.983339096273906 8.540309290689912 9.973266794126815
Na 2.521594257202049 6.293793770585449 7.807971067015538
Na 4.827961497290878 10.995853337317946 7.544738921212113
Na 4.307587708795237 8.16420872928833 5.5858035250199105
