22
Energy = -19.40460095 eV
Na 11.52025310876053 10.039866343036687 6.105062207107255
Na 9.336302185120473 9.70395045386958 3.525991472127995
Na 9.961088940185311 12.774899198708368 7.1920151760206235
Na 9.566203332411607 10.14434119433855 9.635549712871546
Na 11.12483200466355 7.139988743355601 7.812234614406575
Na 7.336455298026102 12.835940427303562 4.893892200685655
Na 10.204268437004199 7.383447902123973 11.49271445021444
Na 7.035429326740728 12.671554849075552 8.862535728449735
Na 5.995491261291199 9.319416114991263 3.738651257222715
Na 8.000745006042964 9.844926160775469 6.697626090995153
Na 4.839995654519441 11.276573971657351 6.584948351528278
Na 8.214894309647283 6.716236589008747 5.178357365830167
Na 7.948779380072646 6.806980061289071 8.766684741521544
Na 10.694046277656 4.380187993021367 10.061470692952648
Na 5.908581467301486 9.506013591086997 9.55733293522573
Na 7.209204766638675 3.8882351885120903 10.56518587999497
Na 5.0848361819664145 7.6915381775448415 6.620385852622795
Na 6.829523750815255 7.098505450312439 12.041517851141442
Na 6.290288429154193 4.178910647379252 7.174429240876353
Na 9.696635779579344 4.079289439697278 6.784176317113526
Na 4.533509300607868 6.068793660849511 9.63951461042234
Na 9.042812556104339 1.4330672541514025 9.076990267367218
