22
Energy = -20.21053823 eV
Na 4.999106201678307 3.2401653582251195 7.01086419696013
Na 4.498611792215299 5.563958071783959 9.517338129882335
Na 3.383529548221632 6.282721116497661 6.369318000196438
Na 7.764243972880905 4.731968779154069 8.810951793782243
Na 6.736755441690052 5.700349584820322 5.4097461528324935
Na 11.158676602318 3.9152688698607934 9.006238693208946
Na 6.71157298616699 7.230239564190738 11.364688505508502
Na 4.400213904139097 8.840355313579746 8.811827339831838
Na 5.211450062567705 8.880940167537808 5.249430394558454
Na 10.02924796021214 5.972443853891675 6.444923436727195
Na 9.990449437305097 6.433957901843041 11.014538296878081
Na 7.75718027108966 8.329261164769363 7.78856055142275
Na 12.592325026764772 6.967350847438305 8.73883762824213
Na 9.13746433802145 9.006783001044264 13.180517498640315
Na 8.580513821725344 8.123366299084426 4.071401236044001
Na 7.34359193635506 10.460305090270724 10.517549943633451
Na 5.684907258188479 11.66837903342824 7.761447977774358
Na 11.225247321294246 9.201356182991725 6.589981733209588
Na 10.318351259722832 11.115376139742075 4.016581463257049
Na 10.63951054357313 9.704213267510298 10.055765085407474
Na 9.10335902399015 11.708975595879767 7.609923804753754
Na 7.146365341715282 11.50551111640827 4.666702796400445
