24
Energy = -24.05089522 eV
Na 3.0874352778076415 3.7763664004378823 5.068226550810828
Na 3.799295391959385 7.541398400267679 5.342281839999418
Na 5.570090656712042 10.838751597717442 5.988707989901799
Na 3.7600834960229186 9.06527766861703 8.694714275849751
Na 6.502650345708113 5.039335435925146 5.103711039076132
Na 4.220955023216619 5.364497357942425 8.093082019266674
Na 4.806452576178276 10.160666623294745 12.129855339905262
Na 6.189132411228185 7.258675615531632 10.780351315613206
Na 7.339124937833793 8.400030632941473 3.9311842905002727
Na 6.6992187456739964 7.847620381722385 7.318236378707414
Na 5.771925033887025 2.1516316521109347 6.705665308378727
Na 7.0542402083606275 10.825607013646053 9.415655486143645
Na 11.007548797560862 11.162336070931643 10.044611211949126
Na 7.812347866199705 4.793424529820115 8.72312084985538
Na 8.26286451205641 11.761770194133698 3.6153342007034186
Na 8.625647101821302 9.66861972841113 12.345446415138133
Na 9.242901284134707 10.38867317831564 6.689761195364167
Na 9.386595921037733 2.982070692144051 6.335186005874511
Na 9.810950964117595 6.595227034771419 5.944546845400649
Na 9.533660033827516 6.062316079606279 11.91921032757016
Na 9.567766282630886 8.112058520666496 9.30618132337041
Na 11.017903062187745 9.25087042224073 3.886507476305732
Na 11.430175105818583 5.161819260997907 8.68401056519821
Na 12.41453723363455 8.793390802914177 7.508900208600123
