25
Energy = -25.58221847 eV
Na 10.054390584151726 8.639354400051054 3.0371333011675263
Na 4.681048541587274 3.41431716507065 2.462846590537156
Na 7.403955466540328 5.921460982747378 2.204454351025362
Na 3.0528779051748045 9.19762905243228 5.603824544065635
Na 10.621732499347763 5.064297040678447 3.746509704542548
Na 6.333572972311562 9.183151878457124 3.700485267864119
Na 7.4280152958700105 3.2665923567054955 4.752350495177875
Na 4.642686775659452 6.138404682717894 4.594252324912191
Na 8.518900838922898 11.88688724488612 3.2325565555597473
Na 5.718212516254099 11.72279526594908 5.975745283613251
Na 8.175574068145055 6.714880762728966 5.498610346865446
Na 4.018015249963196 2.858232034974377 6.0592703909690755
Na 6.236326124080068 4.97324512032248 7.698385393367859
Na 9.755507372148873 4.084482984044511 7.440972075964549
Na 5.793905941940467 8.552306590943275 7.513337989477493
Na 6.795182210937715 1.6204921937561103 8.125512516368541
Na 11.413530301720202 7.309491832434134 6.463197839196888
Na 8.90194907538532 10.031356214163658 6.273924196032283
Na 2.801082809494022 9.102325780690045 9.287340733508062
Na 2.8170644515939793 6.016344868327945 7.702516293148152
Na 8.742764110202383 7.218573236365545 9.020352418522952
Na 5.143135290058855 6.654669590796667 10.54693957769674
Na 7.771696597582842 4.039084400131963 10.620845432361781
Na 3.9977648878253755 3.1752452136693363 9.952158417521138
Na 1.7200740361110087 5.7533450299646 11.0254438835421
