23
Energy = -23.35204335 eV
Na 6.6304849692409356 4.642949051968518 1.5160432130788322
Na 5.958567787614625 8.111192805308834 2.387002317286326
Na 2.628514334467473 9.049514261923028 2.6218141760869633
Na 9.370980347949926 6.629135687111678 3.2673624292864765
Na 3.442021090206571 5.51189152551243 3.2731963437003766
Na 5.018488552053432 10.944349395114102 4.611734111853527
Na 5.289290734895509 2.421516843684821 4.365581719882615
Na 8.850735068231987 3.1290537520556714 4.260195127843628
Na 6.492193961115276 5.612528989366917 4.866232847983866
Na 11.259443529593494 8.61553347284288 5.746063529929942
Na 3.854271129080444 7.940994176045824 5.801320557618374
Na 7.769233251562267 8.95598410542731 5.472914283532603
Na 6.458552609044035 6.574263000418439 8.08222199101303
Na 9.687962143822784 5.622904728015296 6.73669030841792
Na 3.7936686735883263 4.472256386303472 7.010056399654759
Na 7.0851243183707675 3.1162102381892605 7.542681804848861
Na 3.337959550425985 7.275872255428392 9.35033925417137
Na 5.6472278549965615 9.940836845958069 8.173334866313326
Na 8.785377278435002 5.0900399459227845 10.335732719227003
Na 9.189510237670941 8.618089395891394 8.782600834913143
Na 5.2998243823066185 4.37811565380666 10.5674842216178
Na 6.4338707259862895 7.804392023542338 11.39243268416983
Na 7.442913323287649 5.268591314109148 13.563180111516669
