22
Energy = -21.87019133 eV
Na 9.776343549138517 5.440351216785201 3.7234240750575993
Na 10.34090303112245 9.427862293710998 4.391833124898874
Na 12.14758270753931 7.386609608384748 6.41491271086814
Na 7.187437335438067 8.562838641193274 3.488235907518831
Na 10.804214096003475 4.476714175655194 7.534068742649655
Na 5.852583214052459 5.647419783557927 4.6054534511658956
Na 7.649028103698074 3.604796818158699 6.6392497207333205
Na 8.527585596149958 7.134828907147132 6.554677725972784
Na 10.60750517448502 10.236511290288988 7.793131955816359
Na 10.905257897661825 7.255516326562774 9.687677765620514
Na 7.6160051106262605 10.93224015325956 6.034710246515843
Na 8.142343837853455 12.292455844421614 9.228321614723027
Na 9.97619389768741 10.26932460984735 11.243402186691455
Na 8.201627928270259 4.972615480433119 9.831658767261747
Na 7.294393643879059 8.762100692442676 9.294452644302906
Na 4.918100799497149 8.637335222201354 6.1692457139224395
Na 5.210718467844956 5.662559518442186 8.065327423724995
Na 4.991199307239172 11.408484934659784 8.317197175909307
Na 6.007519625913852 10.420366472656154 12.109401198299967
Na 8.642147242074559 7.362050980998411 12.371885603885143
Na 5.488668932924004 6.479381663678672 11.476204494535953
Na 3.668331514735732 8.498182002840739 9.449786727884812
