20
Energy = -14.89069757 eV
Na 7.512822764662546 7.009577769571707 3.2074757531520603
Na 9.340739602275622 4.140175449954773 4.197034361883384
Na 5.800447676010232 3.999584987005347 4.257480134949396
Na 5.9094864225841 10.041784615266744 2.4770496424417705
Na 3.9711806274485633 6.893517062363877 3.3506907472055794
Na 10.570206128039253 7.185749435950183 5.1911670511263575
Na 4.765091460297531 9.387571459461864 5.715959923474122
Na 8.258579951760671 9.818028978224959 5.26495417701438
Na 2.3437306394557202 3.6673684785035685 4.603483042378936
Na 6.680720286179151 6.502040772259062 6.671285179066143
Na 3.084939210730606 6.342474095385876 6.721122229925121
Na 10.630176977809459 4.489387920374524 7.487382344414218
Na 3.8947078036762295 8.830813386207415 9.106270179180386
Na 7.876175032505024 2.3749891989067593 6.7526411967133875
Na 4.53480463347625 3.195641935055097 7.480775729181065
Na 6.74365050943726 7.851686445179775 10.991252258693166
Na 9.378078208059083 7.734252099803838 8.509321701864486
Na 7.596672265848699 4.672437446686308 9.4824500936165
Na 6.923685608556052 10.332103450359368 8.472411322574775
Na 4.200552597822213 5.547263420113366 10.076241337779937
