28
Energy = -28.68506674 eV
Na 2.7287612613359067 6.763471507041908 10.991461557780342
Na 2.335667797666726 9.72141369956957 9.128872880461655
Na 6.200782837748036 6.152821787327447 11.845931859565328
Na 4.918379318747918 9.54427564761198 11.79009893571963
Na 4.520360792004544 4.2321906395348305 9.350214549436398
Na 4.716285558266425 12.376182761638072 9.567306197609309
Na 10.111911825370887 5.839805927622739 11.561850128089125
Na 8.33980280410657 8.65939951510593 10.418001749374367
Na 7.52948935494324 11.942028133477052 11.521511102411397
Na 2.7051435802622845 6.613199114951478 7.208679341030535
Na 8.05059436018619 5.070296383781723 8.93723427948787
Na 5.93891355978333 4.9975252973297986 6.120482016059715
Na 5.519880354438634 7.933035266894025 8.527957266132226
Na 10.699840966936817 11.3418336160442 9.62275991290541
Na 12.810179777441832 3.2941619873578594 5.349250772380982
Na 5.07658104638636 7.965674345159924 4.7020827984680045
Na 9.423528273558553 4.108342035111369 5.576426260196094
Na 11.620219967011435 4.508169514188055 8.414149793846072
Na 8.646151861714664 7.68702942423397 6.5587013183434575
Na 7.675361730260084 11.053560920244097 7.883212646169389
Na 11.467471364156696 7.975625035071631 8.864433622838806
Na 4.451934525691324 10.865363353130691 6.451891227286127
Na 12.372491842479786 6.831513778384486 5.661732396328686
Na 7.946422477553442 6.434072043606935 3.2520803240759557
Na 7.720635827744431 10.340195793366906 4.353480423002236
Na 11.223505483280306 5.139922703143184 2.682562273008448
Na 11.047360190229949 10.413462785460322 6.1835792937773295
Na 10.756711473114297 8.654977325576922 3.176153548839992
