20
Energy = -19.71451348 eV
Na 4.110101780266218 7.034223120305371 7.505741323386417
Na 6.563263611957064 4.629747309797904 6.1946091083817
Na 6.694487623704144 8.157102016256594 5.580260440821935
Na 13.043414039176215 10.71958281091015 5.590465510113576
Na 7.414720896118327 11.642201157893455 6.517946100569095
Na 5.2128071598323515 10.858293402743515 12.440873781268147
Na 10.800028855967893 9.85122640042234 11.266234256614014
Na 9.703436405094116 6.163902716721186 6.803429370662751
Na 10.308071956431974 6.259402295703773 10.512243616354342
Na 12.14290036744651 8.402216400191476 8.333114637411326
Na 4.397285963568251 7.827739504676505 11.049997843388779
Na 8.45180222685318 8.93136801730495 8.653182444745246
Na 10.69910076124164 11.730753269838237 8.05373628499329
Na 7.722914090422817 8.372381809438302 12.158981722072939
Na 12.777967171713497 7.232271539232445 5.114056414666919
Na 6.902444491292173 5.885907977029459 9.50402027873763
Na 7.833382607115418 11.872197300679366 10.392272062710829
Na 9.894391978300558 9.453273461236375 5.252185534939578
Na 5.012894786532211 10.299381194062079 8.676597771899635
Na 9.097982805244726 3.323816439076141 8.7264814434092
