21
Energy = -20.894161 eV
Na 12.242798936075154 6.861357753294768 8.277259390253164
Na 11.752492280232094 9.988396756428132 7.083774109504241
Na 11.066969265483714 9.458973401047595 10.703051818875696
Na 10.428648212436148 5.799544822832504 10.926417941857828
Na 9.481431809849717 12.03869406986586 8.533041871500913
Na 10.300128622193649 7.302617107776197 5.35292325379127
Na 8.737927290046823 8.314733779534867 8.654755370236732
Na 9.51160133122595 4.715471396045884 7.695300909204369
Na 8.153644394202693 7.830105899532091 12.382005193380826
Na 7.6891566903832995 10.95496383844693 11.182500208054918
Na 8.612737060336054 10.439324054428079 5.525190907547878
Na 7.027562961682193 5.3042553124482605 10.189263461287345
Na 8.043210851185343 4.781894065292645 4.513732576546155
Na 6.138736199171918 11.028609797423753 8.023840436399675
Na 5.349711618567402 8.446067814316743 10.354550636966708
Na 6.272163760768059 7.113768556213989 6.494102766637898
Na 7.53096651328664 7.9708797375898355 3.3095801283903064
Na 6.217758248031288 3.653147573184978 7.212838912407367
Na 5.208905567245533 10.032922892923759 4.803531313174801
Na 3.8979433617070183 5.711185992453053 8.710275964890188
Na 3.4005677412254642 8.903730746026824 7.503732471923778
