23
Energy = -21.6108331 eV
Na 9.04314766976987 7.376875374188689 11.005029134421045
Na 11.255745405185296 5.176402054096426 8.885931532386653
Na 11.14650810642017 10.409621959155851 10.971420332910911
Na 4.808423506710594 10.24920583698776 10.824725929075457
Na 10.082460739648935 12.34138194400524 8.522333836246819
Na 5.225320200473933 8.211372248033827 6.478412219040914
Na 10.555838801947747 5.930897149923658 5.389254149108643
Na 6.163707112083036 8.003041085367713 13.106211668675686
Na 5.121363780982302 4.7935153446793475 7.240255365261064
Na 7.418476521284833 12.146866201637994 6.1737899956598055
Na 8.014057883948666 10.723556925098018 12.079227234146119
Na 6.782094663193159 13.016787873882937 9.617874406666449
Na 4.47188083801551 11.238880393903813 7.625669549711661
Na 12.69533930500617 7.5317934820014525 10.696322187165725
Na 10.730676071502133 11.456025639087377 5.2621632921053
Na 8.142538541244514 6.433584112141257 7.819595858236911
Na 8.554256822220738 8.90508137796687 5.056883955400259
Na 10.930343975849114 8.689042777157214 7.7461624581361574
Na 5.484147441623604 6.788387244413697 9.992272116324335
Na 6.976073675229 6.005700405035303 4.496216880723318
Na 11.447075190214358 2.59557550241862 6.676633945562733
Na 8.137525527645781 3.297574790499768 6.452859246905689
Na 7.626278731648852 9.702076014940166 8.69417502787743
