22
Energy = -21.98741578 eV
Na 5.23266672620354 7.24119942334156 11.067721951849576
Na 10.558782800476095 8.839362222246699 8.917482777328608
Na 5.7956361971467265 6.993052395537918 5.152601591347418
Na 8.135623018875918 4.13709359691867 6.308637592941611
Na 5.898017178438883 9.577576808699005 13.505366771794458
Na 8.251749691471124 4.361869535631572 10.13874476565285
Na 7.1415870465022 10.35619417208574 10.169061746979882
Na 11.182583311353557 5.290022413364581 7.67173980017085
Na 11.168742861197048 4.263281805054101 4.199191120565297
Na 11.546925204615045 6.2077125486248885 10.969090918019354
Na 4.236460477422635 8.74096865791212 7.941263480058759
Na 7.897592476474934 5.271189358549942 2.9590361734601602
Na 5.125854693655485 12.221986658762749 8.049092281357655
Na 7.765569813667851 7.178989768790801 8.339638825747874
Na 5.1555854544085316 5.176204980512284 8.194503675436527
Na 3.686529447367844 10.743552708406625 10.990278136588346
Na 9.8551439227282 7.411090067817206 5.312672912512324
Na 10.63135568831331 7.060716111993662 1.9096517403651587
Na 4.823875963467077 10.41489971847557 4.7878614450675245
Na 8.605802384996014 7.71081349408214 12.002024498424035
Na 7.8324224674192955 9.051561770012555 3.004994731686838
Na 7.759058836669234 10.209209972043906 6.519699048032875
