27
Energy = -27.87166004 eV
Na 9.448043825286318 8.166458341908594 0.906370265697138
Na 6.224326099894384 10.395619590017558 1.6159693609684382
Na 6.1507194800999425 6.884967903402252 0.928750464799298
Na 9.344354532313172 10.819499482604085 3.2918185038573364
Na 8.943915300310485 4.7732631662958855 2.960561474586166
Na 3.9700917829637214 8.37783184799028 3.573187764503621
Na 11.066412843777462 7.585582575068706 4.218481088579831
Na 7.626927826224783 7.913797081152124 3.831313485098914
Na 5.59599635870543 4.991822741971826 4.215641004497967
Na 3.6321956184827457 2.406449499288926 5.821049048722725
Na 6.202274054439819 10.876792705894362 5.34358424918217
Na 2.6731675668625554 5.934741579009079 6.1973033505118975
Na 7.537608559822632 2.3836993432611604 5.698433388677417
Na 5.888374947783378 7.582999697974723 6.702944632338752
Na 9.114397499114151 8.983197429248843 7.019092421549765
Na 5.67764116053516 4.462718516615362 7.7663150002593095
Na 3.1049246884799775 9.55918397310335 6.950230929999166
Na 5.356645040381033 1.2560290407561974 8.906383178458782
Na 9.231276607819446 5.407173681146371 6.4878932607939435
Na 8.480556952772364 3.1985910928786057 9.372644673677627
Na 2.469624932485067 3.5811460413872176 9.069824081032456
Na 8.043682552413292 6.753145735904855 9.607675832532461
Na 6.14344857406006 9.835904453773061 9.22510117828046
Na 3.814601249044879 6.952184947600995 9.619850820064583
Na 5.3373777574598185 4.081625761682983 11.275270659151701
Na 8.50244271761889 4.871590503049414 12.561752807943952
Na 5.941216467793574 7.486228263957904 12.354802071179877
