28
Energy = -29.02186971 eV
Na 4.532566074462458 7.887411485848602 1.0366173899452067
Na 6.85750837253809 5.025163996283079 2.3071702081137624
Na 3.1956032554442073 4.725267523179991 1.9206989329656619
Na 7.519099316710857 8.642203246532251 3.107530018385086
Na 1.5454201095596043 8.012357330630925 3.122290646854453
Na 10.213934706837152 5.932843221470727 3.678010323196117
Na 4.251690170234699 10.364436578161119 3.874726907476201
Na 4.546843312756361 6.783663616344069 4.291585408941966
Na 8.940034766955455 2.5669295417499387 5.199089285248272
Na 7.379330435543075 11.61166330667582 5.116980939823041
Na 5.134562439610601 3.2755488167161544 5.008955310085476
Na 7.546518393552758 5.680193301999256 5.714792695607972
Na 1.863431032337606 5.036116749188035 5.483442439422923
Na 9.60140599583484 8.590955574905541 6.134195420805936
Na 2.621110922339113 8.480984244129894 6.731963836575093
Na 10.72804470381892 4.90626878858461 7.395881332427883
Na 10.362154068352366 1.5964353107644866 8.58980454996679
Na 4.444302797933013 11.572298090135668 7.334922145656328
Na 7.271715014853755 3.139407924499032 8.266642420816115
Na 6.10533114737958 8.73447977421318 6.623644502291772
Na 7.899375062373354 10.30804696062535 9.142709891825145
Na 7.80423683369504 1.5106506188361026 11.250136489104602
Na 4.517071964768654 5.532194965697871 7.965143155376721
Na 9.799423128703793 4.458789537492235 10.852815705407927
Na 4.972765586480779 8.388694841722169 9.985690261263242
Na 8.05831918227841 6.752325558474714 8.895477705006323
Na 6.196625273859747 4.8351827920112065 11.191314436862903
Na 8.319553584664915 7.877463957007528 12.005745294426301
