25
Energy = -25.13909348 eV
Na 2.9778022067844327 9.07362107879609 12.086448661663661
Na 2.3225922764186917 9.61160547757339 8.619918352244259
Na 6.306269828176304 8.010789592086741 12.844317153447205
Na 7.887446446537995 5.741115066148135 10.592954128616892
Na 4.466964865220842 6.881034993247011 9.911079815985989
Na 5.7311761362034375 10.098143677495893 9.791616865229459
Na 4.9295240890745236 10.798971417255144 6.396495158185008
Na 9.683463180745987 6.91655933531456 13.267165068019267
Na 11.434090144415755 6.42870167638243 9.927049688427605
Na 9.072557090966646 9.087461244702277 10.348027951904903
Na 4.086093883787624 7.30604122201768 6.247507684903482
Na 5.999709798527618 4.357829316301606 7.9753956936211825
Na 8.448271648332787 10.99358192958409 7.081603105508373
Na 7.438324404198089 7.7223696675637905 7.526903875609997
Na 3.970145694708418 3.7111660813467773 5.268345853711642
Na 11.01410596002816 8.551802315215179 7.091393334150025
Na 9.583422250044835 4.8263496206503405 7.335884535633864
Na 7.265242196610421 12.275400456853884 3.899572710436518
Na 7.065968072592438 8.912747446613036 4.117405261549789
Na 7.544861601438181 2.3820685044504484 5.592086093868605
Na 6.75228092592054 5.544587373972156 4.557141112398945
Na 13.021729400824938 5.6575447060548605 6.622041598467665
Na 10.303689934617411 10.254302728127012 3.8995647577950114
Na 10.039372505824495 6.68644880540503 4.24224611079462
Na 13.147666891868099 8.083809733363871 4.0493280243167
