26
Energy = -26.13246883 eV
Na 2.4304441836737563 8.014792973413053 5.466032161131795
Na 6.344956987302769 4.519047716237196 10.353877906324028
Na 5.7255867517201064 8.695842264683348 6.112377563628549
Na 4.2067389922362075 2.496375497483817 3.055043703841892
Na 9.872791447899022 4.525824203143076 1.8264260290871839
Na 7.981534165764392 10.457664058497729 4.240630828964351
Na 7.230012605895027 5.570605345315409 6.982506222020969
Na 8.198439883162681 6.855263527245274 3.837669782621065
Na 7.144337560930416 11.119216411203263 8.18633025704988
Na 1.892733621467144 4.28034003137683 5.7544033496196505
Na 3.800027617572628 6.1632551130971525 8.233501758261276
Na 8.598373939479535 2.5976584740250086 7.90615482505154
Na 5.317906616382459 8.414149131150365 2.5106652360215644
Na 4.1604999572836805 7.294375729402942 11.733035187163424
Na 3.7775081608164847 9.622873031226856 9.16462580061748
Na 8.208761996351868 7.629862234708815 0.5010442911222456
Na 6.867767084874266 7.945350843351387 9.547384844985782
Na 6.305381886495929 4.7744813565787725 1.2909264601864794
Na 10.47907460162951 4.981256343114697 5.833924506147458
Na 4.994933982797807 2.904922930233367 6.935727323544332
Na 7.6384900128509985 6.984534373125413 12.720364351778594
Na 9.731758008961778 5.728467895619208 9.43362133179635
Na 7.647987421780701 3.1498628048801245 4.217009931943501
Na 6.298639811059685 10.347212176030764 11.809750028370283
Na 4.791802774135148 5.573603273397068 4.502614340039326
Na 9.381338606225258 8.380990940208498 6.872180657431328
