20
Energy = -20.41433583 eV
Na 6.020156074995203 4.684307023812247 2.1677270614206177
Na 5.680164575907128 8.464383568736181 2.036449204327872
Na 5.108348879964024 6.568377685094926 4.916225896898762
Na 7.620202614614311 3.656923559505204 5.139188377571482
Na 8.523841047506211 6.896460723014412 3.6010917596070438
Na 3.2781061424541753 9.492025033129698 4.786627895753425
Na 10.322151681017191 8.91007284372497 6.094284766506918
Na 4.025139774793307 3.3291388333901213 5.109008709160392
Na 6.881402673709887 9.789256330070875 5.169482075112647
Na 10.64007619809651 5.2394360072306085 6.151676240065217
Na 7.626776238787643 6.843972499922042 7.051474154473986
Na 2.255109417620306 6.447646729778614 6.802977283877703
Na 4.938609943189396 4.673129374452252 8.20579863561899
Na 7.9555567385816905 9.940606826945459 8.715197127960499
Na 6.158742795296338 1.3968850878075747 7.3265977037262475
Na 10.245409554178192 7.109246952306423 9.298487190582474
Na 8.391589963395923 3.910221307411715 8.734099714250961
Na 4.64355003749483 8.854764930960435 7.981433241158918
Na 3.028735108369768 6.867874516169358 10.331422599827121
Na 6.661929848876966 6.930869475385725 10.386349670947718
