29
Energy = -30.16866863 eV
Na 6.8894088953843 4.499252960244619 1.0249082812849148
Na 4.592015489418544 7.501042009465111 2.6426462394323176
Na 8.332055923791668 7.32338301348246 2.801896919539128
Na 6.827441662968209 1.4381201075644654 3.4525538408144123
Na 9.590387565826301 3.87501580303745 3.256166583035904
Na 6.288646712573521 10.67897933609888 3.784786567479408
Na 6.005462769237386 4.691083676407037 4.311537343995753
Na 11.662142837624277 6.719374275227356 4.282999169669586
Na 3.0672425727426265 9.801099089839568 5.3788318490546505
Na 10.164384925257055 0.7404456942969658 4.848646405391907
Na 2.9748817298335597 6.064477918591148 5.699476910165121
Na 6.131430769200918 7.946045987393928 5.684561834831898
Na 4.114144894547448 2.5664822766778697 6.365179702224869
Na 9.3387789431403 9.421375827198355 5.733033389497918
Na 8.852548551238103 5.915247588149102 6.163521897084653
Na 0.8490931553516052 8.133881162232166 7.977433271691087
Na 7.869099174897048 2.449788196441209 6.725701249259141
Na 11.46408991985015 7.147973581962806 7.894058390188052
Na 11.42209783932845 3.6357572720357605 6.664260183264048
Na 6.157522230258448 11.125104034768661 7.4296344548488396
Na 2.7234070464792786 11.107393893891228 8.79774414271099
Na 4.251630754169003 8.102824678552489 8.49585532874413
Na 5.888721403252395 5.040059167580605 8.006929577500786
Na 2.49296523766356 5.001167798125881 9.117753924108948
Na 7.948115838718953 8.200909253527236 8.932618017098878
Na 2.378317587150786 8.119394136714225 11.304649703396125
Na 5.463339772652423 10.13240013190244 10.986661565218936
Na 9.052095098269653 4.7677913217364996 9.518452561685399
Na 5.743606496773576 6.389205604454193 11.252576494382437
