28
Energy = -28.71602589 eV
Na 9.677169684629382 8.817520448901202 9.825762634589152
Na 3.2093883973945 5.276878391425931 10.578395270403297
Na 0.8789577095255847 6.929360870302488 7.826624494171713
Na 10.482228661804633 1.638448681422265 4.806257621513988
Na 2.8217432374126297 8.877327121561692 10.35871288384068
Na 6.656222375905683 2.0429796483534157 5.775765146316472
Na 8.969242832782133 7.410390425768802 4.210819125364982
Na 9.144125568274857 10.165038891797389 6.512587898097184
Na 2.7251318423441155 10.124335953124495 6.987938122628842
Na 3.3840643892494304 3.787772500777285 6.915094323894777
Na 9.842485700288586 5.11305598672886 9.70431768805516
Na 6.00165559707714 10.07487911982451 8.6588814420815
Na 9.32427011565441 4.38700046526653 6.288783819230019
Na 8.261024064927067 4.06256984070077 2.9169511768644605
Na 9.723067562900681 6.604441452781503 0.9469455605470626
Na 6.400099596068082 3.918486377058184 8.775438914685513
Na 4.3597159091448505 7.021295070521292 7.863323833089236
Na 11.669462892660075 5.031171378802898 3.667358375261945
Na 5.94570119101132 5.3612500465276165 5.165291524316082
Na 11.669462892660075 9.108418378431908 5.1418656515880645
Na 2.947578499446294 10.081179501354653 3.278840342285669
Na 7.828050622780161 7.173020365530057 7.5370352392738305
Na 2.789196921297887 6.939814483430459 4.736271225841956
Na 9.381907772386072 1.693835925657897 8.384618448899076
Na 5.942917646045131 7.250283765666796 2.192999737361911
Na 11.492139531372889 7.099243269747974 7.00257793330732
Na 5.841243558739549 9.091063941198477 5.181241142452573
Na 6.4094882357392695 6.960940392707403 10.801303119410806
