23
Energy = -22.89216731 eV
Na 11.753205312537464 12.650169626634511 7.1633246402861595
Na 9.754604207161082 9.411387952027114 6.473344208955203
Na 12.451283185206478 9.575665881867282 8.764702491887013
Na 8.553014765967673 12.72316082124404 5.729427141970121
Na 9.227857770573637 11.372245242134742 9.357035640394972
Na 9.79892298430296 7.8947489018261825 10.414946198403214
Na 11.165432326670572 6.291055159339642 7.543104789133039
Na 8.67089196963565 6.454524978084857 4.669243782340269
Na 9.742421261472648 4.303140802761941 10.079422760289686
Na 7.0883035076014345 9.607954766923694 4.014178974403634
Na 6.322772272436809 10.482502834655003 7.343304882792496
Na 7.671162200534713 3.3764865993884445 3.1330737135290825
Na 7.520552891181802 6.8065513701979485 7.957813462124364
Na 8.959797204423007 3.4925008694922726 6.66691211507575
Na 6.847477531134412 5.887889940157407 11.56195919182755
Na 5.657629578384929 6.434079280032282 2.8910204854477306
Na 6.479293155245836 9.280234686930026 10.57563627470914
Na 3.3144130107545373 9.580540847974742 8.904835122941977
Na 4.475698280690088 7.890029717872467 5.866468807600401
Na 6.439447279872493 3.288606619152886 9.157916891082957
Na 5.491639147712638 4.472308509597497 5.887187619712423
Na 4.277396358586895 6.191907013447216 9.030865225420108
Na 3.688279624700304 7.882079891747159 12.160976345688537
