22
Energy = -21.61095341 eV
Na 5.930283186290124 2.992189246563602 9.805921604690342
Na 7.679240278832582 5.624363749477633 11.027802208986179
Na 4.376764835659667 6.065846985056868 9.987298569959131
Na 9.32608644375892 8.508799171468125 12.105434410440061
Na 8.832020119518175 4.023625382290722 8.112285554245222
Na 5.867052490213245 8.77582406648027 11.639690587368694
Na 5.5861737576404895 4.79830049790972 6.967064194779664
Na 10.11101936995561 7.171889480008394 9.013326093187775
Na 11.576945391255641 5.30524090153553 6.453887258007183
Na 6.846432533988926 7.934837301905484 8.32572720726869
Na 11.464456979776658 10.34777931505348 9.901602634349306
Na 3.5183543917941424 7.86819307075808 7.105797284256905
Na 12.566784694273466 8.620532526787077 7.2233300882605125
Na 8.147461726420802 10.905609763839477 9.898261788707815
Na 4.695535827180094 10.719742420148222 8.89233153570747
Na 5.909818777358604 10.039977533742498 5.559554530078279
Na 11.030195594960952 8.00216035541245 4.216876654388913
Na 8.390235041002015 6.472093585768549 5.636945090808262
Na 5.265132229261218 6.920457304586441 4.224251350761326
Na 9.38029632846953 10.006782108736898 6.612308160911898
Na 7.121040602775672 12.617038973253631 7.253332386656303
Na 7.982049947160976 8.974139237974436 3.1363958649486774
