23
Energy = -22.33844933 eV
Na 13.249020087171353 7.176416640200046 10.851243598145498
Na 11.955674345894312 6.3858323533875865 7.735065527844552
Na 11.53502651170069 9.617810759622182 9.030064201872824
Na 11.253911358486608 9.321580538927945 12.49540896251172
Na 11.240616983696157 8.84140089799814 5.5412557681404495
Na 9.697045637087951 6.786321008976399 10.642873177284109
Na 9.265759912562027 11.45390794270919 7.368898416024345
Na 9.073511795256508 4.670613398995358 7.607244643541018
Na 8.560643080716106 10.414741452801715 10.715604893954646
Na 8.582264489832628 10.081238128685817 3.9391698486110296
Na 8.39043736504321 8.185064031004433 7.643046301329259
Na 7.396308393052247 3.3832275478473184 4.867858282694593
Na 6.410468040558506 12.206069005832205 5.495506766461072
Na 7.183031249589075 4.593992014649529 10.612725546766796
Na 5.969154981436563 11.00944426962819 8.708156825049706
Na 8.151580782802172 6.6484693892990725 4.4711598676254045
Na 5.911946366097427 2.927205575511349 7.885561635648604
Na 6.243005076170312 7.853432624893973 10.430073636470265
Na 5.550829678516693 8.921822434563971 5.298994183695743
Na 3.8829490458255025 5.304901004890833 9.667712843960775
Na 3.262189383330086 11.433146002195722 6.5215566569850045
Na 5.6351189729855395 5.96982700943571 6.728659203291747
Na 3.6215724267908818 8.386033885288954 8.194633889156181
