25
Energy = -25.65268195 eV
Na 8.984590848956122 4.205274475991292 1.5546140591409734
Na 5.1994880114974595 5.531566896816126 2.4941991811105217
Na 7.729183879660422 11.011480336419439 4.179421182117554
Na 8.481135020291172 7.815425888984405 2.3033192598456256
Na 4.586888584839195 4.531715462846404 5.801270825319142
Na 6.671493583196558 2.3199868069612726 3.7392389887826107
Na 11.402135812570702 5.897749699834258 3.7597164846111095
Na 10.312883241000943 2.601073248280184 4.612469362364617
Na 2.428757256373231 6.997857567441104 4.557636648121629
Na 8.048673211527154 5.309290629212836 4.6419203374462885
Na 9.556993228392681 8.461985052183104 5.760275152373275
Na 5.757855270574455 8.205840554023132 4.688227906874164
Na 7.578314536441761 2.931547430330317 7.3299195313127505
Na 10.555133723130156 5.187631980444836 7.22298331630536
Na 1.5586004283354546 5.403881670096027 7.813542959320123
Na 7.157434519702226 6.4903440086526345 7.626050480920289
Na 3.973776925389278 7.837484629340316 7.69817245069027
Na 6.835935363002868 10.035021140657399 7.672735387141104
Na 0.7757272147387083 8.887788780025605 8.140359157771016
Na 4.791789044436913 4.607925613284445 9.4737351045341
Na 9.608590090349354 8.16871825937145 9.331584870347445
Na 8.45096134930319 4.795534969427758 10.318193328120937
Na 3.5669706850286267 10.341489855974844 10.110357309975065
Na 2.474975690082616 7.102360845785651 10.903970400046937
Na 6.026023265947677 7.835334982384762 10.780397100176348
