25
Energy = -25.22292576 eV
Na 9.592075231153133 13.050538539513896 4.392661664560315
Na 8.394437642998442 10.826425889604673 1.822272206520361
Na 10.42862607332824 9.326201005595458 4.347988152300035
Na 7.2274868343547425 10.646437833450916 5.196932987138293
Na 7.643994464653365 7.613343990723281 2.9393548370166545
Na 10.193920068142983 5.811845926879076 4.604166852359317
Na 10.17208992724994 11.162309866208245 7.351821028774058
Na 11.244844239159853 7.58177597048492 7.582961631241042
Na 4.090926845604152 10.949763831998633 6.921044900513342
Na 4.950147458778762 7.897026108431854 5.1930159757394785
Na 7.922854651552354 7.692785333304423 7.340778099353257
Na 6.889890316417705 4.7884484364666555 5.238785053611107
Na 7.0584109029161946 10.871101488724998 8.995003163713378
Na 1.8043432764595273 8.112824788723303 6.8706174342553314
Na 10.08041097607826 9.531988046820285 10.50997099233525
Na 9.696240628965983 5.988437668400125 10.540076301318338
Na 3.8760306341962814 5.04535457057299 7.063523371680149
Na 9.367754472537895 4.091398442498913 7.597681594746291
Na 4.5702925267931 8.167125099559687 8.95024917738982
Na 6.160216811279154 2.130935312175098 7.664282591042622
Na 6.966203228254306 8.240400016848433 11.438167248832642
Na 9.518301602813324 7.6605172232944225 13.735352904773448
Na 6.413656537666339 5.1554986954329785 9.457221165085059
Na 7.319699751665406 4.974245582322705 13.078139472292102
Na 8.051857825964596 2.415410836234613 10.722701716410853
