28
Energy = -27.9602004 eV
Na 9.771929671082127 6.591692074180159 2.145245046638362
Na 6.705246031458631 11.58174309312884 4.66705389790194
Na 9.158333852421672 13.615485349233182 5.805124859388351
Na 7.4811758533317825 8.239786033822265 4.361794717972531
Na 11.06182865061465 8.751774087698212 4.598678174699072
Na 7.24383692890777 4.75703984825114 3.7184168100249506
Na 9.969695952430039 5.537351041833837 5.565731687242777
Na 5.411671218521909 9.545326754439603 7.053535144860619
Na 10.411239053901285 12.911022968428387 8.780453634031597
Na 6.751409033597074 12.605009875558311 8.255859424342473
Na 4.958678523699223 6.310741111258797 6.00458092091647
Na 4.521666472768165 2.944581422680682 5.06897330959591
Na 12.53123061975947 10.602093891394887 7.207521426836048
Na 8.988189282322924 10.140951218049345 7.051770638361939
Na 11.289653149325535 7.513724178609048 8.066820621452745
Na 7.8012820394323334 6.931695261497283 7.972203877200209
Na 7.402301158156994 3.5868200921653526 6.9956827183340335
Na 10.199131640242095 4.292816645308533 8.89353422650633
Na 10.70128412365826 9.911306169847661 10.405709227618681
Na 6.948777922778225 9.613566681194735 10.17097717857881
Na 4.2365467826348535 3.827920580527367 8.44745286656831
Na 4.512163344562062 7.171791789540958 9.42532318690154
Na 8.473043235502564 12.477983542982313 11.601451871424429
Na 9.343176737249337 6.824391148829025 11.09954105314855
Na 7.052057996002504 4.358149881837749 10.44824841590575
Na 8.667401328917139 9.400390320839216 13.272330938211685
Na 6.130966503665461 7.145018006720594 12.53160466922979
Na 3.796037291199521 4.582659920975713 11.848560792796029
