20
Energy = -19.06204284 eV
Na 8.921126778457918 9.674149476323292 10.275611998748527
Na 7.255698538887501 11.863098839791903 8.277713306379152
Na 6.355433699589869 11.520416515384742 11.806660755084284
Na 10.839535875453018 7.541895720902377 8.74103165934346
Na 9.765847527043125 6.589847921155518 12.167399477975192
Na 10.386464854853731 10.710048730340606 7.269476682763599
Na 6.9150614875437455 8.295193147423145 12.760492191565724
Na 7.6645247436725965 8.692925122894327 6.797741887898953
Na 3.914166603707684 12.357574634287804 9.48398221413131
Na 10.39299979083662 4.256216939867768 9.813977322878069
Na 4.457098822702093 10.442314059097038 6.651707035834277
Na 10.746677843037007 7.829811408784368 5.336416219265004
Na 5.297494682497855 8.882348614501645 9.592295476074783
Na 8.553095113009585 5.144085747146447 6.845874763711779
Na 7.38893521797589 6.275131121218333 9.769721016437794
Na 12.142138800028327 4.8331894801637505 6.939392979216553
Na 5.210612055630144 6.300580986364332 7.160122596595242
Na 10.655785204629069 4.602472704965579 3.811697415565284
Na 5.102350327907276 8.286416706584456 4.308736087657206
Na 7.813534942722859 6.575578834608733 3.821402045814073
