28
Energy = -28.4414899 eV
Na 5.999121911307168 12.907610115116695 11.064007425470205
Na 8.955944712568419 10.55193003930181 11.901638207810693
Na 11.696184252777558 8.592655640626564 12.907312540478177
Na 5.869873772472247 9.340491945570788 10.604271035405043
Na 8.849911497333395 6.943305147452634 11.528894851148692
Na 12.654504468922758 3.0906751610141785 8.488388515849815
Na 4.325997212577592 11.846043645279972 8.216131119686017
Na 5.717755833081225 5.828454628873252 10.00756533887446
Na 9.30689096800639 4.1998725940313015 9.419051666555387
Na 8.076272708680028 11.37585525378629 8.552203679634431
Na 4.047914833711232 8.247249632481802 7.72073085969357
Na 11.119090352313544 9.036752571562673 9.416585766149224
Na 5.84765530445778 2.5025636773064592 9.184626147065273
Na 12.17727447077654 5.838137343583959 10.698632330442488
Na 6.352314497425818 10.362307202012413 5.5775171652607805
Na 3.522507988220351 4.830855201970613 7.253019459955507
Na 7.951052163244353 7.716017861265772 8.018571007696453
Na 2.791773012512118 10.447055838179645 5.186496316498663
Na 10.008234160060548 9.783474198225926 6.013515782560055
Na 1.8737397906528084 7.094771402355496 4.898730763828654
Na 6.944990833968917 4.480729000466079 6.69392958732316
Na 11.659124667904706 6.370259455421546 7.2332232080493375
Na 10.309351640236919 3.192600784571024 6.042359973402612
Na 4.625399969472888 9.626513562767284 2.3367810583993305
Na 5.383003046676664 7.038895915219222 4.604663055672919
Na 11.728860268464254 7.920813390160647 3.7037338911498616
Na 8.965591781039732 6.360410770106665 4.810328558602615
Na 8.207208288145328 9.15875876436619 2.8837014934269476
