24
Energy = -24.48702455 eV
Na 7.500686772297361 8.089442948250746 0.39810258830710094
Na 5.970901448245995 5.265311455842995 2.508524695104474
Na 5.024317012882874 8.907060302064918 2.8561671037326546
Na 2.641455236312945 6.059039405249318 4.071066110171648
Na 8.048341621391755 10.818220030963795 2.5990672766187717
Na 8.509532648218906 7.455397187506158 3.675221142866919
Na 4.609337049438093 3.378308513429497 5.605206672348391
Na 8.169846041988233 4.1529232358233665 5.283809551054047
Na 5.556646750324544 6.808014417528429 5.641553783781353
Na 11.166463512089885 6.0193524464376384 5.753544287074165
Na 10.056831919145925 9.924857625370105 5.638160119093529
Na 6.492044571450333 10.210708272964107 5.909657627822374
Na 3.002839049187243 9.109306939963302 6.1043555651763155
Na 2.7823274701384673 5.843705256767369 7.770017473021649
Na 8.469134114649624 7.382540510901727 7.386610553676445
Na 6.157698156432732 4.935071692461364 8.4088510508114
Na 9.600299441584202 4.275891187952679 8.668296480477906
Na 7.169237300050396 1.6473995677071775 7.858524177595817
Na 7.760393988684982 6.826647463795599 10.824889193381535
Na 3.9304965762185304 2.522508086891092 9.414699675267657
Na 8.133693547250429 10.275679021769697 9.203255354867567
Na 5.046386755530552 8.512040158461375 8.962270564998844
Na 4.302601737404339 5.565578164429283 11.319877233289755
Na 6.997903135694236 3.1144119640806758 11.237687576072618
