20
Energy = -20.03411156 eV
Na 10.727352570729733 9.429662682860476 10.060709779399923
Na 8.351876833242402 7.060369220102378 11.902365803122553
Na 8.562222586870876 10.488849198685074 12.731987821147067
Na 10.51696984973539 5.940145363239731 9.207498792581545
Na 7.033665114728988 4.473250507090416 9.881602518817642
Na 10.024791107956807 10.21506575229581 6.525327087659144
Na 5.734874535553006 9.035670035717288 11.199229219137528
Na 7.973893811671416 11.480765473848562 9.320517486250164
Na 7.784793547158778 7.888654503843641 8.411038790876695
Na 12.686665693533635 8.145812749306899 7.217408406157062
Na 5.107724101059141 9.96634433811356 7.741499955931759
Na 4.3676102183110785 6.474999789532201 9.17709814312013
Na 7.285168343939167 12.153494583168085 5.763154869289973
Na 12.476645776338872 4.699637143470997 6.421477335287635
Na 9.804829828814423 6.67299189277003 5.55715121310664
Na 9.1906401219924 3.403472266115813 7.167023927031776
Na 6.3727190474473145 5.242908033482362 6.390619243307817
Na 7.160606831927435 8.636238902944628 4.840607223762119
Na 4.457268223232069 10.656041549011587 4.24287637216459
Na 3.781096338012032 7.428540698204001 5.7163774011035615
