26
Energy = -25.74386359 eV
Na 10.55337167529852 10.828549913690068 9.668104185990403
Na 12.948097409730753 8.352382243191045 9.752983659055502
Na 11.756304623361963 9.620787072536512 6.515896568039341
Na 7.470829240678707 12.755013696643186 9.347181046920428
Na 7.92806221178071 10.247048832275675 11.822611052265847
Na 12.233507447535281 9.712790666044048 3.1316352048982714
Na 10.039923736671831 7.710592869574871 11.626055187431058
Na 11.179725516584675 6.346677607107235 7.764567189125506
Na 12.286172481052512 5.257926821844025 10.95712155878193
Na 9.43973594627977 12.310651204390842 6.716210763304276
Na 4.420753697481484 9.229705259660278 12.415537159282561
Na 5.331814489692133 12.448837067515985 11.971280525222452
Na 8.434885789399493 8.856528949735424 7.790233218745617
Na 9.045397490355027 4.625861197941376 10.015459464401635
Na 5.084614149387635 10.238877660441506 9.247466404229819
Na 9.018606014709688 10.393093159684982 3.949496390368653
Na 6.182622449858156 10.812397424415911 6.096571426822713
Na 6.828364854791614 7.239934493515814 10.430798913193238
Na 8.174023520924237 5.440652568894806 6.803696999274128
Na 10.302367129513694 7.067338829017168 4.340769181805014
Na 3.3106869200038775 6.8140132465394485 10.255172864006198
Na 4.994567890959154 7.573687449518995 7.245774508695322
Na 6.831612182295673 7.764483009812594 4.408306207284296
Na 5.224358833933977 4.649236503715324 5.36127756839912
Na 5.45219388305793 4.391101749755023 8.827031047756686
Na 8.114500946466439 4.562588263785784 3.4659262077805115
