26
Energy = -25.65062202 eV
Na 11.128184360466086 11.621663833128492 3.7739965486262235
Na 10.475796106189298 5.262790602614961 5.804374805445964
Na 12.251189281441949 9.066664639091075 9.837901948766039
Na 12.256956861316018 10.405132192108349 6.771958821668132
Na 11.466288278027738 5.7854793545254415 9.134719634715305
Na 9.148714105470447 12.096456487402163 6.691068912901858
Na 9.44685991339373 11.09385822029263 9.93152558718966
Na 10.645075918241133 8.172553051655575 4.337400980430476
Na 10.880593542423993 2.5469339557217774 8.207089368610704
Na 6.77019869740122 13.26717388161415 9.103257249044582
Na 9.377019991199885 7.857082911374686 11.190346695906028
Na 7.798976682388667 10.094458913637787 4.116657918102717
Na 9.514292230100056 8.398854135737913 7.612780903059652
Na 6.665399357799278 7.006647313582553 8.940853291154264
Na 6.187114350664558 10.118319307919196 10.711461965615412
Na 7.770897653205828 3.8751588709633595 7.239220430789977
Na 6.341354618598377 10.171504922019144 7.299852646398835
Na 7.207678818963539 6.857667602127891 5.475731145298739
Na 4.672846775491957 8.96721835309025 4.1438849158666375
Na 6.57508718439571 6.781113113710103 12.587143714460767
Na 8.603336403644464 4.459614448821917 10.557950989811646
Na 3.7767487129193023 7.827498331081126 10.88031646470476
Na 4.617780644458154 4.657362282817699 6.858756960726927
Na 3.673697515241706 7.997712568435615 7.200791916970821
Na 5.116330678469755 4.344171150927395 10.558187648774688
Na 2.062950774694533 5.455648564090372 9.096094088609892
