26
Energy = -25.7685999 eV
Na 11.182647162635222 8.7482919167411 3.0667640016592923
Na 14.092909034602332 7.338616325322473 8.872644268376666
Na 12.475633225395464 7.958277868060764 5.992658635932853
Na 11.44429861494861 9.638862922409881 8.940651224992004
Na 9.814790165151196 10.413900518696352 6.030072531600441
Na 8.77056134822197 11.999732841634673 8.91807547825488
Na 8.226046311337102 10.078346006213053 3.1145989731690187
Na 11.786757612614428 7.241442192649088 11.35615575092694
Na 6.3067519512143555 10.49915191750613 6.546032150959682
Na 9.202506443396356 9.545895675726634 11.578580509438025
Na 8.80173814390914 7.0953032597907075 5.2381898843847905
Na 10.702613661034404 5.998826464767894 8.199141564797289
Na 6.050713180230699 10.525845052956338 10.315023581015462
Na 8.102827076326246 8.326666697958727 8.517184239979477
Na 5.5973079711010145 8.130429033479501 3.6958017624740376
Na 9.193327183158832 3.6239818459811004 6.080577216432514
Na 3.196442389521467 9.182990232095781 11.98835634470919
Na 6.380531530909706 8.324447707738061 13.09402130745926
Na 9.341343385142805 2.857439936119705 9.499809340032188
Na 3.106298037874831 9.789285106369363 5.231353003905938
Na 6.207691662588851 4.688689740839639 4.725620007784904
Na 5.1051931969002124 6.915390762717712 10.223704576332995
Na 3.213023437560228 9.616057658535123 8.590316883419028
Na 4.834544139408667 7.1036218788114684 6.849531127111674
Na 8.43033696018576 5.9792041381006955 11.189621477509972
Na 6.880973894524069 4.895381610893298 8.234149501145406
