29
Energy = -29.19275321 eV
Na 11.512994077161887 8.09001907539275 11.591958976150497
Na 11.713362925958382 4.718177178855307 11.041875603764666
Na 12.692873822175494 6.630109583093994 8.36103180998347
Na 12.879322521815755 9.952120544235726 8.734084142798283
Na 12.575643455603103 3.081558812758513 8.180796182502057
Na 8.044939818379373 8.543148393944076 12.324318369833017
Na 8.931617831937324 5.295856278653741 12.720983786805792
Na 8.996550177110148 6.84434428959871 9.183809506529178
Na 9.693106952359614 10.409008416650732 9.88625209933331
Na 6.270493639445138 5.091443257958194 10.442806563124602
Na 9.079025018614562 3.3054837381842415 9.218586270771285
Na 10.92234082456152 12.005291921835507 6.9053366896251935
Na 10.302439453702895 8.586432365806326 6.516729495978304
Na 10.45093033313881 5.046208848640538 6.286889934818267
Na 7.043520962691152 4.44360642204945 6.798084231667321
Na 6.797521846823028 11.63899672667197 11.323790811639265
Na 6.648237609849763 8.338982708419957 6.385211043602797
Na 8.626338883461347 10.827387072528996 4.573090387170813
Na 5.859862869088836 8.701821523477646 9.703468428852844
Na 6.529253694152733 9.05773930391952 2.5941481460515785
Na 8.48986037672798 6.553646306116936 4.02736127901481
Na 7.587141241447774 11.766960884548748 7.7925694321357115
Na 4.192548865307448 6.071946624132086 8.00351398429102
Na 4.397338000753733 11.953912983098645 8.966419451303619
Na 3.5462547171898606 8.911706759058196 4.013247513078597
Na 5.056654038325876 5.790000570666361 4.460855624385298
Na 5.235722719893005 11.57858387895547 5.3438187565233015
Na 3.1412058012594706 9.288166337457815 7.403330813292549
Na 1.6984936936863115 6.56643458446042 5.642237363326565
