27
Energy = -27.78414535 eV
Na 6.900946850789944 8.976144517255019 1.2924909841968077
Na 3.810915136157852 6.703831575533408 2.4995116013343677
Na 7.613266735885212 5.559177105556413 2.8453668154940965
Na 2.736012801298146 7.751091248694916 5.811232701546915
Na 9.594537344098034 8.659618177278473 3.7179283329993837
Na 3.9526396182314785 10.397156134466643 3.035471645987298
Na 10.719489420906841 4.654179721715246 4.447206701747496
Na 7.271152459103414 11.586182447338032 3.8332605158623045
Na 6.161631616608224 8.297675442127007 4.595067721439281
Na 1.7875814064890703 4.228261621205586 5.242857239224656
Na 7.738906351792103 2.735375796275636 5.350470972097377
Na 5.0686088624501995 4.967342260888133 5.3042033823879775
Na 10.410172076058222 11.980775831498882 5.1184362434649335
Na 9.944357974204816 3.560050134475703 8.14082233289028
Na 8.487293079826413 6.288731853471674 6.281088630260436
Na 4.083163207818224 1.9480493759532418 7.179182274297146
Na 8.486101478949475 9.759128063105791 7.169966932276594
Na 5.483932275490482 7.577426425921577 7.97220005325188
Na 3.0001599445807505 5.150131718147022 8.483614396058426
Na 4.976498352940974 10.858405080829284 6.680448954554975
Na 6.508476324920936 4.22876339453796 8.42490494098913
Na 7.472578117599239 0.9477453519079593 8.802950101069149
Na 6.40549792698533 9.78972268918629 10.24620231795898
Na 8.71042157073204 6.936947366322209 9.68021836648983
Na 4.654224889351181 2.4722275279114694 10.76299198157233
Na 5.4571716064201805 6.077742754318811 11.222743091780057
Na 8.085629080425827 3.4294828941917124 11.380527278882502
