27
Energy = -27.8360739 eV
Na 9.133017499507373 5.513532870403783 3.2442778273217994
Na 5.76111764684329 4.159571263040861 2.7810308293701382
Na 6.473124895991296 8.140980843438136 3.039264870747698
Na 3.641442503458725 10.489740088826919 3.9710644898708622
Na 8.500899325056471 1.9594149176246491 2.112042581524342
Na 9.115130699099561 8.585615653348155 5.473940983309378
Na 11.211036884188179 2.7624483709123475 4.323527382382954
Na 3.374610131044114 6.803526955259978 4.680090176434273
Na 6.658568127749114 5.867746718704392 5.711217617604668
Na 4.177342365862284 3.377422277087982 6.0217227368538655
Na 5.544873509198463 9.090693890995706 6.416364310761683
Na 5.626485623214454 0.6637326495905683 3.875539578422661
Na 7.012897065383314 11.642103229808164 4.669285354251856
Na 8.001809402232686 2.5102938171314197 5.5559509583714375
Na 5.683391869158865 0.6053294379230703 7.594977619652133
Na 10.655713678847006 8.659650160928312 8.72931657632633
Na 7.849287904358141 11.076381376207337 8.255271886613242
Na 4.4970957671231195 12.36542255484877 7.161489524441129
Na 7.547912437505234 7.390474103637107 8.709071822548585
Na 6.943726016777064 3.945910419231009 8.725423409109144
Na 2.2185009410893133 9.598447250148643 7.210813834484142
Na 3.944338696863165 6.362054640267698 8.165861171493129
Na 10.035924840632822 5.405332963487556 6.8486687816856895
Na 3.7780116138942184 3.1188040834645925 9.659871954576005
Na 4.739570424586615 9.707523377289126 9.861896231056788
Na 7.904135951714415 9.4027843122595 11.44400022994902
Na 5.5138571277780075 6.338884723292215 11.30184020999524
