25
Energy = -25.68531298 eV
Na 5.1176210016240535 8.111321855838218 1.0316830399759707
Na 8.475721047037535 9.222605571103731 1.7238913915405725
Na 7.554968759950739 5.72145875762351 2.303377404675228
Na 5.830438790896919 11.354653251714256 2.771836806274886
Na 3.10738651682792 9.171846934707336 3.8813979787034585
Na 6.138722220008522 2.6569960747476027 4.028402911381631
Na 8.673408722497536 10.862931788399024 5.042451856460583
Na 4.021434727811337 5.6115382586094755 3.6752339380768695
Na 6.949561523822063 5.458107060425465 5.850552965421543
Na 9.929570490719625 7.3725988689052455 5.006134041327257
Na 6.409245925713363 8.371096015712872 4.397925281894476
Na 9.667482628640972 3.6961906010110175 4.792697504458657
Na 3.9443975397448954 3.6279135641661417 6.798355981952028
Na 7.397810781965996 2.345629856708433 7.591300141827098
Na 3.9955285321911074 7.277250206456557 6.936402828557071
Na 5.380291487150364 10.557410631930237 6.911783155152326
Na 9.854373158193255 5.42491588058352 8.030899889564013
Na 8.18544267654842 8.622725992748027 7.90134857187951
Na 6.293587215387044 5.390054000778922 9.078556185490731
Na 2.9654988085267537 5.36580485381577 9.927544394446938
Na 4.890055462541256 2.2786197924767446 10.237558826910716
Na 5.317711332182969 8.606544990569464 9.988264194717717
Na 8.258582978299577 3.2718581485308613 11.03112271944037
Na 8.550386422429286 6.953467476291656 11.135213441926261
Na 5.62434536405699 5.2000336809145855 12.459638662712774
