22
Energy = -21.62080813 eV
Na 5.506120933050549 5.506120933050549 2.4064287385681924
Na 7.304523344633637 5.506120933050549 5.495648146927224
Na 5.506120933050549 8.4716712085218 4.577276555567306
Na 2.403444558225515 7.372636672723204 2.9403813098204927
Na 8.608797307875578 7.372636672723204 2.9403813098204927
Na 2.4036639487443834 8.560878225439557 6.492398190727001
Na 8.608577917356723 8.560878225439557 6.492398190727001
Na 8.636456111245298 5.506120933050549 8.636087119345142
Na 8.608577917356723 2.4513636406615347 6.492398190727001
Na 8.608797307875578 3.639605193377891 2.9403813098204927
Na 5.506120933050549 3.6402884544058858 7.9865513834846595
Na 5.506120933050549 2.540570657579305 4.577276555567306
Na 3.707718521467467 5.506120933050549 5.495648146927224
Na 2.403444558225515 3.639605193377891 2.9403813098204927
Na 5.506120933050549 7.371953411695208 7.9865513834846595
Na 2.4036639487443834 2.4513636406615347 6.492398190727001
Na 2.375785754855804 5.506120933050549 8.636087119345142
Na 5.506120933050549 8.987524235738627 1.184865845765753
Na 5.506120933050549 2.0247176303624745 1.184865845765753
Na 5.506120933050549 0.1238068661010981 7.140370540884686
Na 5.506120933050549 5.506120933050549 10.955515104249695
Na 5.506120933050549 10.888434999999996 7.140370540884686
