28
Energy = -28.68474794 eV
Na 7.621027745381979 11.677969249541674 11.891644619813485
Na 5.456668741947444 8.692824678471057 12.218015421232156
Na 6.387517812051592 9.809830372048324 9.041382545546524
Na 9.055039538919969 8.60940862623529 10.876690881779725
Na 9.51717156456345 11.969365854750716 8.93652571843003
Na 3.6079179023870513 5.474183084233608 12.499191686840254
Na 3.7902637492863707 7.102525582324809 9.383213388822599
Na 4.586577190619015 8.695262968643322 6.221667528161255
Na 7.4129860736156274 11.18485623393559 5.953319434603383
Na 9.619771460217864 8.730773975104775 7.411460993392924
Na 10.81154017872872 12.298592591250014 5.613831733755838
Na 6.842991312344121 5.72417981821093 10.988400401140218
Na 6.911916472090308 6.407131652766612 7.57151974555199
Na 4.290826278536514 3.4803123659377415 9.573606930233764
Na 3.499528559582836 4.9650214267689705 6.543014232334542
Na 5.571363778878612 9.937741753256724 3.120366208187307
Na 10.1060763072107 5.405368086438757 9.434173644160712
Na 9.271150846572445 10.738511946875006 2.9216123354385592
Na 12.806071256203577 10.456726461205827 7.774563288009311
Na 4.911017417963311 1.4579571386682724 6.693453623881165
Na 4.713187508471452 6.398871201821568 3.5145390942964467
Na 7.994301455734508 7.661013516720947 4.394294134632445
Na 7.768321711341901 2.9607784702340925 8.142182594158887
Na 11.677293370505126 8.865548073385744 4.707086308614852
Na 12.694161017709321 6.872265674802581 7.597792963293712
Na 3.627376119812357 2.869485528006872 3.7121021705733552
Na 6.815011293280469 3.912073516959569 4.89662917968203
Na 10.087950800526734 5.117351461709368 6.016883768133889
