22
Energy = -22.30041514 eV
Na 4.1768275097516 2.999841108168277 1.2171336141191322
Na 8.019221078411242 6.879669368645858 3.6411688023775284
Na 4.461576914091845 5.744694243407951 3.6628931247394174
Na 7.109312251337651 3.413972358952138 2.913310697358863
Na 8.366343677143089 9.967021237698882 5.426731314216166
Na 2.588960177522069 8.330658929242995 5.552369979157124
Na 5.37178240250256 9.342537285116157 3.3745726591084564
Na 10.130907806013585 4.423581259653203 5.151781939538008
Na 4.200460504398816 2.4615843912209376 4.973377707383773
Na 6.858906553886467 4.426578207398181 6.246954139638095
Na 11.25375458867733 7.903066739858146 4.568499848459495
Na 5.887278044213353 7.6486210578150855 6.44390866226341
Na 4.890209104920012 10.96414237857157 6.611663546328212
Na 9.320391296980977 7.073284126764452 7.394351240488024
Na 3.4456341402900907 5.191202074829233 7.208010291401273
Na 8.900483706281141 3.969083941068435 9.066348801433882
Na 5.387107247841317 2.4973014978681256 8.570380887127433
Na 7.329719877499422 9.600653307756094 9.025286115865974
Na 3.7801676487736176 8.43252256959266 9.140135310181801
Na 6.108829509727866 5.9025363015845205 9.713321124186496
Na 9.201210963186925 7.265697353992903 10.950188999557698
Na 6.234322137755798 8.585157402001814 12.171018336278223
