27
Energy = -27.8251916 eV
Na 7.256367327388436 10.603615495731685 2.0150664118933816
Na 4.796321620657353 7.520749936738292 1.9885139213441911
Na 8.513631918154434 7.292846183280651 2.1916519756695374
Na 2.6830865627035267 4.464111882403323 3.4144855215230208
Na 11.830408675086913 7.021843822539985 3.843583145024613
Na 9.866559000498581 10.00550347525276 4.493121216986258
Na 6.1452158090450615 5.092490930046117 4.116308599509578
Na 9.572362694790952 4.045496605439135 3.758769411973199
Na 6.3017207854374995 8.841023932955279 4.780205803474904
Na 7.164659468359537 12.033013627842456 5.545897390457876
Na 3.24414368818601 7.135799388376956 5.448232734025426
Na 8.952933361759614 6.778272288566355 5.7420957638132215
Na 4.142030815539402 3.6134499775587208 6.730834165492039
Na 0.8305993872505033 4.394127429481103 6.706966788242698
Na 11.37541163129235 4.668560842827633 6.868323435532403
Na 5.076467321479531 1.0681976947933263 8.912015716523042
Na 6.040055920070639 6.614499535034 7.4942081691703955
Na 11.65667846645847 8.28401332874761 7.264990906470246
Na 4.692262076086807 9.835571448261007 7.788360666150323
Na 8.20505710902304 9.568348852182796 8.062646643091348
Na 7.780775020438809 3.5126768339216836 7.036198271629055
Na 2.8766958477947746 6.4550097843061245 9.063211023682577
Na 2.274898315170352 3.0461754177642266 9.82066394987695
Na 9.072438239898823 6.278786145087357 9.319784686088928
Na 5.846935806977895 4.227142550017133 10.161152717362217
Na 5.993778798920732 7.858694978539582 10.70674381091042
Na 3.435281709483982 5.366754990259768 12.35274453203686
