20
Energy = -19.96299356 eV
Na 8.22563955632644 10.696698229733398 3.5535952752744513
Na 10.853685792292406 8.89600555212533 5.085707896198719
Na 9.88322645315822 5.796874531900369 6.798415213139283
Na 7.486450864979723 8.257836618015183 5.9662867764449805
Na 5.531423859728236 11.044700808385029 5.944733818528142
Na 4.577025918739566 8.043054469467023 7.951422362368268
Na 13.0000594513336 7.328491552955278 7.697252722710155
Na 9.024296478346342 11.70887010310605 6.670553630812153
Na 6.296332988571802 4.9933084506284775 6.8129568147526385
Na 10.105214624114137 8.927492231998702 8.405789083234726
Na 6.873841560256249 10.411498974492979 9.114125589288857
Na 9.9182521320401 11.900654776568238 10.117477162714428
Na 7.37377612199338 6.6316789878569455 9.509353611267725
Na 8.594964954216579 3.426552068558214 9.004251993872625
Na 12.358686709870504 9.1832661219853 10.9335024258419
Na 10.80614324487046 5.973224371078537 10.210221082771275
Na 7.199803595399848 11.47570294850686 12.46197958323223
Na 5.287371178852526 8.537486677005841 11.512981238261855
Na 8.937305667826584 8.598917094742424 11.826066641889055
Na 10.631806451700706 11.132993035507928 13.388634682014514
