20
Energy = -19.9260381 eV
Na 6.413608230016661 8.20987987110416 4.05846083645188
Na 8.125502756444329 10.586299059021181 5.8777019753951825
Na 9.692004709623374 7.505505997995397 5.07975651050442
Na 11.465266602528434 10.06960973619322 6.801456492371047
Na 9.624003845943056 12.771631637107756 8.218852874985526
Na 8.808392379714364 4.459152655677667 7.136063139848067
Na 4.699301935810213 9.733880971684481 6.786202020281133
Na 7.12959291470477 7.464589778655899 7.401788132378587
Na 12.96445962241599 12.201706619402346 9.097423370296235
Na 10.731807284437501 6.961010311525044 8.355009197999635
Na 6.920991950857939 10.768618708275827 9.195148574932343
Na 10.755779138207897 3.929193289126158 10.097811607846893
Na 7.883410401959095 5.821576712877235 10.398081332081828
Na 5.070810073769692 8.018428902384096 10.174556262067334
Na 13.444838556789778 8.704131663352312 9.546575230063974
Na 10.441750002246595 10.105596650511947 10.255075242296163
Na 10.908076552235041 7.003262953686468 11.80174027078819
Na 8.375533866345005 12.409374395228419 11.775236120249684
Na 7.851244312429206 8.809743717312124 12.192872014881221
Na 5.1398381574840535 10.9130196628414 12.196402088243914
