21
Energy = -21.09689419 eV
Na 7.479423599554723 8.303328815918807 4.111263230718089
Na 6.981551425070531 4.812310171649965 5.312143251087463
Na 10.18389928059699 6.085423443689588 4.064084425930295
Na 4.724240559788813 10.213438100390382 5.090340042729771
Na 10.853781903736907 9.374152024709076 5.592592884113832
Na 10.17724214034195 3.639700182258214 6.714954329418156
Na 7.916415414736446 11.143017668534025 6.247628775569221
Na 4.2446149834843645 6.800964145546408 4.535021237043063
Na 12.580910976890769 6.228105467036329 6.881884093841497
Na 4.11824901292105 4.751616377420698 7.425537312759323
Na 9.081356512276534 7.019038528288765 7.313556648919261
Na 5.01611470863016 11.539315529766206 8.335969518444498
Na 6.10107655680252 7.970481679842362 7.716141766343991
Na 2.8868756262006734 8.621392948768007 8.106212915379727
Na 7.306565710747305 4.287451738187457 8.927221820662377
Na 8.239242542422923 10.617711878103007 9.633488398510446
Na 4.8023477663400795 5.906277024342205 10.714244661566498
Na 11.208167589332529 8.818646007384913 9.30556796548408
Na 10.707949134939183 5.221035548745546 9.911570733512638
Na 5.2825900558599574 9.342887991858266 11.078913778468918
Na 8.103433223060701 7.299753451293997 10.977710933230956
