20
Energy = -19.16788835 eV
Na 12.377977868314535 6.136044738097641 6.940850226575544
Na 9.854558486149802 4.067823640652553 7.412096607250614
Na 11.992421516559988 9.324909141054318 5.575728807079246
Na 6.822811955611827 4.805188339386478 5.929964259576261
Na 8.938977307529601 10.288434657955614 4.53262420130116
Na 9.023618037746495 7.574746496448886 6.8729194265873685
Na 6.444633705631509 8.09916749669118 4.411960049319869
Na 12.271589820787076 9.109558302430761 8.867634575419835
Na 3.9412240237831355 5.9519355648957735 4.750230346062144
Na 10.61623164566759 6.339984281388143 10.114648731371757
Na 9.579284794359852 10.935390396340367 7.933709762883998
Na 10.194958380620893 9.797318675258426 11.437980439894165
Na 7.369023410917226 9.001196069335458 9.732397136802595
Na 7.384875512475948 5.39598890999613 9.47882458390286
Na 8.373980944586357 7.12748161800428 12.658248200102747
Na 3.381197072912518 9.152747652619967 5.9505015983548875
Na 6.322789660066198 10.683059197267992 6.925915936408865
Na 4.792292336303533 6.856109975640553 7.972881299593989
Na 4.008834243905255 9.907353150151081 9.446388180058939
Na 5.022415359761356 7.277172076858897 11.440014523073586
