24
Energy = -23.41395864 eV
Na 12.225237117392007 4.314979042978506 7.9781507440398105
Na 9.185650796042527 2.058142700370319 7.048692276198201
Na 12.582054732265464 7.312023264146025 6.197416675367215
Na 10.923432396808737 7.183469146392887 9.419311593663851
Na 9.56148299578176 5.458096780765773 6.285883925252104
Na 9.34683216362795 4.117134601879844 9.89199954877831
Na 11.03428646158265 10.148015213553583 7.487684200382677
Na 9.684681113711125 8.414355536386223 4.550428635674272
Na 6.528691249688016 4.730157422253284 7.956498056883865
Na 7.779136924997063 6.818167417010011 11.126332087869581
Na 9.333543903053945 9.83809509068307 10.562113519131174
Na 7.8691581955246725 8.134421885798806 7.815462593446764
Na 7.830108227964729 11.221268427046112 5.875761298377059
Na 6.731758086827574 6.445099238504182 4.89681405677533
Na 8.554624931395768 9.426557711998734 13.938790430716427
Na 9.122640393156022 12.756074961555841 8.732701109192151
Na 3.810262392042413 7.55990705992083 3.4299325845301625
Na 6.592338495674335 9.492084460877425 3.203562448352939
Na 5.66438285214501 9.410493822470142 11.948394997001603
Na 4.641865232222591 7.652503403362761 9.242818352062733
Na 3.579966714282096 5.944649871902127 6.480383321504538
Na 7.484227943122541 12.408536790374615 11.728882384100856
Na 6.00441272353177 10.927442549244748 8.873045323248286
Na 4.812835387335024 9.3233301544027 6.222824379447438
