23
Energy = -22.22770969 eV
Na 6.633728964014394 11.864235165998457 10.023603397667474
Na 9.248734075085158 10.052566562258251 11.47724937047929
Na 8.82748385646606 9.096303474716063 8.164594945486973
Na 11.814516604924554 7.912213961365549 10.466601245578238
Na 3.3959680848834792 10.506525081602545 10.331413738465804
Na 7.916217756772509 12.148006988266806 6.779696820392083
Na 10.185680564980958 10.493373993383592 4.708804597235129
Na 12.141733358195943 8.925716297732224 7.140985848492901
Na 5.16410700279123 9.916469539650532 7.481215340446232
Na 8.631713352623134 6.5070112417630765 10.96480488876336
Na 6.089948812413905 8.460669312915687 10.727047720738023
Na 11.333600463758048 4.445475299815355 11.02611819256852
Na 6.899333624976661 9.24278368812451 4.863589266807634
Na 10.63332843284381 5.735828906396382 7.964061354603457
Na 9.819669574739022 7.0154037588224245 5.123609933816434
Na 8.830082313790184 8.41297255607186 2.186966449892368
Na 6.860846168922816 6.456061097697348 7.535346243999064
Na 3.3020774799386152 7.279583510112893 8.91063285945693
Na 5.45406835586121 4.948666550453184 10.360636446835246
Na 8.402366244845364 3.376776628983039 9.351883854274472
Na 4.081475079348334 7.110556426032805 5.51777058027604
Na 6.7929004932350265 5.928892613283319 3.668548444848827
Na 8.426682976887284 3.7971717684465816 5.891339373578314
