26
Energy = -26.72960987 eV
Na 8.536033267745724 4.673949944766725 1.6394450009796167
Na 4.4484001775407265 3.774183357129704 3.2065134513071807
Na 6.010722614571378 7.092013996957641 2.8772596585831867
Na 2.1867743178106416 6.633200992442365 3.3444180757985267
Na 9.659044675130318 7.210552384996616 3.9031241120405973
Na 7.531291344299871 10.22275329679633 4.096582093734663
Na 11.055297135431971 4.122216046976399 4.322014299811
Na 7.477220761977315 4.443129167123585 4.944574462351204
Na 1.5157400587463765 4.050771026162861 5.609961087548887
Na 4.136215466400625 9.392303242061551 5.174359883134151
Na 4.30170358456638 5.916250971445842 5.971604786507466
Na 12.82468875922725 6.896047888461921 5.988732425208757
Na 7.115754968163273 7.651686216370151 6.40804605209874
Na 10.084863324019434 9.277913325179528 6.925614901431118
Na 9.901640062949 5.737442628099601 7.4392043070441884
Na 8.715620258914061 2.3802116054409783 7.356185240016151
Na 6.681545756460196 10.841313039257598 7.606057250443455
Na 8.15522408420854 8.068347024155383 9.838435454729032
Na 4.906977761951792 2.631759492662617 6.785758310275966
Na 4.444920597873424 8.3043494111864 8.698265252450819
Na 1.1967860180781555 7.342282522053961 7.112221340262413
Na 6.599110384791076 5.004957856675158 8.849861577078148
Na 1.6270962303381273 7.873317137474135 10.737058865408267
Na 11.95274292223844 7.869670510666611 9.481035121048713
Na 4.993444342499562 6.670985550905822 11.634877556827123
Na 2.965882198402112 4.9431324388859466 9.07353050821624
