29
Energy = -30.16253583 eV
Na 7.205927820480238 4.258536983206067 2.63461120601376
Na 4.724799664406766 6.802633791266753 1.8477522798134438
Na 3.438739980528119 4.79356789324101 4.377623081514934
Na 7.308129428124476 9.028177268110003 2.4496031569326155
Na 3.8721423772690677 10.169791105950763 2.1364750827534196
Na 5.994463646751432 2.580478617700407 5.765894695038243
Na 9.966626797631637 6.708316416365259 3.832801244090827
Na 6.90699179245289 6.088156190796938 5.329662345414922
Na 1.5376798977006367 7.819856971670039 3.275489528162184
Na 8.162822899694534 9.5167664338931 5.794147052313786
Na 1.101767452990412 6.9152278107215315 6.587280217669659
Na 5.807436783431553 11.799793062742083 4.3957929822230195
Na 4.460256508085813 8.317098452918483 5.337394408783878
Na 12.70000379837297 5.146016816272905 5.948977054745432
Na 9.615238798734499 3.4757944437118873 5.454427617949642
Na 3.9760130836228718 5.061023958099932 7.789058924204736
Na 2.153718498119901 10.621517516434118 5.778067096848629
Na 10.118853564363762 6.952804538922553 7.441023142240086
Na 6.496549078987798 7.657188883939866 8.487332068588895
Na 5.427785916260236 10.892950913210317 7.7506216936227466
Na 8.878029851216597 9.865708168743941 9.314596541840723
Na 7.616811384866448 4.37946510973074 8.339852802743879
Na 3.1165889156958024 8.353750688931342 8.979161466172418
Na 5.327451649696576 1.9856874175828867 9.439165471392576
Na 8.620800557629437 1.108431407271501 8.071562276581027
Na 11.081292965304847 3.760981578715248 8.876200034099977
Na 5.532320515248732 5.344856718093156 11.049082552463044
Na 9.229621315474372 6.361754560245376 10.821727373038373
Na 8.26219788086896 2.8747291055239046 11.335679426754883
