20
Energy = -19.5445012 eV
Na 10.748656251048887 4.612215561923973 9.420443211336469
Na 7.27652777596785 3.4984977695533326 8.850051563044387
Na 7.827007277891404 5.277249242301666 11.622190702680413
Na 9.194931371873503 3.993723635252428 6.131983795696764
Na 11.691859689599005 6.26283672836691 6.237966082275848
Na 10.264033074775188 7.563701890394714 11.70427658536516
Na 12.228835708423743 8.00829621333618 9.038867338128474
Na 8.750662497093858 6.888442377037351 8.428487361955016
Na 5.447356969437237 7.262016421692695 9.911190787740152
Na 5.828432489322546 5.757392250667577 6.506898525967012
Na 5.234552247292065 8.294653713813377 4.114453906768374
Na 10.08738287078484 9.95111620787141 6.99367635606329
Na 8.599151011853289 7.393513840397485 4.7734959003343995
Na 6.711653946055516 9.070198329812754 7.205408850102712
Na 8.124768149431272 9.9724612256158 10.260640278857199
Na 3.3167513809262714 8.183737279729591 7.245768385594944
Na 7.84699090954518 10.847724620970197 4.40256643483614
Na 7.600907797903663 12.423764964228214 7.745436157996807
Na 4.693157122029194 11.257020225166482 6.047861830325959
Na 4.725711724888592 10.759024690853579 9.557675312539935
