22
Energy = -21.45730909 eV
Na 9.796334810241552 5.168369679115266 5.410728710752548
Na 9.470058323959591 8.323537055570187 3.976488484434919
Na 6.462069715392829 6.97757362991074 5.1428647898383755
Na 11.640525947559997 10.09151828275775 6.077533887082785
Na 7.057890126660197 4.060457942548634 7.078043578102645
Na 6.3790521547672885 9.975757676991266 3.5567494948115095
Na 8.262624099237007 11.446683767118529 5.870449168050911
Na 3.9707944562063915 5.690800868697685 7.042549516765774
Na 12.136794486612107 6.866239849674563 7.358289681986525
Na 8.975591744976693 8.311614337969871 7.405376293867596
Na 5.3256019442814075 9.842809499748304 6.96267319952492
Na 10.411488076134257 12.63563767451317 8.193470015981429
Na 9.675055710950094 5.214463302300005 9.194621487721683
Na 6.353989999873159 7.177821609999085 9.010473189091432
Na 12.182613118529131 6.7637894162340135 10.889853780459093
Na 3.1333977060960825 8.269471726514864 9.090041182028015
Na 5.102045618092939 9.975479352336881 11.254256092215146
Na 11.31869771626934 9.747665364834875 9.68231701146048
Na 7.776100157864139 10.883441903785684 9.510915721759874
Na 6.764684601591855 4.1365508603725445 10.538027264993193
Na 8.839899353797867 7.913805015698843 11.390978746689152
Na 5.708439953812148 6.819017344181414 12.314819053313869
