25
Energy = -22.28946691 eV
Na 8.264077558801985 5.142520619784216 11.845490742484964
Na 11.742155238734584 7.6330933284236755 6.395195247217424
Na 9.192650014264617 8.436243562011375 11.818286621527193
Na 11.006065299789451 11.009165147422094 6.029342845534421
Na 7.949928500435743 10.138340674725123 4.113407965121233
Na 7.268286717023088 5.297992062603875 6.871630315594401
Na 10.13851315078282 6.3487645131789465 9.163802501076699
Na 4.653875431794325 10.753845029125818 3.8852271178746753
Na 9.033351088421394 12.162772246002701 8.489320731171386
Na 5.527773843564545 3.970369411416456 9.62939155037272
Na 10.56245267903385 4.314401944244672 6.323297599848915
Na 10.030849118285252 11.770215860231454 11.825084632063549
Na 4.004593272405829 6.238366012778974 7.658902315201152
Na 11.331059314741433 9.644712277524798 9.308026444206096
Na 6.795278737373933 10.864289227633815 10.704391781690372
Na 8.959762445907934 3.0079392084541356 9.002424896805788
Na 6.0259818519080595 10.959992561617124 7.137453317513405
Na 3.912815045600224 9.652453815941143 9.532594016482584
Na 9.049724467434826 6.615240430657712 4.20501747097919
Na 8.546222560226049 8.692597490540184 7.231411928958555
Na 5.759925985817388 7.625860840543209 5.012642821974114
Na 11.159304563955908 9.134985216294687 3.155617995621442
Na 7.130333258027386 1.9167767460217697 11.859825426561963
Na 2.960802362751098 9.207869700172113 6.326507476925585
Na 6.503376340486018 7.44343967458771 9.721884596663788
