27
Energy = -27.84596917 eV
Na 8.339936976047124 3.865298005864938 1.357109087251162
Na 9.73102207624805 7.290269603343143 2.128081632183247
Na 5.825621875880103 6.678002607389213 1.9919330701420168
Na 11.128860496327468 4.315038208073564 3.6640772827479817
Na 3.5416191542600384 9.099618787804403 3.8668246178760404
Na 8.483148663909356 1.8345665480815034 4.34470103995624
Na 5.1581800691449615 3.2310051181959736 3.62919343641743
Na 1.7989013064836206 7.68106848371328 7.245546244326092
Na 7.895616265918302 5.254085381079873 4.433852753200246
Na 10.247320165155742 10.452212055429143 3.87481860347229
Na 10.419265889202725 7.45423400429206 5.68200184061486
Na 7.131568973902488 8.924331793601004 4.453829475926381
Na 4.570540938145087 6.281655208066306 5.350468018972649
Na 2.5548115155414437 3.9090794117451235 6.859199181459214
Na 4.8793382205452005 9.450068298665132 7.299218432633269
Na 9.748012174519934 4.117026619396347 7.232052811359845
Na 7.351620845075333 6.820249102213813 7.404705413337618
Na 5.453937750357433 11.641609465531623 9.946998478955981
Na 10.028677410448344 7.1378485424464895 9.437565093032953
Na 8.418740961952672 10.166599472039762 7.5853476255906145
Na 1.390962610565753 5.613795238399661 10.361645526708042
Na 6.133486591528314 3.283581297151623 7.1146866515917715
Na 3.7506709188135487 2.900861269513137 10.048395936502628
Na 6.6625028369288515 8.407267475296546 10.516355974738575
Na 4.424295953709121 6.1035249682236605 9.0178359579791
Na 3.01097640638233 8.988208707401098 10.496068119240611
Na 7.452505529706087 4.631036903740038 10.18963027048225
