25
Energy = -24.76314425 eV
Na 3.911229681250714 6.4326661170818085 3.7354571509120538
Na 6.123570598869541 8.809719256125824 5.224954314443973
Na 7.2524464788867125 6.086760176662062 3.324964592801958
Na 3.1337791033240636 7.6639299340059335 6.780667443930969
Na 8.393181160817296 10.945207348702647 6.806137489897212
Na 9.474560443448564 8.307968496149202 4.879742659188268
Na 5.267982478017379 10.210892276044977 8.232468622903479
Na 2.2482576289108773 9.08646842246032 9.72844604646768
Na 10.539106852448606 5.485846378537873 3.0807957782828597
Na 12.810016869242151 7.533160785238641 4.583617215516807
Na 11.845831689790186 10.694071147210238 5.73247830425362
Na 5.75853691531328 5.270667713732813 6.483835629049292
Na 9.448637831344195 4.9812775109940075 6.319993769677859
Na 5.028372407041643 9.487205110405482 11.654548702570146
Na 8.010061756478017 7.588746490509045 8.209970512139714
Na 4.746120698708888 6.595464501691418 9.623492598493524
Na 11.245090556644623 10.939344016289919 9.031143845618907
Na 11.635679073834035 7.663192962190385 7.758440978425115
Na 7.058613463538428 4.048694939907798 9.252087679081452
Na 8.015625027067646 10.57435123590058 10.228799602601056
Na 10.31302193340486 5.189660209071733 9.677271832595299
Na 10.66388466021979 11.28921986842989 12.38936940465818
Na 7.571927299306207 6.664900654080427 11.586134393016044
Na 10.655724921204248 8.163431111839472 11.114225791478146
Na 7.949217296082771 9.538147805499362 13.52544429931925
