25
Energy = -25.67751462 eV
Na 8.362307424667014 8.838114575979468 1.9952979547318348
Na 10.005125951718329 5.525921565615805 2.0563325435335225
Na 6.134947496696971 5.622657115347839 2.4121627964318546
Na 2.773976711125952 6.111472945148114 3.9894281049093436
Na 4.445310559532866 2.764304108163334 4.130186561039507
Na 11.348636358873614 8.352916942758954 3.955353267130885
Na 5.210715538836612 8.755853274223965 4.148511198940517
Na 8.027512500543716 3.2175472159213774 4.680105432064148
Na 8.410436965331751 6.747691154355703 4.796560472478552
Na 8.427885505885257 10.211889872969893 5.363259774386265
Na 11.30201514357805 4.986573281440696 5.4637258430594065
Na 5.447238468685062 5.333182902622258 5.963362468698769
Na 10.305555837185779 7.831743129997283 7.5793618412273265
Na 2.3908477380697937 4.2932021203626505 7.421381005752353
Na 5.055337279195096 10.879054898883568 7.0748153138673056
Na 8.576490886398837 4.529517776592089 8.005321971023267
Na 6.682054158056571 7.876811102904398 7.603900178825765
Na 5.5877322904454685 2.3173535919747232 7.711359643028265
Na 3.0313884519969427 7.7551659459107265 7.298706995014972
Na 8.079846466057235 10.396338226703195 9.192072950468566
Na 5.169089196514869 5.310892073463384 9.632385504670102
Na 3.0025562342788366 2.8034943248274113 10.549139627341061
Na 1.9100052770679399 6.314575621974257 10.50689958662
Na 4.591185986203524 8.71677650533969 10.387247525186107
Na 8.241281192749366 7.026429346214826 10.602601059265606
