22
Energy = -21.51107385 eV
Na 10.12120649178877 5.048334963460604 10.606956391054279
Na 10.461532043562745 2.8348458033505515 7.850422704930421
Na 11.336331115172161 8.21690948486711 10.169749816383826
Na 6.896521158067362 5.612779207642787 11.709150844659781
Na 7.460002350992279 4.452248615379194 8.420866456214174
Na 10.635817252643673 6.155100805334545 7.312769101458458
Na 7.966367754571411 8.048182689607044 9.518085617681905
Na 10.007729593159253 11.335991106467809 9.716231553465335
Na 4.885559119256719 8.296251060048208 11.656477871228923
Na 8.65906977341711 4.2262789914720775 5.140394715138149
Na 4.615552498515833 6.13905203727349 8.924808334699113
Na 7.109572026037874 7.579609214093929 6.275822432926227
Na 10.294884477984647 12.69734818133751 6.45713321054404
Na 10.637032805717396 9.376828424188831 6.842671738069035
Na 6.799961194855267 10.957328094069695 10.94655603557401
Na 5.278187730367574 4.71054313157585 5.668334912057175
Na 9.709501831434268 7.313493254695231 4.054818642291921
Na 4.565040005037762 9.608689486365932 8.43439752315872
Na 3.4038339944904936 7.47281413638992 5.925080838553035
Na 7.354338662949491 11.173242033287735 7.466154261242901
Na 5.193165910606186 10.1160203911423 4.902616739392381
Na 8.55885715375149 10.540470715341973 4.2478733781131846
