24
Energy = -24.57773747 eV
Na 7.3851403561681215 6.811495838005802 1.9275339427154987
Na 4.06263718149779 8.063645256168114 3.1881857479913163
Na 7.403667814560984 9.385890416919901 4.572047947299514
Na 4.235472995205218 4.3819972825842495 2.575872856979194
Na 9.838293055076452 6.664722883449814 4.700074140770473
Na 8.074736710352152 3.5866550651423843 3.457045333542005
Na 1.130497509244933 6.127583092208716 2.4260841832231024
Na 6.24550481255251 6.008904564715445 5.100192372971404
Na 1.201213772183034 8.733306308907732 5.088807530840988
Na 2.7707023513526 5.560207069079596 5.589149311790403
Na 4.49784218747633 8.799575574677922 6.678133932616713
Na 2.202644233282251 7.336911312446086 8.705461295474947
Na 8.733810159209018 4.062214804682229 6.929206847547062
Na 10.387571261126062 9.692817036918651 6.783822370191441
Na 7.851241110563807 7.531764965601391 7.636655692987243
Na 5.4528306082534845 2.773468544275758 5.947260070219838
Na 11.17200964719352 6.369655557412613 8.47228017449076
Na 9.556707923276587 8.97594818499827 10.331978881036722
Na 6.981273400944175 2.269099169755395 9.306481606681762
Na 5.592084535443773 8.28972247233056 10.136853071192036
Na 7.126387008984653 10.878186681403696 8.004462477583848
Na 5.0804517880428905 5.207377061122375 8.503465986335677
Na 8.243526993762076 5.495858464849747 10.391833021681926
Na 10.789427421661708 3.0086672297570316 9.56278604125058
