28
Energy = -27.73585238 eV
Na 9.551780377072607 9.018751264354439 4.937840833931351
Na 7.9214799760705015 7.2237567366114295 1.971094027463792
Na 5.1752153992013135 6.0441832367731925 6.854473692314183
Na 7.673462782824733 8.515583415817325 7.912177028105302
Na 6.974742322776815 10.750851539786249 2.3761997361524982
Na 4.421902838674037 8.163722694610978 1.4397101428381207
Na 8.199624564030044 3.4871303898358352 2.7132681560077265
Na 6.019471224131349 5.009204151021561 12.090905628421739
Na 5.181042363402446 5.10346714737233 3.3791875407230707
Na 5.115722077127644 7.025061824979026 10.362361122800106
Na 4.1423929330362315 9.385477391757803 7.602966214725365
Na 8.498460570694613 5.770971209337298 5.321246848423299
Na 3.6620671601549786 10.84028581003099 3.940293126496608
Na 2.8760794394747284 3.7515912173367214 5.858077399070647
Na 6.518467552162134 2.814795799158299 6.079867248658685
Na 6.037050797768417 8.433295097212218 4.628880239497355
Na 6.638122910323668 11.502019225019387 6.054399997824179
Na 10.669353825290887 6.760758665856993 7.942519743688471
Na 9.992732104747551 3.004087947231676 7.143615125855921
Na 2.570434483140536 7.456805619424312 4.6078477950519465
Na 6.465278169390497 10.264062617440118 10.603702578859407
Na 7.719382368738431 4.989994107558225 8.847877401977295
Na 4.531805940703067 3.4607722291736738 9.320672721883986
Na 2.1240417320026355 6.328261305095275 8.285585469816015
Na 8.53841326276144 7.27759130142715 11.384648206935315
Na 7.69731571843117 1.5905233998287616 9.630124064214879
Na 10.287120538679371 3.998301787494519 10.763992893974258
Na 6.832794233857469 4.064450535124423 12.090905628421735
