22
Energy = -22.18946492 eV
Na 7.763132721300925 10.481925768467718 3.695331887983644
Na 7.746760614681051 4.347613151611322 2.62143126108762
Na 4.217497766331241 4.13466200848592 3.5713983588968823
Na 5.889811100326094 7.459186823468133 3.0233210230150434
Na 6.655890756894204 1.9456623491421916 5.199505661402738
Na 6.664627074431236 8.646650078616224 6.424059955489381
Na 9.31924224248476 7.247032246337329 4.247199635305042
Na 9.936810147431446 3.6614849430423173 5.661870467203102
Na 3.968232329783238 10.257577915493863 4.789224300420799
Na 6.715283916786821 5.320740970661381 5.8044364591434
Na 3.4551612147412865 6.888750565285224 5.72851698792989
Na 0.8840191112979494 9.297540280110603 6.190952982250589
Na 4.051732272968838 3.6449213682496207 7.2565520399806624
Na 1.9454030083520009 6.400710706936994 8.755356217307511
Na 9.467783522588523 6.506550121794701 7.82797885635604
Na 11.352740392251906 3.602274158369488 8.836069383751473
Na 9.836696724248581 9.872698161870607 6.738969540084803
Na 3.9230608670697316 9.321155105876052 8.398979277843438
Na 7.543029137051019 8.972793298827112 9.691833126348744
Na 7.679400391908524 3.309987171908277 8.498861660754141
Na 5.538095952775035 6.216510021292073 9.142349543326507
Na 8.577873422562696 5.595857472419604 11.028086062386334
