27
Energy = -27.63833493 eV
Na 11.509661641290101 4.4770547105600835 8.799882763919499
Na 9.823997293535191 7.3927911619688755 11.133828358496826
Na 11.646276575735497 2.9404062054368065 5.569712433687178
Na 8.995883576035716 6.534527139485401 7.789551747850881
Na 8.520774698871909 2.876652656105078 7.249358936338885
Na 8.231858418269182 4.281040448141721 10.577424239430432
Na 8.094637261955727 10.066164294143896 12.685420113524122
Na 5.641213680967717 5.658952080039884 8.49329780522547
Na 11.939817406757797 6.429118698734734 5.716104260082812
Na 12.183914206495423 8.255102567257287 8.7555639569396
Na 11.77124855083558 5.092208732522403 2.4939266808407785
Na 8.817604452718856 4.584593625978639 4.241958709768779
Na 6.1259019188167665 7.098123249688346 11.724465436978411
Na 5.6280216703279 3.9024214988492556 5.4113178083475795
Na 10.059410269482205 10.938344584504538 9.792616561873713
Na 9.869828145649974 9.73867959823943 6.430974112993807
Na 6.973457381858186 9.269496257305159 9.047535518506757
Na 9.764898322535807 7.981049303155651 3.2776274913212795
Na 6.795396050812236 7.468811140567794 5.3993094938593735
Na 4.709390036150943 10.373510712320286 11.992114769239992
Na 3.4231946754308007 8.511776948075058 9.303891471267576
Na 7.155455435460255 12.899721858909894 10.896471851164932
Na 3.3673793956433826 6.724451643617793 6.118814843809496
Na 7.475418150746642 12.382955132183872 7.332378473215449
Na 4.733385875450133 10.09249100816501 6.292196754400952
Na 7.528564000840356 10.78693156438871 4.094297145564255
Na 4.207373988255829 12.151707530869682 9.024274930867554
