21
Energy = -20.02363935 eV
Na 5.51206555621635 7.210030396011896 5.906953464693328
Na 5.180455271906006 7.0720994902595145 11.171937126695836
Na 3.31314360093127 6.457327950231175 8.457730534209391
Na 4.350163569723299 9.695829075915752 8.175487916494998
Na 6.094740567182668 4.505077065153848 8.159960396827316
Na 7.225668377397974 10.172448499652257 6.162229537524574
Na 6.574175888031226 12.446228748469487 8.61724726436001
Na 7.799056967554437 7.979316682061663 3.4279591391428235
Na 7.43997430349086 7.840250074471753 8.79716395607281
Na 6.22447275592154 10.433630598691247 11.260595651977814
Na 9.966050715428374 10.59875228507509 4.235869343587407
Na 8.665451116079058 5.8721650604013895 6.142745717292959
Na 8.57244595642344 8.218789063998598 12.392901949929097
Na 11.111028745140722 7.1897560225443655 4.225397482199594
Na 9.525399638036358 10.537535142720158 9.893477784031539
Na 8.052937789116266 5.040135105760113 11.251638614110767
Na 9.521330465401133 3.649430704585273 8.5879876437616
Na 9.864876959886987 12.457406635184324 7.129355147747874
Na 10.613258329467122 8.90832465053132 7.117690483144608
Na 10.738439127532763 6.952799060302892 9.882235272938214
Na 12.144924597800102 5.625896314259383 7.109892870961395
