26
Energy = -26.21800165 eV
Na 7.722891698043271 11.237629951686884 4.533678901443731
Na 6.471699471595531 11.269682860856761 8.040654315630343
Na 11.684518937728896 8.086211443362155 8.21911090798211
Na 9.993330215265201 11.31008341572874 7.992130261481732
Na 11.350925796511747 10.012207401738129 4.755436357164614
Na 5.5554206772424966 9.944599950427378 1.9707247888115522
Na 14.147036936112729 8.09965204400031 5.805801512503761
Na 4.2274568312212315 10.296344217259978 5.224711387882921
Na 9.778846008865294 9.254942259020783 11.004873184976766
Na 8.073786881266393 12.3488502698318 10.918806551050023
Na 6.124787117506937 9.160323544215338 11.076375018919125
Na 11.090098500129164 6.540756092709842 4.934189622530798
Na 8.707120331407976 8.327371622395113 2.847010853162551
Na 8.4561409300994 8.561519613971395 6.434645277266221
Na 5.602603067789733 7.206466165231992 4.468288219967328
Na 10.986475183234047 4.654688967149707 7.938482653653246
Na 7.951502666216333 5.114327681581252 6.170480698380906
Na 5.136713850806547 8.086448278670556 7.906209910645455
Na 2.2874335792939124 7.3823418864900745 6.006487510270792
Na 4.722929173723701 4.815497134149349 7.643145604108091
Na 8.198649915915828 6.802472245669088 9.28877362101638
Na 11.135341336214685 5.787678649803316 11.214029110134186
Na 7.941230117202366 3.599069491188373 9.840314006771962
Na 2.274678375299767 6.988042226690086 9.54305895769282
Na 5.094619741027496 5.649218700520686 11.038843232159186
Na 8.084941310427181 6.090639067473604 12.80826495782393
