24
Energy = -24.521731 eV
Na 3.6287181967074056 7.590645015199142 3.3324521315840934
Na 7.2708971554271 6.8368871080439515 3.245793768969435
Na 10.68581659433196 5.822460966817003 4.511672089188237
Na 6.006813363592194 9.765266637015623 5.016520666946101
Na 7.835624009866347 4.031494857136656 5.51818437845476
Na 2.74592606861932 11.260583413721598 4.408941929552936
Na 9.590783008260887 9.46295266698468 4.188108958519771
Na 4.851727897313002 4.002687009100273 3.5557270516852615
Na 6.907013360938592 0.7452324893181395 4.930581605889175
Na 2.1196147592150147 5.207141725444921 5.669848760007828
Na 5.303728413763928 6.377742897704207 6.140141974841107
Na 10.556422405613747 1.9228439680885947 5.690394302647557
Na 8.547620126141826 7.475618304221524 6.715865220800124
Na 10.348952285709803 4.616417681010377 8.021478297437705
Na 4.834907510255003 12.209525921478939 7.167503034646891
Na 8.131291330844567 1.6520748200720503 8.122607096523263
Na 6.976903428690181 5.018905399113239 9.073381095589516
Na 2.748040732643813 8.761855192789024 6.68540190602465
Na 3.5010067732498564 5.883197253865566 9.085595794083321
Na 5.758740997366462 8.825737626099338 8.739671499434266
Na 4.76156325784015 2.8738296283254416 7.018328038464285
Na 8.216654883721688 10.994695785625595 7.424513732314309
Na 8.947660363657201 7.856325946710966 10.052807055546575
Na 5.788704429960866 6.871009039844945 11.749610964579762
