26
Energy = -26.80663407 eV
Na 6.544225109203801 4.847266453902583 0.6722519220972576
Na 3.7930384974458256 6.525219072219458 2.5040784877163684
Na 7.189312407087197 7.6355443966529295 2.9244350931004304
Na 7.25471064483739 1.6648182674309937 2.5570776709706737
Na 9.33778954050831 4.726294325561407 3.028424604029306
Na 4.462364373827044 9.947897498665656 4.0471969062730455
Na 5.883067651382564 4.327681643297586 4.045458197326982
Na 10.441273355226857 8.07513621113069 4.62461703693633
Na 1.796705307852433 7.941506737502355 5.766006294463347
Na 4.979169285733448 7.128725662950578 5.921170289337768
Na 5.0779474662819615 1.3772987767720544 5.4606011722649255
Na 7.514110499782456 9.827472362989562 6.063530104581561
Na 8.100911050601361 6.1841358651845635 6.178496770210717
Na 11.229143713185367 5.2690631342243295 6.7621106629261
Na 2.800945173430316 4.416057295141783 6.108004772791214
Na 8.377051548982895 2.762719465866961 6.121659430174833
Na 4.3239301700987545 10.213299650738513 7.901052300900968
Na 9.997276402235375 8.354042004179453 8.388614638686947
Na 5.5698447769285115 3.9665521026638277 8.224539836975596
Na 6.59445987874859 7.76809105627082 8.960751837286294
Na 7.402286074091128 11.12018501138957 9.679485894898686
Na 3.2109265579638566 6.7798336676718645 9.053242046663128
Na 8.745109819398982 4.943039338470955 9.465392609606596
Na 4.7257474714846595 9.300153011946005 11.436332653438361
Na 8.27981785373583 8.414766158868396 11.852758967585931
Na 5.722999780586905 5.837365238948766 11.60687420939846
