23
Energy = -23.35546111 eV
Na 8.45062035158822 6.335536106590711 2.8317484833860074
Na 4.573043931830997 6.281577422832031 2.9917123123169924
Na 9.582715771081897 3.628415635287055 4.914701102252573
Na 6.365599874702184 2.9931979639513373 3.0300713564456454
Na 12.000963377199179 6.523322289101746 3.634604470320205
Na 10.150342681511624 9.497468393903587 3.9752849024301122
Na 3.3876916801518604 3.482064112085973 5.3812788644841
Na 3.192146456029794 9.530910325231035 3.9786038493070666
Na 6.593343008792435 8.816690226532865 4.575121716480418
Na 6.4607781433855624 5.197891543789614 5.577635550524826
Na 3.1946847343986966 6.848040074408849 6.341288057954035
Na 9.691048234335183 6.95535972910851 6.259069595252846
Na 4.511550509331512 10.06807828782898 7.327641342956406
Na 6.517293609449604 1.8602013248075515 6.478903930621356
Na 1.1343451789446823 4.8282049366941795 8.554096191293064
Na 8.43747790981043 10.198648337710528 7.274279167300164
Na 6.451953126869247 7.330833736571637 8.025545691142371
Na 4.597464212372466 4.156095572773425 8.646307785087256
Na 8.35573714599525 4.332155623783699 8.48819910431761
Na 3.3026043004991363 7.2982948767921965 9.846001849726134
Na 9.518317810481754 7.670908370670901 9.758730329923672
Na 6.553129105548933 9.70867022899777 10.416923660165638
Na 6.50624083656057 5.9865268714177065 11.221342677182898
