29
Energy = -30.12441946 eV
Na 1.446762894379769 4.102326909012565 7.227831343964529
Na 4.669265428022654 3.1245296306989565 5.058221503290153
Na 1.569285091695832 5.109242699886925 3.6273903248770925
Na 7.942648734198757 2.4786164655443863 7.015273453224697
Na 4.905660442556544 4.318993754442075 8.55142789382718
Na 11.753153010488376 4.423907643284974 3.07702299426438
Na 8.21213436806318 3.350838834585138 3.411455580764198
Na 11.044476193517758 1.7126331447473588 5.262722978007043
Na 0.27460646779373865 7.338308668486308 6.164369882310499
Na 2.524534382430113 8.684143711726646 3.539203886305919
Na 2.3396879757916276 6.986991342018969 9.280077003133908
Na 5.3585733525247425 5.9311810490253425 2.751859725931245
Na 3.6169337662984424 6.480573571292947 5.938948432533288
Na 11.297989687025204 3.1628192272221747 8.725952171259031
Na 8.544149969008087 8.831758157712647 10.149808633184826
Na 9.15756268288283 8.587409727040418 6.673344994318002
Na 6.3197791345953105 11.157991977126489 7.442677251707269
Na 8.415096346495783 5.4084496255692 9.266336322134087
Na 5.497861774268445 6.653322475379368 11.334804322885551
Na 12.348051836931186 7.527926898711113 5.230778121776118
Na 9.026602929890721 6.999502452492736 3.3406244090545547
Na 10.361447854790642 5.030549483727922 6.146047629811294
Na 2.89780201690542 9.844056616054662 7.015069977961401
Na 4.242060138694374 11.831718908292057 4.469994121715621
Na 4.277163643919167 9.98449930682552 10.349637430052715
Na 6.149208048734405 8.93216654108642 4.562092111747765
Na 5.828222835570803 7.851809903308143 8.14175575610499
Na 11.565199746359735 7.0487145760775105 8.955892438417147
Na 6.9586807968389905 5.649618249294212 5.833980856107957
