29
Energy = -29.84713043 eV
Na 8.161660538577632 3.5283686469049877 9.881968716620506
Na 11.027921181670322 3.442962379207794 11.963024116456426
Na 5.3701229192246185 4.0073680607284965 7.719039046053947
Na 9.126817488730921 6.453072930965627 11.725326170859155
Na 6.241917042826701 6.866058113864497 9.748509215814265
Na 2.7077556377200462 4.529397872388955 5.548507340233628
Na 3.4595871000145637 7.400011187617167 7.592985996356265
Na 8.459777828120004 2.2335689377358037 6.523740672851671
Na 7.3938469892375736 9.70004511647298 11.536473128815697
Na 4.511794156048027 10.271165630239802 9.534427612824153
Na 11.247893962772485 1.924395402680081 8.781465362344436
Na 5.815322119643553 2.895330544387366 4.333923769233735
Na 5.969712072047013 13.055864652815437 11.239421576011175
Na 8.346623226049818 5.804608777701526 6.959096322677532
Na 5.569095341936467 6.429527575629876 4.715689690286127
Na 2.0770237260106326 8.04671163869637 4.4075962839381395
Na 11.390079797112243 5.396154375379168 8.890606156218244
Na 11.667178478528422 3.7217190916237035 5.770304273533343
Na 9.644118893991585 8.57967687531972 8.784585084917646
Na 3.3499004860321375 10.765161825907555 6.175399299880818
Na 6.629211254924119 9.142795840222306 6.796160738334173
Na 8.879391405370583 4.7660650372043 3.6610438833689902
Na 8.088286595040788 11.853572985610281 8.643059832460784
Na 5.064731038678141 9.68696325540326 3.2623621970744137
Na 11.218649506501828 7.275301981537863 5.554014619116292
Na 8.442993776452127 8.538683697152491 3.710508830031355
Na 10.126810106208493 10.608971542515064 5.914844288900468
Na 5.1513866074235 13.379379972863408 7.754451044491383
Na 6.946233334867068 12.11902810830211 4.918129006620663
