20
Energy = -19.81471143 eV
Na 4.563875749400774 12.265540226551774 7.330497850171439
Na 5.925122828419067 10.400439858277784 4.299564919841011
Na 6.472462470306983 9.456159721669124 7.593326028635183
Na 9.100655166178862 9.193696254735192 5.283780337198288
Na 7.783346717998854 7.88376530089444 2.339659730838378
Na 6.9837160965112375 11.572516793977789 10.171850050227357
Na 3.790725215499212 9.70866486093606 9.894291736476209
Na 9.9716065522126 9.376633438668534 9.070779970598581
Na 3.148942969820311 9.13808453074207 6.441103914070825
Na 5.669984745321806 6.768115938774833 4.947708402240788
Na 11.536508990663911 7.11147912887041 6.423932907282212
Na 4.521466312179513 6.3804885010774735 8.439657360452985
Na 8.200221893069749 6.591496505437847 7.784941059031147
Na 12.762769832956893 6.875457258945928 9.592299242450947
Na 8.94200630050431 5.396622179305406 4.5697782795791255
Na 9.793028689602268 6.427480916249778 11.146879780708986
Na 6.713778819466174 7.995189593261688 10.877401490820574
Na 6.459253881011998 3.7569680198731903 6.64504811590706
Na 10.4550323644863 4.153523230801229 8.301316488421165
Na 7.003704240104967 4.353570494245483 10.200856286310913
