23
Energy = -23.46617089 eV
Na 7.264886111928666 5.633951802804984 2.2326626229946935
Na 4.278169214864345 7.4311650035631285 3.449884867377871
Na 4.323209570898565 3.7122910923266383 3.310000123066702
Na 7.7550604832538985 8.564727900751189 4.235568711861573
Na 7.909805715687525 2.4061654633075964 4.334366256419006
Na 9.784371730367287 5.473303435205151 4.963104418071215
Na 2.7597639305272708 5.455187991652743 6.195753564619426
Na 6.311255248813485 5.318765466455854 5.550889490546218
Na 1.804012364316223 9.23859280209207 5.902765476035903
Na 4.9505638193857395 10.845782456175604 4.711855590129927
Na 10.6896589657844 8.780779632500305 6.2412535961821085
Na 4.990439797429225 8.132127261250309 6.856615787458245
Na 4.821687168245277 2.41060529436101 6.705832548930446
Na 7.513218552879883 10.487317435160755 7.356769378286907
Na 8.239765228077083 3.4162146501935173 7.802014938253619
Na 11.206122548730324 2.300193606197366 6.042433108366342
Na 8.21095261921208 7.064783536183908 7.843025741065506
Na 11.237524231183162 5.2639921875250755 8.18829329823307
Na 3.7618975309735436 11.027951127658474 8.268327273840011
Na 5.089324870383898 5.0508016875216715 9.110493088940247
Na 2.489771745780458 7.622750434242794 9.190422829993972
Na 5.95686293461425 8.443458458360242 10.193727639876897
Na 8.181374328197611 5.448789986043819 10.843638360984782
