23
Energy = -23.1018774 eV
Na 4.865798469113439 7.07254134994956 12.050519152326832
Na 7.626547846875755 5.999983400725877 1.6245608303624544
Na 4.230616149724537 5.581769918356389 2.9470924882285976
Na 5.314610666497939 3.707761621849965 9.779307905831102
Na 3.7663323148492514 7.990158867907156 5.99222287302457
Na 10.003705712640372 5.323653037899193 4.833445247215961
Na 5.472622669538301 8.87472799727791 2.742762603267434
Na 9.005258220757577 8.761098015066944 3.4716543855833635
Na 4.429860248615344 4.344229731704249 6.446954280269775
Na 2.9837135997454447 6.327902437242023 8.948884220981158
Na 4.732322471091792 9.552053350030288 9.239043108193083
Na 6.670419678433096 10.078122895153117 6.090089311561747
Na 4.983247939639879 6.5528212633011655 11.864445461960015
Na 6.941432819834625 3.3391277990011408 3.9093984994968425
Na 6.890261888952112 6.610837283960814 5.247553097550571
Na 7.88797659329407 3.64046656277005 7.436273313331116
Na 6.97999281689835 7.013946133388456 8.708809384263613
Na 7.448238813338719 8.860958629981429 12.050519152326832
Na 8.264735386601394 10.646922815626953 9.091784674165602
Na 9.954485098143554 8.452736304822185 6.870165111730086
Na 10.695163579672952 5.337964287020669 8.351272029783113
Na 8.393103600768164 5.203681953152684 11.276237813431733
Na 10.433685239243731 8.120281920032236 10.442661859179346
