25
Energy = -24.56768092 eV
Na 3.1197106738915377 9.22329918140321 7.635608197311693
Na 4.642153371204878 10.38148748378049 4.934067232578979
Na 3.4800944684602433 6.414663713312613 9.412865206264291
Na 5.376756506559647 6.940421535323007 6.3027873810806785
Na 7.8252243064016085 11.814843334522335 5.153863489908707
Na 4.571133675815873 10.325128927068517 10.464454537206509
Na 7.246043623360071 8.472348097220836 3.856551889803243
Na 6.777873114525904 9.760605782978766 7.79801958497089
Na 4.960149065371058 4.302057389120545 11.575520194944438
Na 6.161898626276158 4.209020568986176 8.147889811259226
Na 8.125610493840476 5.165093089083373 5.147694406674682
Na 6.38333482472984 7.494542405393696 10.817373051577453
Na 7.818460330666629 10.781893572040726 11.107201958459877
Na 8.621680570271618 6.902710343495175 8.133036455933324
Na 10.460685747551741 7.199131461931761 3.316065503713067
Na 8.278316524336242 4.564949772307448 10.877022872705293
Na 9.871169287671082 10.471999006372718 2.703379325893429
Na 9.702922669806886 11.76575141083628 8.311952353792908
Na 11.246736649446657 11.13960893438687 11.481191236182925
Na 11.685368055537 8.84588395390489 8.885551531784065
Na 10.161019566683413 9.330975477273686 5.9376089004709245
Na 11.518095201486807 6.115742444715127 6.358424849346005
Na 9.567842647764556 3.2664913807790623 7.700509328078892
Na 9.74920786219149 7.91269481820885 11.571914931837279
Na 11.497355065779152 5.404956228536358 9.813818037343443
