21
Energy = -20.88390596 eV
Na 7.806319229958742 9.076716807915323 2.933504910918209
Na 6.787013292375753 5.497394817850826 2.5938607693349662
Na 10.206217905186833 6.5332396841491 3.219670573682779
Na 4.64039513532702 7.903013246435249 4.182496069496598
Na 10.13804915167847 9.459749871426409 5.7809927230532425
Na 6.7099863940288325 10.340872961850879 6.1087333663265735
Na 7.648643350915035 6.84675685739613 5.6867504806831635
Na 5.014967737567129 4.668665582023423 6.056417742951775
Na 10.912285931390347 5.96916250067535 6.761853075079091
Na 4.591950788472967 7.854569273808875 7.764705927058832
Na 12.017201754437222 8.761320996522318 8.644712023689019
Na 8.157604050275337 8.128006627667066 8.880767953188693
Na 5.461865751706583 10.937328495351672 9.31567069164302
Na 9.24777422965013 11.297273804064874 8.965930732386603
Na 4.675195499087491 4.944923197516033 9.685690566811896
Na 10.756241141382242 5.751763182486682 10.202840547647938
Na 7.900114808586746 4.508462501882053 8.382683384086869
Na 4.354236286119821 8.16144552984058 11.26189739113386
Na 10.38879477928345 8.916542139616933 11.741482298476505
Na 7.200193985565827 10.112442778234447 12.169180862048252
Na 7.408244671932459 6.353645018214051 11.683453785230533
