21
Energy = -20.81038244 eV
Na 8.746946060765406 5.823599015536288 3.4240886214333335
Na 7.030035281807606 9.012700829340638 4.5337844982325795
Na 10.683229674433226 8.90767441401815 4.027234251570781
Na 3.591185381831514 8.206071688512598 5.055449622579607
Na 6.042149933918142 5.931458903001083 6.006832891811666
Na 8.961171878129601 10.729295352736113 7.025828976311149
Na 8.772788666834915 3.648321831576808 6.2961590964532865
Na 11.932897251894332 5.700159273227872 5.0547090987029755
Na 10.619464619546138 10.7711184470642 10.152236619700608
Na 12.240628620647538 9.048929304455903 7.185002052300849
Na 9.335055964794243 7.098741303172262 6.678875572269228
Na 5.1117698326451455 10.483342065054872 7.338407834827275
Na 7.088538077653672 8.25668976726086 8.964109267402536
Na 3.6921948066237706 7.147178402380625 8.48040610577505
Na 5.191349887836631 3.797024090733547 8.501255213361848
Na 7.229680451054646 11.652754263002063 10.139142836755978
Na 8.1776554816301 4.993981006797569 9.531767713549293
Na 8.09452597742857 8.796527381955267 12.175590395436897
Na 10.640122514310214 7.380455131225564 9.911699383797876
Na 4.556616722130575 9.587798728935734 11.201026195666737
Na 5.368169740468027 6.132355626395927 11.422570578444121
