27
Energy = -26.9075702 eV
Na 3.1253573013901415 9.2168251680299 12.275957943679062
Na 5.709695080393828 10.501478193176805 10.204214859411497
Na 8.177284490565906 11.57661624239744 8.162478627974052
Na 11.44704170874771 12.021011032680828 9.47181324300083
Na 6.307721119154528 8.346722927241403 13.015683156571772
Na 9.16599476737798 9.805068141231372 11.011330663259557
Na 9.485037715085214 7.509814882765159 13.607147842423341
Na 2.6690454591044803 9.354112840091684 8.83619928767963
Na 11.042174710319626 11.307261785049798 6.065514655161246
Na 5.155113542198456 10.510268593467313 6.729099940411354
Na 11.340621939633486 8.754370388622695 8.395600099285254
Na 4.581879922345516 6.7729638656412705 10.207823014502738
Na 7.4409795277728525 8.09948072937125 8.172759028881659
Na 11.234951102109568 6.306078634328169 10.813392266072213
Na 8.049660932564345 9.825413295771122 5.117510307681984
Na 7.828522747901011 5.867920019023297 10.978430132017689
Na 10.652892159225026 10.176957299071118 2.856540320652516
Na 4.208301980774819 7.029970639479358 6.770736585586688
Na 11.110712880721094 7.70897525093776 5.057395853832766
Na 5.131191034452094 8.506000559953806 3.7840349632221275
Na 6.30759572383183 4.583968146239322 8.245587700514047
Na 10.028963138561746 5.7952574429208745 7.584210739657861
Na 9.50343170978558 3.100842920010954 9.595605524008928
Na 7.23277197252588 6.128597944760669 5.277871959387272
Na 8.334119720339473 7.645109863265246 2.3415217032327424
Na 8.77263623285944 3.005419075187876 6.225963094167191
Na 9.947070777184873 4.8054743946467955 3.5681102649034986
