27
Energy = -26.7312031 eV
Na 8.105557097952172 10.656342952601147 2.6342205171327118
Na 9.219964523230912 12.441231572383357 5.66103906919294
Na 11.898645847081593 10.867999154724135 7.208710493905729
Na 9.935932498351205 8.978189988351446 4.986552275997646
Na 7.043825424999424 7.378076618632715 3.6719058886887224
Na 6.435889211064956 10.204942226258982 5.573298728174315
Na 6.563611450115095 13.02962791362105 7.760890268079445
Na 8.683982501102593 10.232262853976845 8.544504818429434
Na 9.701102309177593 5.333852913715283 4.855121281808986
Na 11.414601840686053 7.285905524116305 7.360533427425091
Na 7.7797938650017855 7.2738319283360156 7.325310064542733
Na 4.664225744211555 10.048232574833458 8.277608640599846
Na 4.469458873736036 7.184123617240531 6.200908461386224
Na 6.418888889706985 4.441756448233395 5.728839056954753
Na 11.920675739780933 9.227696261120128 10.265678013033632
Na 12.600672313827259 5.77233010802241 10.116623431307401
Na 3.499641544884267 9.761186145040627 11.411999078417075
Na 6.268752311817679 11.794578666970127 11.101918120390376
Na 3.5566015733183454 6.9152971964985825 9.532480092238178
Na 9.011788897271758 2.0961792971787103 5.684067060389611
Na 6.458730906660741 8.21185510393849 10.918611764933763
Na 3.6173721795763196 3.7710825120281033 7.873452837730682
Na 9.175337572176275 10.1788387522698 12.013474705535534
Na 9.821925197474677 4.186557786667002 8.310169412384543
Na 6.542895882774429 4.959096669412334 9.602563673848707
Na 9.384465844436297 6.796203298217562 10.584552728027088
Na 6.551704580009776 1.8150250816223494 8.097808865952345
