20
Energy = -19.37595263 eV
Na 6.486058983611426 9.405669188934256 5.2779758920057445
Na 9.689527740779694 10.129371943260002 4.634431135402952
Na 12.041561769392723 8.51111083580407 6.679570670654967
Na 8.910143232796175 6.8939857412568815 5.904842142338806
Na 11.152508822859554 11.844870710057114 7.210273039458354
Na 5.878734314136086 7.117021400616705 7.837326662056189
Na 7.702022731323617 12.471959966851847 7.109614579716019
Na 5.011013961246368 10.482013021966328 8.177325786386765
Na 7.8536338840535835 4.382108837359032 8.281831721540065
Na 8.580674776873321 9.45689221232195 8.471698756701011
Na 10.799998780201204 6.145315649724564 8.807000039844564
Na 9.778366110808378 12.649504528923549 10.24258004652685
Na 11.83439119702681 9.84551237887206 9.989448783271609
Na 13.99111918183596 7.245591261081066 9.472823995855032
Na 5.138651190568454 5.103700726045389 10.496884527631543
Na 5.659430131290614 8.651471237277166 11.076476037120326
Na 8.260068314120462 6.443675352497245 11.08006403064477
Na 6.53439829550838 12.039681659119324 10.817797510123604
Na 11.504856432962624 7.173645873994089 12.079281763572896
Na 8.946339561132415 9.760396886565752 12.106252291675391
