23
Energy = -22.57543093 eV
Na 9.449508173199064 2.046146499886265 8.03110716045294
Na 10.766353668970934 4.985161842497003 6.499066324178628
Na 11.960408856046074 7.891666798797064 5.142229280822549
Na 9.821968494536437 5.096197215712252 9.809282589533558
Na 10.662685451229743 8.012794455637527 8.349647230036776
Na 10.477243598014548 7.876604673263622 11.81179429735626
Na 7.2991197758510635 4.405743892731846 6.577403168526459
Na 12.091235390345762 10.756085491218558 7.064326375122732
Na 6.8565272384495435 3.555375135489392 9.853326439250727
Na 8.528838163930056 7.335166578403091 5.087876171123238
Na 11.210923030325707 10.897856407868217 10.34897253292336
Na 7.108480232661576 7.870829971411322 8.1621122753341
Na 8.73702204786813 11.074456051679158 7.66014808640957
Na 5.1677128704994475 6.627712762173887 5.138300242496374
Na 7.149674865805467 6.598353707622572 11.572010070392471
Na 4.587422379563739 5.776399407187636 8.572572907325249
Na 9.675292832932604 10.511987027909168 4.387611797391887
Na 7.864330526429245 10.087947513074797 10.854421183331835
Na 6.2225505911935155 10.039928719583095 5.237710626950706
Na 4.635855254501828 8.733063422647778 10.689360696312841
Na 3.4327870856427327 8.766596651924118 7.231895641633046
Na 5.4791844523001165 11.3694928658466 8.65630818222954
Na 3.3588890191962633 11.913108626842462 5.999844562748288
