20
Energy = -19.30110262 eV
Na 9.217337934620087 5.127240231226562 9.459597291154685
Na 6.491341330075373 7.061719795560793 10.96694234623024
Na 6.098796290242745 5.733518997635758 7.956937356829844
Na 3.2587829100269188 7.296399101853102 9.64537987095613
Na 8.864451354708114 5.765659031684373 6.007940964356808
Na 11.978329503026123 6.622661915219828 6.993753213170743
Na 5.686506432703713 5.582930914753212 4.311612152120443
Na 4.137257979126918 9.91477244471425 11.731372817784704
Na 11.60147323105102 6.647335516304382 3.5770846458084864
Na 3.514230047094779 7.259495033165071 6.2926344991693
Na 12.099321165726964 7.838527203593108 10.001536219884358
Na 8.783141670538313 8.321945275890911 8.55393455107997
Na 5.346593210176683 9.794601498122574 8.486485652055572
Na 10.113278797522538 9.284494591865828 5.4973599286489625
Na 9.570171711511145 7.662503263583285 12.110254417294813
Na 8.2666083477829 7.333508924038107 2.9117547902927603
Na 6.699157233911652 8.811161200948872 5.633751974303425
Na 8.181168896408447 11.43989584025192 7.420421676095381
Na 7.526441157051623 10.616336150352126 11.09189307803342
Na 10.737730332849068 11.00725598869724 9.981297816096907
