27
Energy = -27.38748768 eV
Na 6.264493842087248 2.2349893809837633 5.6109378147440845
Na 6.768138151843172 5.559085434706205 4.610711611201268
Na 4.292603361803368 8.073052765438405 5.846369282089532
Na 5.171642966084455 4.80374743201307 7.726592673346868
Na 5.109086946599219 11.42793633286888 5.455786876536472
Na 7.2921033794301975 8.907333830017308 3.932872701855515
Na 10.723031943256597 10.089441839866046 3.602873687509062
Na 8.695225161302544 4.122709525868351 7.293525426418831
Na 7.705455178612025 12.151471121790836 3.084912514920209
Na 10.207964422907885 6.9414648369549825 5.3245719062912595
Na 2.5497423680469806 10.459259917447515 7.929857936952108
Na 4.3784217257707505 7.688813612088625 9.406685691772319
Na 13.506515921036998 7.881681568854192 4.244037785877053
Na 7.524983146110951 7.787391479509164 7.557678696957138
Na 13.612027328566308 6.147817099370862 7.248560346083525
Na 3.4490451362884413 10.063521445368144 11.497496792087324
Na 10.538457581884657 6.416981609810334 8.993674208765542
Na 7.332457075362416 5.676048701921151 10.568199176275888
Na 4.301926889058763 6.556726724328947 12.775002705477553
Na 11.842952214865258 9.381244925749481 7.1198249352609215
Na 9.557741212220087 9.704907571234509 9.824327470379332
Na 8.709049425721062 10.992737531265467 6.456175224137547
Na 6.0432938720622404 10.792445168871678 8.947595392447743
Na 13.104870105972324 8.044383074948657 10.333733988773611
Na 6.882300819984027 8.838959482967056 11.937534161143166
Na 10.158174073507226 7.131472895854847 12.41891070417583
Na 7.380445576986795 5.654773821129721 14.11526199894617
