25
Energy = -25.63065178 eV
Na 7.8758860134117015 4.911990941321576 1.1412186311814139
Na 5.074978690155183 7.0458086281425985 0.4364663472680164
Na 4.513876514740378 3.7752559130350525 1.8334014306777249
Na 8.221442434004475 8.450973479354644 2.1228345744327832
Na 7.239501189891103 2.950699332559028 4.197871003140056
Na 5.94444192986973 6.363160186231901 3.6453762970618557
Na 9.540288816615945 5.98066162143222 4.43387107714631
Na 2.5287542618219314 6.506374715876282 3.3124058147229967
Na 7.305676418820285 9.028054008632253 5.6500273881173895
Na 3.869857340754631 4.023644170099978 5.619923726827223
Na 9.642215157451426 3.322826312971015 7.124441061739354
Na 10.576259314387144 9.406776189732703 5.182576287393536
Na 6.34604882472591 2.18530696245428 7.824116212050969
Na 8.89797432129377 10.440067633311392 8.654997038222918
Na 4.081005976188611 7.907305034827506 6.3309950688234675
Na 1.3708941542701367 6.186707565689945 7.154449023224653
Na 9.891810171812468 7.034898229958421 7.876490417150659
Na 6.919745875884972 5.427299262070648 6.78046420404017
Na 6.509569544775862 7.989827342318223 9.003703189001929
Na 6.2266327756889135 10.354814016629303 11.424543482457265
Na 3.218435389986039 8.463100735658283 9.864851938044715
Na 8.979546578013888 8.042815328435207 11.458106382754337
Na 4.252123997637353 5.064061600596683 9.085059961938747
Na 7.876420898278019 4.763624242200499 10.181490861766767
Na 5.615639959504038 6.892973096444977 12.17934513079955
