29
Energy = -28.94506244 eV
Na 3.32825782842208 6.797429862256839 2.031844042885545
Na 6.700803693721147 8.269752783287943 2.644139107134218
Na 3.6534076560981124 3.1764895847672303 2.179004928236724
Na 6.344475482168934 5.308064655720226 0.6925839934067239
Na 3.6636416175286417 10.319110619364945 3.021922690098539
Na 2.3442011573360904 4.887888705461509 5.075256267797596
Na 5.876044234245743 4.875806948421264 4.086828414519983
Na 0.9569104238691104 8.309547040379194 4.555629672053341
Na 4.240168885469651 7.862762699697889 5.350216034010622
Na 9.818413838586713 9.211376846555362 4.666288508742512
Na 9.380274146430809 5.565836062255594 3.6100955825698575
Na 6.4707130455860735 10.598266136470794 5.639151894439078
Na 11.66304091757262 3.2342553002639045 5.8905600996253895
Na 7.514817471159111 7.222023500307129 6.074258753845599
Na 10.93636251865687 6.463736253401407 6.973588846371258
Na 8.230004995489265 3.6056365777604675 6.471912736075731
Na 2.737834985925204 10.677228511754281 6.617726535817334
Na 4.801192023763241 2.1660329150142803 6.105113347462554
Na 9.15175627867507 9.425602191965691 8.381005894637772
Na 4.922556035876327 5.180000887511883 7.694028934329084
Na 2.1538510562808435 7.311041309529199 8.097962216482626
Na 5.481092022218463 8.819313383065893 8.725091827884272
Na 10.575779648490814 3.6504479976387296 9.343656625150675
Na 8.068795953269557 6.1328091672927325 9.211952265561356
Na 11.097624033407829 7.1284872111621596 10.574616152242122
Na 6.824181364530029 2.884113255770593 9.637800181158179
Na 7.8644076465959465 8.462719926374437 11.762438566454977
Na 5.127768549959159 6.07683088879007 11.114387202066268
Na 8.59453634389614 4.900302632987775 12.293852534168972
