29
Energy = -28.99535181 eV
Na 14.163956807252422 8.39842292864428 11.83561067635018
Na 11.804250963110597 5.994395450250998 11.099543046224905
Na 12.580542403417793 8.68592792726145 8.782390203382176
Na 12.568094113564069 5.289457793780333 7.690037163674864
Na 10.948580944996438 9.500871233650152 11.95540740458552
Na 9.621516869505168 3.997732901430112 9.43723520234345
Na 9.29233733517229 10.123931380508726 8.820059067466032
Na 11.047629134206215 9.59329411141273 5.842501070489038
Na 10.22336768126212 3.962408237026488 5.536318763562664
Na 8.500243761658616 7.103153662099014 10.935101038942289
Na 9.48935567941548 6.860793533422875 7.498530354806843
Na 7.477895799912485 2.529651149786214 7.085796325061205
Na 9.760202479210637 6.997193028879447 3.8710674048564395
Na 7.637512588266842 10.383545385381844 11.887111372151185
Na 9.634320856498748 10.374040149551867 2.7804652534071024
Na 6.371186236077982 5.26401462936808 8.98672827922531
Na 4.34887135191742 11.553718118904422 11.760250250983617
Na 6.169312856156766 11.48448826918339 8.7185070521469
Na 7.9090361952864585 11.207185405642347 5.766149947460648
Na 5.279516139143581 8.133890379358546 10.657902516194534
Na 6.416790568796134 8.286246039713781 7.255563720025207
Na 6.683477917063384 8.595486612705047 3.639936484894496
Na 7.040687787444594 5.469891815434065 5.231941621705013
Na 4.329781625152507 3.7716065453340417 6.488417375643707
Na 2.9784624019042796 9.99842591536964 8.95306817794308
Na 4.495017541169559 10.615255061169826 5.596814492733731
Na 3.3018231314350435 6.637050625457467 8.149614453689235
Na 3.9480172698530462 6.920808007666927 4.664097505630457
Na 1.4839720096090125 8.956923838134509 6.027455748814958
