29
Energy = -30.07500522 eV
Na 5.455094424896616 6.220899209219613 3.08824265850419
Na 7.501714203761222 8.028581686128703 0.8107853895542284
Na 11.054515623856144 6.630345612573216 1.378002974957359
Na 3.90860744812325 9.003733657747052 1.6759149578779509
Na 8.165556947328781 4.498690999333848 1.6294795566456395
Na 10.126692171845356 9.917304992944223 2.619857205618507
Na 1.9309562494800387 6.321139374264266 3.6043348408064895
Na 6.699637554906717 7.382346604501854 6.312062959106428
Na 6.695417987419093 10.022461828358347 3.816547919837126
Na 4.032194263885148 4.860164676992029 6.134922633872171
Na 10.85536314995814 4.065703261776791 4.1777773687156055
Na 9.011362969907342 6.993775795103533 3.965328484726128
Na 3.6177234918574794 8.746862713329952 5.3630104611937055
Na 7.419522310054624 3.885063696901638 5.226411192674135
Na 5.5071582265241945 1.851365056317838 7.76211692491907
Na 1.2252805055049416 6.333393439070544 7.674585700444805
Na 9.422820028750195 9.604231752468436 6.450918477479465
Na 9.888960003025225 5.971474098898847 7.394213396751759
Na 9.081764972804496 2.4951965816164607 8.302141853784763
Na 6.098622878337508 10.55128915951195 7.6356797255291555
Na 5.014690722227545 9.577010697563042 11.366343850845373
Na 6.665830022909349 4.942804177341435 8.711146989188723
Na 3.3580221084108097 4.110469378092604 9.759450679509818
Na 4.308972616133896 7.574478992436363 8.695489111709021
Na 8.008279628324095 8.240128361580666 9.627952837366065
Na 6.517504657055982 2.528400656597107 11.18797528235891
Na 2.1361596235166713 7.23152480941872 11.202439665483984
Na 9.15592094844304 4.896556767022421 11.088147227209301
Na 5.712354328406091 6.091302030542144 11.915419740983431
