24
Energy = -22.55084461 eV
Na 9.607971990674702 3.449401143628463 1.972999106162113
Na 5.954326103774081 3.452171492169142 3.22704615275688
Na 6.629968205940575 9.385442635063722 3.2680211320049297
Na 8.170468222742635 6.113655237298019 3.7957719487450765
Na 4.417254727368825 6.632740725851938 3.8018990448474663
Na 11.66855486095112 4.943216568122744 4.456482718794415
Na 1.0985235332809566 7.485369491460944 5.270837381331154
Na 9.786649026217477 9.040439255254354 5.3045411361979395
Na 3.756725546715587 9.734530580275306 5.642895986614084
Na 9.008787255629732 2.9234856197335395 5.454801021681609
Na 2.954584675014485 3.970049065496699 5.529949954726187
Na 7.137911296672996 11.30492874951686 6.358028884217695
Na 5.075226686453076 9.653390009228149 9.12218865980308
Na 6.177560909141661 4.535421660553881 6.58264172835241
Na 6.672452740857588 7.89098152762984 6.475772155492061
Na 11.809209308307482 3.328181228687224 7.628351870855015
Na 3.5792493265574232 6.69965941841101 7.628601418844687
Na 8.25026698587239 3.3064024572896193 9.172972751102789
Na 9.554949251525665 6.030787514069317 7.379286935718455
Na 1.3775316141122191 9.212919467074164 8.525699051767758
Na 8.791146708986327 9.251565664453215 8.935392917494482
Na 6.761545639391049 6.481051066306534 9.925996184782635
Na 4.484507638601651 3.8634230991019938 9.49388584436154
Na 3.3017849522040192 7.3379435303165375 11.07309322033927
