23
Energy = -22.67982054 eV
Na 11.768151702917963 10.176289744559291 11.071170038968997
Na 8.892996414012648 8.758049549845856 12.773960743498481
Na 8.45943496065883 11.28479957698608 10.177765298385417
Na 12.910286253744266 7.76361425066104 8.600842173790639
Na 10.942255192143033 10.65587870209286 7.584488394034605
Na 9.61756194215762 8.01585328601994 9.511680168242734
Na 5.208234422480628 11.497866746739401 9.212543880945166
Na 6.3043329036365385 8.444327886982027 10.617700428968734
Na 7.999849467321837 5.4286925404359145 11.121416645573502
Na 7.528431149934749 9.900051307635803 7.045321338535138
Na 10.45033867449294 4.803834416195233 8.56840711346905
Na 4.321821310997629 10.910141763856597 6.049604859013227
Na 10.57385835316397 7.353245024026357 6.18712543428329
Na 7.2946059252611155 6.433386599273468 7.677015439393667
Na 9.860065668864442 10.29864958180408 4.375096589941322
Na 4.72540013632831 5.183650102983131 9.73562579458404
Na 7.341106888495849 2.839705742145125 8.619190735447022
Na 6.59372467639756 10.320230909201541 3.6957534779577768
Na 3.8605657644190488 8.171035416587122 8.317071002097533
Na 8.79717161863326 4.11826178822657 5.497574607884333
Na 8.098371833355513 7.068387855542923 3.9315119956293945
Na 4.955874676427124 7.52366808642261 5.162396906046294
Na 5.178946568553608 4.270915118044586 6.203215127819829
