21
Energy = -20.73875098 eV
Na 12.49184291517923 7.29327298038122 10.383285432394132
Na 11.427772163742917 7.205212701032275 7.079253174397932
Na 10.172033412978706 7.281935784275453 3.856947021397709
Na 10.95348057286424 10.051379030653784 9.077267747638631
Na 9.824840706996481 10.16226806574206 5.7294705988943875
Na 9.443721165695052 12.859378896251185 7.854286646774219
Na 9.377648666427662 8.081919061991877 11.573937231121137
Na 9.811241032919556 5.278408931810425 9.457439140253443
Na 8.754107534242143 5.050382088969971 6.125892445347744
Na 7.299545426287765 5.306373746782656 3.03679317635206
Na 7.749793173508877 7.9325341167398955 8.287911742595034
Na 6.946829826947081 5.447327981060732 11.37546585541962
Na 6.718148275672875 3.7305164325129754 8.486975828936723
Na 5.161433984119883 5.352514300586694 5.686806128493816
Na 7.7475442331240965 11.05371014968836 10.234444850035663
Na 6.9573253240891475 8.30666628890217 4.672789863319866
Na 5.920451923990149 8.577117552278928 11.994446926126972
Na 6.662847002083998 11.01811124333979 6.870070443559254
Na 3.9940439764255844 8.691944259545535 6.273227095063727
Na 4.606615023267931 6.497846807796815 8.949171353368644
Na 4.46807170928237 10.006973659134518 9.334842429616586
