21
Energy = -20.84109415 eV
Na 5.309060527848479 5.068847176195253 2.2145351762416494
Na 5.317771894647003 5.971342282924331 5.404736009355278
Na 10.438553635846157 8.25139093660212 4.85033104096694
Na 1.80630626886528 5.065738585188725 3.735145403580603
Na 7.6428635750497165 9.182236953147164 6.90987627913073
Na 2.727431902484184 4.197651579019468 7.329777904477454
Na 8.733059102757634 5.241037636552045 3.7584070648717103
Na 9.359137734949865 2.690960791464463 6.438901569017178
Na 6.250105182643506 3.5468529547941268 7.869459025223744
Na 6.943321732914979 8.429340013890236 3.465000102609121
Na 11.822546786856712 5.002422518185114 6.241480305558222
Na 0.7032579255340992 1.9525348559486444 5.399110151440772
Na 4.215344101355224 1.122031340417487 6.422989812641762
Na 1.9161606819044732 7.519016313643892 6.479536298080072
Na 5.005560487322253 7.247142308249492 8.450549751537505
Na 11.822546786856714 5.2316983094036615 5.597120864121163
Na 3.482331028630908 2.1003603243402114 3.083529315815572
Na 8.73699778281538 5.99855889934755 7.387567620456542
Na 6.729606896009555 2.423627675612645 4.221512916969762
Na 4.424742485982847 9.851823563795707 5.92892957562188
Na 3.3950653957734365 8.145820363278522 3.0519394452052597
