22
Energy = -22.01290924 eV
Na 9.671382580001412 7.357309784633595 12.109091145031751
Na 10.857513163779888 8.755789062216563 9.04145353509396
Na 7.700392275557775 5.69889671898847 9.796256689611445
Na 9.383279052371648 4.3627710081488384 6.399970888988135
Na 5.927832485563745 7.20230640046559 12.483625377309469
Na 11.19989185430178 5.22642057464041 9.483474523493335
Na 7.539936219418568 9.602655571978794 10.3813061076174
Na 12.161240567967882 6.622199575218442 6.469006823089296
Na 9.140686475286792 11.810209466949972 8.253241139142565
Na 4.123498335646648 4.7806148280654845 10.545536589759369
Na 5.704216801568258 4.730149496798172 7.122632359235192
Na 10.55723679509892 9.892994975423132 5.539136071339056
Na 6.887617449920374 5.581226007972434 3.8870844126754993
Na 4.7743185563294706 7.881507961774044 9.071632224142599
Na 8.068250265408388 7.7317303067185765 6.931931628535471
Na 3.472258038338889 4.722315202057061 4.315905716769937
Na 5.925575602306358 10.766226315967012 7.198640573080461
Na 8.0164315875101 12.545678728237453 5.042108963716493
Na 10.104199993768782 6.7929350826113675 3.7434554285374144
Na 2.3006181570731097 5.737062701292586 7.55906602759869
Na 7.380413945731614 9.275110083249741 3.828436606333696
Na 4.546122037788388 7.8640471394462805 5.474828852653172
