26
Energy = -26.8243754 eV
Na 8.505155528865275 4.990195307708848 2.5340695651437923
Na 4.384844304428678 9.639019366060086 3.97718466528532
Na 6.618838333788185 1.9758212789087646 2.0873561746328346
Na 10.253905524595824 8.375108616189317 4.1904432040174475
Na 9.044375629088352 1.8407903457218127 4.623558399345428
Na 4.808093859124062 6.156888576077914 2.229782366806192
Na 7.016039895065758 7.4866857738316055 4.516140643566779
Na 9.513372112304264 5.242318427631822 5.973429634153451
Na 4.523195701616459 12.396866392799284 6.707330556997418
Na 7.697109821501077 10.988470995492474 5.346226365312093
Na 5.9626937792552 3.9763459715120875 4.7930702949160695
Na 3.3458707512561254 6.446021702099176 5.551630284514896
Na 5.7548401620750536 0.5628307170645538 5.483116344387876
Na 5.4145286294246535 9.135373385170903 7.268083359420346
Na 2.0362081722148955 9.801738502694612 7.018035668100109
Na 6.422744142868519 5.932598360846647 7.614042797812148
Na 11.025449206174489 2.445718936881572 7.463144744399768
Na 3.846475963180811 3.505871037074126 7.5992158113108
Na 7.48931327023868 2.5158312150539164 7.839042895924249
Na 7.2741123855100875 11.610355176397071 8.881285045264773
Na 9.307786431347845 5.42030886568825 9.557998358643484
Na 3.291870659145492 6.840050187443473 9.112439062783896
Na 9.148087619958146 8.475086533891941 7.60913067092641
Na 3.9662961871380955 10.63240184200295 10.025557367470618
Na 6.632940422702071 8.110648942679441 10.413862309693874
Na 5.743047081684898 4.523849117629818 10.612018983721692
