26
Energy = -26.33465091 eV
Na 12.971506841758552 12.517429718115245 10.66153093074984
Na 7.144465980938301 6.372243444727211 6.871735860239163
Na 4.712239509345958 3.793836114562512 7.09919406964378
Na 8.78241344746568 7.805133750941259 11.864070198644203
Na 6.567751165381635 4.822245911592761 3.9959451303445723
Na 6.980959806155906 10.965621964659318 11.002785599378688
Na 9.756231172198278 10.920246030175086 5.670044855155844
Na 3.88066941463565 6.94241898825532 5.655960158104192
Na 6.894179515871091 12.112959537294023 7.46370331802768
Na 10.131137637956227 4.707906387462891 5.637759644174757
Na 7.36718827739773 9.913029700192688 14.347060022334313
Na 8.0626145602938 3.010085279028216 7.88677470776033
Na 9.944209292763405 11.91169165103265 9.335560716071734
Na 11.528290977976589 14.028835747601487 7.256031055346458
Na 3.284765413662102 6.161879169406634 9.248562118230032
Na 8.483677173681937 8.895722667726172 8.497346590047501
Na 5.170736627690872 8.102170808990522 11.773623225156355
Na 11.463671019150876 7.807557159160032 6.733751442553155
Na 8.998841959030132 7.676261952487884 4.130373646207016
Na 12.997299039884226 10.925523075536145 7.460520378262286
Na 10.185422053912399 5.618122216679803 9.242379971061967
Na 10.346259582182817 11.174671032795072 12.79504443605586
Na 4.862289186443337 9.224857719913235 8.356922542915445
Na 6.275829389352969 9.608338350733161 5.115709006028128
Na 6.595762450502622 5.397808238469945 10.131300557560666
Na 11.817278092164374 8.930701323608234 10.216951071429767
