28
Energy = -28.6300926 eV
Na 6.173833498385842 7.268806213678455 2.117998354532686
Na 9.885215203757085 6.802577736525986 3.274116574116912
Na 7.858437207225616 3.755593758685806 3.732114221069538
Na 4.654075293315744 10.406788619670039 1.901893976815034
Na 2.4161606871678902 7.524802950055537 2.5027432450856395
Na 1.0223928697459477 4.39611471675145 3.947346003745803
Na 4.340663871845136 5.123116971629626 4.5354932249299775
Na 7.820866958388532 9.969666363741485 3.93690061387872
Na 7.314303264335568 6.742982068945218 5.482144463831269
Na 4.594846761770562 8.83004646232421 5.0965185021160515
Na 10.257527765142624 4.513308667372074 6.323463902608434
Na 1.8566570248067966 10.616810111757644 4.423606559388559
Na 6.538893144071664 3.6455306840632877 6.955750818580396
Na 5.236096316088311 12.221234347298768 4.914452022022309
Na 9.13047977442059 1.1860674709357766 6.54012773968861
Na 10.358394961223098 8.243908950009043 6.687324177141693
Na 3.007074987784204 3.8159055355203813 7.555763923751558
Na 1.6941427485525287 7.164773515374564 6.069505564738463
Na 7.101178671649563 9.6882678491605 7.630141475800613
Na 4.5859539238504485 6.897703837209326 8.083844639940796
Na 8.202366093300432 6.3212352933512035 8.727304464332759
Na 6.249182043911176 0.9661420939679343 8.96135398772736
Na 9.203340802045647 3.0014355333753677 9.567412419557241
Na 11.57727279903245 5.912380590535507 9.483689061231406
Na 5.788511242224835 4.333736447457504 10.34728879911133
Na 9.863459723684224 8.954489158479454 10.2593189364112
Na 6.303345532766401 8.075726236103309 10.984284326439976
Na 9.003371467182383 5.658892453695825 11.996142639081643
