24
Energy = -23.42535708 eV
Na 11.620589154331999 5.060627156013502 6.942601933119459
Na 10.062324668392899 10.391958814261027 3.184340283735829
Na 10.287860072155018 8.045944265818378 5.818725871669969
Na 8.39164838469027 5.010792144665365 5.297189468599766
Na 11.737463484325026 8.081785177433808 9.104232352170284
Na 8.980901908116142 2.779252835139641 8.181800347081882
Na 11.053610739362547 4.848843783992321 10.545182268213873
Na 7.609902006986398 8.000082370074981 3.404987778455344
Na 10.701775091469633 11.468643654486254 6.369285705124084
Na 8.807530947771768 6.350468200801568 8.540832641638062
Na 11.554570451807527 11.467636856508227 9.57927518500043
Na 7.3936061936979085 10.965995597790023 5.471815167685354
Na 9.162499724522545 7.7261546697661965 11.68408735084936
Na 4.389418311958877 9.167447783065677 4.647070900194086
Na 9.281068770618795 11.148956363580945 11.940036049866201
Na 7.47220805772376 4.436416591478374 11.12893126929092
Na 8.466370201893621 10.001968490872274 8.707565191747904
Na 6.647659305833664 7.737838849799295 6.641339136871349
Na 5.77890324709876 4.625176417023411 7.948949890439094
Na 5.086530851325046 10.632223255188743 7.881966472668848
Na 6.065842456624789 10.753166429316092 11.208779731612838
Na 5.907120695554254 7.391837600538909 10.280172742377008
Na 3.439465706191831 7.410567698842694 7.696746816655803
Na 3.003155081696762 9.393556016925915 10.47888485848335
