23
Energy = -23.02791837 eV
Na 8.491763305949153 3.9899421705920473 6.217347605700013
Na 5.120961070433909 2.9830915149816053 7.122920011074085
Na 7.527353829114485 2.805706279370312 9.611618249111638
Na 5.928368142228921 5.6068448321887265 4.434496625549473
Na 9.224534902084292 6.03999823784787 3.293140617466144
Na 11.59154098420135 5.7532988067545565 5.842486278165048
Na 6.624137462232901 6.3424334754892095 8.427256099851398
Na 10.164430539051041 5.386778925177938 9.116880352426941
Na 3.3420617994671407 5.927992752349255 6.89958331989767
Na 4.509044628236447 4.624328067224512 10.472821285076384
Na 7.4510640415286975 8.990007962621496 2.950222457749962
Na 8.741136957651031 7.921304209403505 6.438819153308343
Na 10.681926917731914 9.834719068039922 4.385151191304968
Na 5.251233406849081 8.766458793684736 5.751911810506367
Na 7.904202491582786 5.323556900651333 11.964690706412474
Na 12.00772430511411 8.371085937040004 8.117150982813557
Na 3.706191666930528 8.808104097112809 8.919971344265349
Na 7.613654743661984 11.618295453780215 5.304023122107248
Na 9.433149165945164 8.53547467159729 10.494735795989783
Na 6.012387289205081 8.169212843521187 11.523989153931462
Na 10.195482243079898 11.284790055143958 7.6875940818129145
Na 4.416150738539258 11.882764413050792 7.031160780213045
Na 6.942709693148412 10.17971576758922 8.677595380056754
