29
Energy = -30.16308076 eV
Na 5.4113284781454105 8.864624317221857 1.9454756721632405
Na 6.202003046554293 5.6008741203021755 3.259809082366146
Na 3.493518370801909 3.092803559166311 3.3909532373228366
Na 8.308896383297919 8.334798136518671 4.341243386475482
Na 2.6036995016204014 6.736734991362609 2.8999466565293837
Na 3.6893573740814976 5.374769126665445 5.999531312707706
Na 4.8422770620323226 8.659116805680581 5.278746527957865
Na 6.413284837604539 2.834817472907354 5.842509577746108
Na 9.346816149130465 4.713963095980651 4.694573748077342
Na 10.593285614769398 10.378762040416122 6.5682036329483084
Na 11.874539609935812 7.330936360314228 4.832334735941537
Na 0.5913774306211641 4.509665739038834 5.092667951147485
Na 9.73404776977119 7.168201969844519 7.533814617454337
Na 2.2568273119315663 10.28782057657111 3.6478473330173657
Na 1.2535585966741265 8.02202181259506 6.244183095149666
Na 2.779400154347759 2.1798686654134247 6.898021933551755
Na 10.027835393336703 1.6257454350863811 6.295575782495466
Na 1.4245888459805616 5.173199436264414 8.601426358122243
Na 3.127583503113243 10.938552924528008 7.173268760119589
Na 12.025825656388127 4.4496260081505525 7.244953420007191
Na 6.715305693277636 6.225396602347414 6.84736920169425
Na 7.0197850838446 9.759893777082548 7.855811707474782
Na 12.884175251517833 8.016613898353548 8.273227129646326
Na 10.928100949580204 5.93441200524496 10.519391726312259
Na 4.0495492864542815 7.836464220710539 8.882951051872794
Na 8.652169459904629 3.7542334275042175 8.683565809109348
Na 10.001424145807313 9.496323169557567 10.083716127585204
Na 4.985650769882046 4.2720390961061945 9.22839665231095
Na 7.269420878851044 6.933353818323226 10.346116381950116
