26
Energy = -26.8128111 eV
Na 6.828884264296566 5.471083981245167 0.7366756128349725
Na 10.206414215419294 5.799372278932988 2.229822485986483
Na 4.302619323749492 4.070854816416865 3.748705263568265
Na 8.141800222590973 8.770329652038594 1.7564415844736436
Na 5.544013232178495 11.205255512993899 2.120154387087167
Na 4.575819568727204 7.811533563868857 2.4604785021226805
Na 7.856844656663966 2.925037064068561 3.318082184863202
Na 7.174408696440205 6.1726246114509244 4.0502431657940345
Na 10.066138683947164 8.23082083394147 4.901139402465792
Na 6.363895839760323 3.587613505765905 6.561337199852519
Na 6.692820007677222 9.633140610778337 5.028256566911247
Na 9.871536152000301 4.6900998500534525 5.888206849709362
Na 3.27790243447202 10.10183119195775 5.043713408325832
Na 8.667207008765597 10.111720880036254 7.946353579297934
Na 7.5095826993827535 6.950972070673275 7.281576448216466
Na 2.929845512246455 3.590774876080642 7.274280251819985
Na 5.020874070505746 9.227149421277064 8.28429190374118
Na 3.962401801239723 6.746992642162277 5.917796333041427
Na 10.716654480794354 7.135910031961659 8.465355254389467
Na 4.922378361681759 5.7060657242550095 9.278307145808892
Na 8.375437032127726 4.389312781148786 9.685300855681419
Na 7.57656821427048 7.709386029117975 10.854459105189541
Na 5.337404468914449 2.386930420101613 10.15551717601037
Na 2.6448158313439047 4.3246674768535875 11.392921198219346
Na 4.151909786099124 7.505558491247682 12.05733990515699
Na 6.309323156696011 4.772461403561845 12.590743951422045
