24
Energy = -23.92064776 eV
Na 2.0045612514700637 10.126093546742009 4.649939714116686
Na 1.9111493701140219 7.679336549145237 7.23575251556617
Na 4.363365935017698 5.033966406265485 7.167631307657788
Na 6.974587933996475 5.399559752893828 4.435301496210439
Na 4.580198771890628 7.814942102706966 4.777380289306338
Na 5.397854631813768 11.220724903786039 4.124330575279207
Na 4.60531598516255 10.119967451287229 7.448525901923697
Na 4.378997358304638 7.434181640177252 9.920373134449495
Na 5.986462850934906 4.2654186772539875 10.225640398408045
Na 9.823602286954124 6.462020647686597 2.66243302284564
Na 9.433598962301804 2.968559397274671 4.086921924767377
Na 8.164431756232572 8.905566279429035 4.6539622789523385
Na 7.675068673035013 3.3472236058422706 7.139552287770549
Na 7.116544499840861 7.294756240132009 7.682379779015607
Na 10.233677619128178 5.965112643598225 6.094840026361306
Na 7.175406356248566 10.014211881709706 9.9388204972748
Na 7.585008654670656 6.958148243797092 11.86472271146051
Na 7.786703883160821 11.670410445928148 6.813495893089825
Na 9.465121309518244 5.358083575579485 9.459777046421197
Na 10.331920444950939 9.192313058952408 7.510662543311705
Na 10.442799632667432 8.744708415115845 10.940408354167776
Na 11.219527979145498 5.582993542806876 12.342679967651474
Na 9.902556548381167 12.145897349984494 9.654217964850737
Na 12.65611465155588 6.612432295078618 9.143222080405462
