20
Energy = -20.20987313 eV
Na 8.361103229216594 6.813912214180445 4.689545690274137
Na 6.924582674733134 9.128940819982581 6.969729878418717
Na 4.774808281922344 6.875940067869001 5.965724537454134
Na 9.387864100024968 10.503011218783383 4.9320462868324375
Na 6.364453821462015 12.466580732854704 6.496627010413895
Na 10.82059014825478 4.5748835886684525 6.451795317141489
Na 10.633267974704038 7.968376457872607 7.120561187502625
Na 12.585663633385547 10.832531991303735 7.019128104733333
Na 7.749341606048949 5.576616504320553 7.944749203011005
Na 11.734901006606824 12.930134850942046 9.887421121599795
Na 9.230042721177371 11.415321181178962 8.29078064336103
Na 5.016976488014212 7.5477623697725695 9.582643354621732
Na 11.985975172950818 9.219332623597527 10.164342815997106
Na 8.49910269713121 8.365393434031244 9.926519734291821
Na 7.553504441522036 5.434291144487477 11.511975890212709
Na 10.945405358918721 5.746833357624928 9.895026845755357
Na 5.839728308871688 11.000991310479701 9.821607687392627
Na 10.088479681421724 7.706241380879684 12.905042855749741
Na 9.15678693396932 11.188135377207482 11.823903391886176
Na 6.435075132112267 8.79242278641124 12.688481855798459
