21
Energy = -20.35089037 eV
Na 11.389035032370478 7.565759077608134 4.86667776237042
Na 10.729612812567948 7.699563214993161 8.380125092801794
Na 11.755389657329406 7.819253339856437 11.714411373930634
Na 11.188405927261611 4.58946088607781 6.820119390570702
Na 9.58290316063977 10.070665268909888 6.430733182136746
Na 9.44034087748707 10.100928469961206 10.807513412489904
Na 11.387093390599922 4.850049001061453 10.208266285372753
Na 8.271708065904019 8.588283670587721 3.2957305157142147
Na 8.326912778665175 6.1569274166590295 5.792304997918391
Na 8.46327193317333 6.700085173689784 11.611043136382884
Na 6.569531340994768 11.886241286288717 10.972197918746472
Na 7.2650363039673955 8.351812426572504 8.667222509921604
Na 7.595855403835394 11.847554915608061 4.242148281888222
Na 5.653690125469968 8.810462683413366 11.851680808038454
Na 6.886156734499118 11.793941303771573 7.612411950796913
Na 5.197376607084553 5.885849158878794 10.360417104018588
Na 5.715018634917989 6.230450002372432 3.5881291051457818
Na 8.133883378630737 4.8040888393969645 8.813292203878287
Na 5.671685208079695 9.15134060526972 5.629480372517946
Na 5.029176991033056 6.051775485702262 6.921974337107685
Na 4.040974828827808 9.50535430025328 8.7348712287568
