20
Energy = -20.3648208 eV
Na 7.177826415987707 5.4187561879194375 9.822851481590735
Na 8.11262456837198 9.29860941521321 7.896012427629719
Na 7.023924784323254 2.5309086382642225 4.716680272598391
Na 7.500181338110245 9.09116807690602 1.7770169631449415
Na 5.19125028858494 3.1016454712787693 7.722477069376941
Na 4.088205387124127 4.666438817511659 4.644013069683204
Na 4.834397492353863 8.122276753811867 3.8627176590483177
Na 7.171078297825913 5.624679235686093 2.8356425465164525
Na 9.145837365405775 8.001527782853621 4.697731638660494
Na 2.010903324383334 7.285630428174182 5.882905265872366
Na 1.6953312788092545 3.941057133017878 7.137483166295238
Na 6.931358223583536 10.802749974108947 4.8711340693236815
Na 8.837028397682392 2.9712227368671345 7.710265605038002
Na 9.287530152058514 8.00361870535937 10.962560176665667
Na 9.968950689248425 4.470962004931756 4.723567806326278
Na 10.075949024078898 6.308055028668535 7.855385709193372
Na 3.818464547644119 6.241892577075581 8.763476741342442
Na 6.722123926892126 6.148262259881234 6.421893575020085
Na 4.628489587895415 9.33576332180748 7.198402699157869
Na 5.791770394912936 8.648000935940056 10.511007542792223
