22
Energy = -21.58316378 eV
Na 12.139959611010374 9.244313782369796 9.720541531653708
Na 12.235353678035572 6.872738551912291 7.356293657884053
Na 8.94138052565879 8.082716199383865 10.26491933567081
Na 11.549317522034563 6.144850548157658 11.220268480507137
Na 9.940839193042745 9.417931862067178 6.635276300165296
Na 9.56851459954409 11.607824146095627 9.620671761191012
Na 10.050260430133944 6.353453909094028 4.856998372833457
Na 6.93336242727184 9.948781303923731 8.38829938006553
Na 9.893512005750113 4.646505997337755 8.373424600131544
Na 8.308210271223368 4.979421679449226 11.583958976458053
Na 8.239736023766861 12.383371267917607 6.300906038637432
Na 7.516743012778276 6.821634767104616 7.12719802146458
Na 6.757622826209301 10.335665747874845 11.826997226339742
Na 8.074741565710754 3.576458129458263 5.642822506250838
Na 6.88643554622117 9.510631834236383 4.728337847924646
Na 6.5396610634028685 3.872707238978954 8.966684029981211
Na 4.743301221369791 11.684098559168538 6.71436367818301
Na 5.530158174538457 7.142226863260285 10.147757712994773
Na 6.566371073793427 6.225387086935301 3.6510365631426382
Na 3.866411860957005 10.16388240498109 9.829079561002947
Na 4.244173028882189 8.180637826145906 6.885791528764088
Na 4.735260559296132 4.844761879194374 6.301995513852454
