28
Energy = -28.92030852 eV
Na 4.6798890289745625 6.218466859715885 2.5467695552700556
Na 7.013370515541118 3.4747115538893953 1.4130543351066853
Na 8.305356799209461 6.697785724718534 2.8117143632184343
Na 4.035096796070597 2.804375059148677 3.275789507990262
Na 1.9764142361890025 8.294097194923552 4.389586741005174
Na 5.593860931237644 8.914901086016517 4.578257708505248
Na 6.843463991938781 4.183999393773235 4.7993504138962955
Na 8.96436202717873 9.567965457951104 4.8571691650665985
Na 7.097267401276706 0.8974444334717536 4.155871483033861
Na 10.062331272754637 3.457342577647679 3.3672901169721494
Na 10.730388409075061 6.423788883679277 5.412247497482868
Na 3.2087908577085793 11.105995216379887 6.172309879181448
Na 7.503347830408503 6.726615042426325 6.69596152026438
Na 3.948972478495268 5.876858020767701 6.062419135345771
Na 12.442717556559893 3.4539279949778936 6.321606895626153
Na 4.521409891767072 2.4642625567970438 6.9249525981065565
Na 6.685549413693593 11.431776776547773 7.196598990428145
Na 10.169181539772861 5.215225894233667 8.679703306645942
Na 6.873613407256671 3.8459458106949533 8.864065097175802
Na 9.31476565895882 8.921666617895202 8.487371936400956
Na 7.236779992149636 6.837797838474224 10.61495872108946
Na 5.239721422885439 8.58642391734593 8.236601881703503
Na 1.881856591987691 8.497123019921759 8.143358385387582
Na 3.792371972197128 11.505407563433094 9.58243080574279
Na 9.17791710240847 2.331379035551857 6.637864280123864
Na 3.8772053945525853 5.343985001565976 9.505677792785388
Na 6.975424931221084 10.461163592406844 10.854526075488
Na 3.878251809755248 8.489247136868265 11.44217107218047
