25
Energy = -24.7129781 eV
Na 8.692592528713314 11.404978436320443 2.751813259965248
Na 10.284144138146978 12.155108374426867 5.733692453106047
Na 6.7124632945460885 8.588925395118421 3.112773778675616
Na 7.058992086501661 10.785998601532576 5.8244750727469
Na 11.958792250587912 12.95279051896447 8.731138899128974
Na 9.854540776377094 8.810146685381826 4.694464705549319
Na 8.690261346867878 11.528840921905848 8.790807260460907
Na 4.695833450218884 5.706917865589693 3.409618020535481
Na 5.383332579018758 10.271462549793043 8.81313362051191
Na 11.57494583647874 9.497474662004995 7.644223110344993
Na 5.094889855238848 7.951376879950199 6.1520894011994285
Na 7.965662719942241 5.8934508456893715 4.9962882564730196
Na 11.136675416052238 10.458211578125315 11.027660076511063
Na 8.276101556109584 8.078131829201126 7.8388779919181575
Na 7.719253014754215 9.17447905694023 11.13212854681619
Na 5.154322970696562 4.4997413463298495 6.652283772953174
Na 11.164847508392292 6.189623172022743 6.466299696291474
Na 5.388428186043872 6.857827235098564 9.423011433530936
Na 10.947782352120827 6.88938783074489 9.903670935303403
Na 7.005130027219204 7.55458813539418 14.082534152850295
Na 8.578966593706797 4.530762757181587 8.16557260067274
Na 10.26872369223531 7.886250440789977 13.154782643489703
Na 8.159085028345562 5.580785091882246 11.40164241507195
Na 5.775810593020154 3.3981785982619015 9.861856266949623
Na 4.794151392812922 5.37702721469871 12.469468324441046
