21
Energy = -21.21718211 eV
Na 5.41563861849256 6.270361012926292 3.088597213051404
Na 7.556812063123631 3.3638445323790025 3.12479000871703
Na 3.8992089407174273 9.203554378907809 4.789278236774204
Na 9.061081801583182 6.634574734032067 2.978978866397747
Na 4.8110125387988285 3.4175614884415606 5.548681626981895
Na 7.393997233915489 8.725510179459974 5.1954629198131785
Na 6.359935936608352 11.95395545614281 5.460539542445474
Na 2.2834317936887736 5.853439952946751 4.8767000409622785
Na 7.8003540339327735 5.358253598665714 6.034935512880244
Na 10.81441917433039 4.118463633403051 5.119592402185489
Na 10.42814093462688 7.499575197689755 6.584276671289336
Na 7.972791870585433 2.0112495003131534 6.637124784232481
Na 4.981554025048436 6.634254584714566 6.981029065751767
Na 8.892244867063381 10.554985108280027 7.8032694346337115
Na 9.836355922199823 4.407023609138282 8.832177564795765
Na 5.402614089987401 9.795256493687676 8.198038233497588
Na 2.0301067581039365 8.052608838613338 7.903760326263578
Na 2.752157765201474 4.424477254219443 8.383733919580587
Na 7.925907561919229 7.408288613247451 9.282977386599015
Na 6.2865726949967 3.979785396056029 9.231187028435524
Na 4.608082918914812 6.845397980575138 10.457290758550922
