24
Energy = -23.90698283 eV
Na 8.94006446243336 10.460509028129772 4.183902199672891
Na 5.791261208150253 10.515693164615955 5.990264996244707
Na 12.253354122227552 10.024386897059017 5.789627239532616
Na 10.267675056617648 7.227947081342907 5.498439758181068
Na 5.709224886033779 10.24813231678361 2.5330902471377232
Na 9.229004581726793 10.748766593571418 7.629279757104244
Na 5.772445038401691 10.571211346108493 9.421137366278538
Na 6.750027086633893 7.349848918677341 4.386843542397507
Na 13.729332279286371 6.65402414170474 5.931186735553047
Na 11.475206275345691 8.020566809721256 8.668886568399127
Na 8.791414865221123 9.266249927135913 10.941006095443377
Na 3.3280788844520903 8.236392806497037 4.415222392974281
Na 7.4656609955351625 7.766676085851034 7.863600508010967
Na 5.827316891606198 10.258221971756091 12.859166401008334
Na 3.8358609316915158 7.791479493271452 7.955250412132001
Na 11.594139423431699 4.513273758657203 7.815901101295532
Na 8.091614590349266 4.566686965863514 6.357674314460382
Na 2.7185470206490656 9.33658463257101 11.05042014765916
Na 4.287279601831835 5.019066343014476 5.745867480473424
Na 9.070674922318299 5.6506311628350305 10.12140656153861
Na 5.755276926685248 7.313177237555067 11.079230847554019
Na 5.662623152455805 4.559180060761892 9.047507115932548
Na 8.777420742042084 2.3627876549004654 8.965302585455246
Na 5.799360171652909 1.9149856363890239 6.805982887586501
