24
Energy = -23.59066486 eV
Na 9.016422210409253 4.468998077371439 3.1067346257754918
Na 6.269665139064133 4.322198370992207 4.89859324765721
Na 4.0128828156074645 6.791449979771157 4.874522122203968
Na 7.802071783633206 7.554928872093103 4.903573753341434
Na 9.11463454527084 4.717210241610893 6.991864239937164
Na 11.192577314799095 6.456373912613098 4.483088912830178
Na 2.87225137855782 7.3392863115077756 8.091204383064772
Na 6.064125804084944 6.249820549536204 7.780671296607886
Na 5.2521184390432225 9.581597459309341 6.419433737972233
Na 7.865173581143704 4.774781296555075 10.308168925034007
Na 4.59963536435396 5.884557486977081 10.823359455287381
Na 11.181499977647679 3.934030104289866 9.811446489682558
Na 10.821464586162575 9.539264986895535 5.600208210959737
Na 4.597025202298612 9.587855549502097 9.846004674265558
Na 8.510598056685554 8.73580863241909 8.131512420892893
Na 7.881111273023988 11.30696765615084 5.267307320148806
Na 11.807901906919758 6.717432602239862 7.84179261040075
Na 10.38552016826156 7.229592551351837 10.921923196871209
Na 6.921118279603717 11.909882365763632 8.65652327609529
Na 7.107576769480891 8.075759735435252 11.562955619781851
Na 11.766103941571219 9.879004370537993 9.014976684178368
Na 9.298882129157136 10.664000111437216 11.09360634559044
Na 10.127685150414173 12.554217189594965 7.601311962048622
Na 6.1705691702864405 11.644644414401677 12.11558619629939
