28
Energy = -29.0897541 eV
Na 9.968429834223487 7.403456505292947 1.6632306006554678
Na 6.452759369283215 6.87216136097087 2.1514421674971906
Na 4.338838951552409 9.765170679461665 1.9223445476586465
Na 4.98126128581001 3.2518468086759125 3.120459732305683
Na 8.667383178960778 4.128420350691518 3.4408679454841646
Na 7.88976073379481 10.246216523403678 2.821117041333632
Na 3.047794881024181 6.473535186685426 3.7262008232358945
Na 11.123997350198351 9.847666887489055 4.582672302358189
Na 8.866400523935638 7.3466790397429484 4.858856840253542
Na 5.9697090614520185 5.352163752264639 5.391628466080523
Na 6.78559916762207 1.9313358283877506 6.188515861043554
Na 5.319445894554905 8.829752678022523 5.023836383608834
Na 5.474987769366225 12.19996221410331 4.828649246335439
Na 3.059628214463064 3.460175929001318 6.367397356669069
Na 9.218268697818536 4.480576939834613 7.133917208233838
Na 8.17942490507833 10.538942784732605 6.514075704772166
Na 5.716068623315743 4.349769463703008 8.639234773320045
Na 4.826523799745374 10.250456110359615 8.213227032958414
Na 2.56397279955496 4.194860502662397 9.993085419800892
Na 3.2173551557665387 6.948835948650818 7.434117073732511
Na 4.477033014236302 1.2466251546650349 9.105393824040746
Na 6.946252490251527 7.434712332946545 7.8571328740195705
Na 7.978384938841788 2.011234354440725 9.741329196775302
Na 10.449524463865707 7.921897795389327 7.95476796294822
Na 7.8287175029552305 9.335666650840023 10.341133932944398
Na 5.5808830302655945 3.6400069984040613 11.933522705966887
Na 4.771246901234122 7.133244826401212 10.72049409047517
Na 8.50823741648493 5.61251634843227 10.539238841147668
