36
Energy = -38.06206427 eV
Na 6.515773365797177 11.207706068740396 12.610376676855482
Na 5.407671548191747 5.760811055103343 2.2002202532297046
Na 4.166203922423975 9.342989772616189 1.553720903890431
Na 8.857910831042934 4.888595757338401 1.277632403436391
Na 7.8737135637932605 8.567124844943141 1.5747022925495582
Na 7.039413451516694 2.7736730371490754 3.7487921964825617
Na 6.434386525792893 11.609268654902998 3.112369855574853
Na 2.516801715857096 7.0738666344928705 4.231640343680686
Na 3.22018780271587 3.310848115632553 4.304417247842271
Na 11.16055637165242 7.184735552537418 3.1017907676374428
Na 5.633082072829561 8.585197394272754 4.598544614874702
Na 3.000802598325169 10.700379505617953 4.876951879841274
Na 8.210953603747537 6.277351243372741 4.327689366671779
Na 8.919250574767467 0.8701922586754067 6.267532076751447
Na 9.117126296886259 9.587186667858424 5.209114912081444
Na 10.744067660406586 3.7321236235416295 4.436510978131555
Na 5.169903860344906 5.354693566346055 5.897449419978956
Na 6.159761477566397 11.24774490820799 6.794131923113608
Na 9.478487693753598 9.44016877244166 9.046872369711027
Na 11.28833501953463 3.164610659151656 8.106436938230638
Na 10.719583939394216 6.743879024452641 6.877807759496771
Na 2.915192194371336 11.196665077530113 8.56518339273636
Na 3.306364333501253 7.899195473919248 7.615280571283953
Na 8.27727395839114 4.159726130867781 6.999804584454137
Na 5.705928488416982 4.871021754711289 9.40538863084511
Na 2.5643679770679224 4.294689671622958 8.052682609773996
Na 7.0703425603129935 7.691414017488124 7.792966870546592
Na 8.049227478499013 1.975855349428563 9.754964016453146
Na 5.449028056738015 1.9039507715928057 7.025954248706598
Na 3.166530910004711 8.53451955618425 11.000033940798993
Na 9.282187511169996 5.6128866588720605 10.105353469440743
Na 6.024891948002162 10.470212090765449 10.187487037262528
Na 6.485992468153394 7.380052908607776 11.733806852651282
Na 6.654653172948247 3.7407762297595903 12.610376676855479
Na 3.194371339301514 5.088779941936321 11.679142178081301
Na 4.372311893911944 1.9097454364495778 10.546137225161887
