33
Energy = -34.32656788 eV
Na 3.873566007509515 1.4933196028516347 9.082411453064898
Na 2.459516255084443 4.156553189944855 7.293102557964935
Na 3.798205148077928 4.665416136640547 10.64562640922017
Na 5.668757322402779 3.0945183883713625 6.344562809755849
Na 4.44835929707184 8.091743009881796 11.384103393218368
Na 2.887587086803505 7.579631777901291 8.061579859447626
Na 6.991329090900559 3.1293079334519684 9.970675758737293
Na 4.1242635878135125 6.186709164293716 4.872480941482298
Na 7.158738806563283 6.111968825264801 11.998627793671902
Na 6.003913428574306 6.2485027735235095 8.239644010511316
Na 7.326241162476053 5.069216051889904 3.8314039030339186
Na 4.71325285276343 9.616884701192848 5.7021552279040515
Na 8.870738393130337 4.648221963450811 7.167421655070122
Na 7.469212146007659 9.69793236034159 12.34586186180507
Na 6.347703715204032 9.727188449724899 8.878735480632395
Na 10.163069005739048 4.866826827984416 10.777466397774784
Na 8.309468455837045 12.48389402315182 10.311561742916192
Na 6.166698285206449 12.762745293232555 7.245824599845615
Na 9.327421736392873 7.908939719186925 9.233459230903561
Na 5.899948204547806 8.373488123730478 2.563770321785116
Na 7.95477034773648 8.120870565547646 5.728442085783983
Na 10.426211598097288 11.430070303297322 13.22451166654091
Na 10.41615159754787 7.885999513738153 12.840918044327893
Na 12.1496264427949 5.609706252672069 7.7953854655667305
Na 11.36280995750941 10.866601825661716 10.01798234175268
Na 10.813598417611688 6.386668561226731 4.564257499373127
Na 9.121904910298662 7.257591430819941 1.6342513730264432
Na 12.898862024992559 7.885107225604584 10.465948657935852
Na 9.294136451021958 11.320213378788303 7.023629196922171
Na 7.23171138800014 11.54319704661281 4.006201575542304
Na 11.932500126101814 8.980778291070791 6.90863124698551
Na 8.268911756392571 10.550997007442913 0.838879024987083
Na 10.43113122815743 9.948399819695158 3.64736167487643
