35
Energy = -37.0246776 eV
Na 13.059454441942233 7.4559095481450175 6.859978951107389
Na 11.218733171445715 4.351218326697038 7.043013411295234
Na 11.837029042053413 6.455291196561645 10.17814054350577
Na 10.259436947902778 3.1064749549745567 10.39247990480591
Na 11.273172472871392 6.0000077263859755 3.7506794435841972
Na 10.723178401205269 9.888854017598417 5.121019541369219
Na 9.216689419260378 2.709246728980006 4.370732216111801
Na 9.643339834049101 8.814383869397652 12.151582207951549
Na 11.23909172321444 10.156783116099822 8.933632634441034
Na 10.010168582338995 5.269129036332979 13.212447451542934
Na 9.759383403205016 7.513880836773301 7.421409357726176
Na 7.866045939618136 3.2253360155625854 7.78196581611783
Na 8.837753087023358 12.376992993070395 7.245298596089228
Na 8.288667191428178 6.06829537336562 10.206200167345914
Na 8.668564280355017 8.409023625006633 2.528688426323749
Na 8.256860433146286 5.8684453196529525 5.018696044849946
Na 6.753259783832961 3.507036040306378 11.641019013657601
Na 5.550894595456541 3.794919957552486 5.038415873605344
Na 6.855480039794808 6.830922133448308 13.463036980385581
Na 7.711182193991745 4.912232231980889 1.8965527072580195
Na 4.574230936413637 3.890591772532185 8.652140823696206
Na 8.897643065732302 12.202460994047382 10.99474032809637
Na 7.581215433107632 9.586665298695701 9.220878601247268
Na 8.132291168058538 11.91977199107568 3.566038880608367
Na 5.815203301449708 10.091955825220914 12.080993524913888
Na 6.110744454493812 6.7068090448064 7.451640948627523
Na 4.698273716025351 6.854559141657925 10.671960070067863
Na 7.04704302954458 9.555858653883424 5.70681236615453
Na 5.253056693398624 7.184122051715855 3.6092297828947837
Na 2.916766349212319 6.766464154886023 6.837142179827121
Na 5.702727842471217 12.737449746137699 9.403451181540735
Na 5.549904864083451 12.82388688319953 5.9541290857490985
Na 4.10180062013669 9.671775698498308 8.609674082000376
Na 3.529831043911357 9.994551297424978 5.1218872687695285
Na 2.41235854780295 12.462445933912306 7.585570555451336
