38
Energy = -40.49149939 eV
Na 5.742220855824092 3.441221141047359 11.194837606337078
Na 3.3464092577378284 9.320830441821158 10.335340466899208
Na 8.283479278124313 4.7846986369769855 4.463809464414844
Na 5.080696839445251 9.142215493478966 7.259719625966779
Na 2.1492398059498554 10.833211090293686 6.938945748494974
Na 8.21669917492173 10.902488784010695 6.992237368842955
Na 5.691301781593474 9.721415809936477 1.5178284833701494
Na 10.989600371048926 2.2588010321001026 3.484980463451839
Na 7.159872082197325 3.943254635066736 7.8716521196450655
Na 8.081516310252086 7.219025332733788 7.450088351926978
Na 10.472557642339522 8.3910296885375 5.261148180446378
Na 2.622955636935948 4.57238773085444 4.103434117802024
Na 5.2137661818043295 11.67721779233093 4.787255701566555
Na 4.791988273002376 2.639314704995881 1.6453424639258851
Na 8.716897890050365 11.063140165516348 3.206445245243737
Na 7.785084145631468 1.0358469311039566 2.8390645140695994
Na 10.553881479162706 8.687455175844327 9.112865666747219
Na 3.3096858216839533 8.511044419973315 4.177027283636606
Na 7.172885897822091 9.3691519890687 10.31310988789855
Na 9.216685829668862 2.268430420009364 9.859131570895423
Na 3.4956827497049923 3.5621022188572176 8.12819373995415
Na 6.96575547476124 8.443422360088737 4.405550029121789
Na 2.1188294729778985 6.990529372918595 7.475458964162089
Na 11.65814202336882 5.634835433317894 3.5453003688277267
Na 5.522173746025894 6.054681249922325 2.2153937914819775
Na 5.6559303157836265 6.852205260946006 12.739775742782735
Na 1.9659118237491033 12.63309423387138 10.07750515841993
Na 5.139567565955467 12.271375741536138 8.6056542427613
Na 2.505287818825513 5.569391026592912 11.101159978867427
Na 9.018709309291328 7.548664374980079 1.8311880306669535
Na 5.396512761573545 2.3190565174134865 5.140274966751501
Na 8.578612544482972 5.891024731317705 10.74938512864754
Na 10.743738913506762 4.806140080022217 7.107538370394839
Na 5.1174697503236235 5.867393697512805 5.837318552832001
Na 8.420930931192103 4.059527997578415 1.1549025449925499
Na 5.222815288122133 6.47816061092986 9.398187447120177
Na 6.018470026292589 0.7992648535663799 8.489234549601326
Na 8.930130393262068 1.5090442873229502 6.2558095254283135
