30
Energy = -30.32638074 eV
Na 8.885988656804807 5.532643014882902 1.9965840154761256
Na 6.461293712423775 7.634642602256394 3.4358356941034924
Na 7.164862540220518 10.667666602111316 4.887624591646464
Na 3.8661531091874055 9.496731080426438 4.735799990905642
Na 6.370134417448871 4.239926242376892 4.195336481504505
Na 9.856505988311355 8.425704529406143 3.7593980084366514
Na 9.589828944705504 4.990508936956498 5.392234780484624
Na 4.026710697559616 6.292192661350949 5.689776251447891
Na 4.3638105184714835 12.105248909913426 6.785490764327693
Na 7.453576285895422 7.557490749141168 6.838663378384084
Na 10.217293042974012 10.761309198869546 6.292348617441329
Na 7.211358704367646 10.927957889940915 8.276217538914755
Na 7.131791719113415 3.612763449130512 7.5219887678099155
Na 4.187155756028275 8.788392177240548 8.13932081892219
Na 11.554803088483448 7.38551062145211 6.684112211936581
Na 3.943176812578114 2.933581522966899 6.522853899576731
Na 4.440620619758371 5.452978338750154 9.03236527517251
Na 9.59031612543202 5.386346838605401 8.796516592876761
Na 4.3456154683402515 11.430809716327602 10.222813342337371
Na 9.709293371741921 8.874484543046195 9.424079526563814
Na 13.05646625327296 10.118993400905143 8.173490952337936
Na 10.202642594929802 12.344185444901877 9.691946639320097
Na 12.514419576739591 6.923912069465057 10.129048133844263
Na 6.889806652268744 4.120702822962118 10.959335164622322
Na 6.5370834495200425 7.891273271877016 10.451541647103491
Na 7.358389683005363 12.09290055737368 11.597516890913289
Na 12.24309489514331 10.184915174236943 11.42245633436961
Na 9.223686440374365 6.244930075109225 12.142578582045228
Na 9.150887522653669 9.60567549273528 12.93045976306185
Na 12.011995924774263 7.53667044481411 13.53812497768598
