35
Energy = -37.16560102 eV
Na 8.323850109686871 2.621333937045608 1.6803273080632772
Na 5.5707478265162775 8.213415967312073 1.9382102542519413
Na 8.891535800226 6.506587636413602 1.4747844367874359
Na 5.8232294661690975 4.742659946838793 0.09391004667633568
Na 9.79155340908639 4.56293721247089 4.4880525892237175
Na 2.986797524367852 5.49619066160092 2.3620645243946377
Na 4.734698879735995 1.969343823411959 2.3114903073623476
Na 8.51959187298823 10.537837645371738 2.819207919310103
Na 2.386803829926954 9.14248325023558 3.365442431186495
Na 6.276920310587022 4.812713578465317 3.350625853775118
Na 7.830318882963832 7.697266412332687 4.568034233860393
Na 7.1177516152785145 1.7348907331983654 5.193694899935664
Na 5.4931195482887905 10.573883357265862 4.884193049830633
Na 11.127447140691078 8.069969700419064 3.9911888648001113
Na 4.260982483916814 7.084763637093902 5.206247404623883
Na 3.7154112054125195 3.39172430947101 5.756993783596667
Na 7.732178287193067 13.289761309300777 5.246608271401054
Na 9.28633936301851 10.414350904404255 6.470278141813791
Na 6.873188368570427 4.951416355719097 6.610325859688142
Na 3.232223807823747 9.444057108740537 7.814684507038622
Na 9.94743709037564 6.814445513206087 7.428296945417289
Na 6.543512852192146 8.377077246671714 7.641669382688423
Na 3.994550896365888 5.907432863945135 8.425742427019948
Na 9.279148925178946 3.1459628168391496 8.349080839406552
Na 6.398306306613284 11.698626860599825 8.372314382916578
Na 5.625431296817548 2.5066285722446273 8.932255751957902
Na 2.1323458532715547 3.3425586621381007 9.578319493939345
Na 7.288555051007043 5.758077767890958 9.802416195921086
Na 1.8087208469077383 6.958343759261127 10.761140701228005
Na 8.816780206055029 9.061744427502543 10.190592311224187
Na 5.088795519066003 8.567819841829609 10.845691222998303
Na 10.512696937674926 5.600819864339171 10.949392946866615
Na 4.566638861174019 4.791628105478282 11.835947910934484
Na 7.914224315537781 3.072132247898265 11.8470518509325
Na 7.618968340044442 6.649916993772599 12.924525979658386
