30
Energy = -30.38555018 eV
Na 8.942879591086147 4.975720831253646 12.845545762345214
Na 6.763681525223697 3.8384831398280443 10.417215806844323
Na 10.338332827325724 4.411212905068095 9.750949142553049
Na 9.148566689804044 2.3594710763207627 4.300033866700456
Na 7.943347799856008 3.3538085433955516 7.2426107898046705
Na 11.388755648820645 4.267217287235278 6.360354189379088
Na 7.897035025335012 7.287769903792847 10.144897448549836
Na 6.745517193698783 7.586720287886654 13.636558649622334
Na 11.095248533301254 7.46481425302331 11.521898013730338
Na 10.013669258991113 5.315228262144971 2.943612058970297
Na 4.594672365130753 6.474898416735723 11.057526650535863
Na 11.975845474511035 7.186218564444558 8.155084538366685
Na 6.7956341908716 5.1712529041109825 4.433442490124697
Na 12.01502879609106 7.320916606548275 4.743640242693715
Na 5.737092176890263 5.928279835246179 7.73326369261347
Na 8.907177181985551 6.94934211169527 6.623051073098636
Na 8.439467164859787 8.283075982872399 3.3242640225313775
Na 8.922582455623077 9.978748097027033 12.347147660821301
Na 5.458800078851273 9.892236275557226 11.411146102776161
Na 3.8270309104474016 8.728564810984869 8.474880013811243
Na 10.05173539990889 9.930229065652963 9.098676688092876
Na 3.9550321302505806 11.052509701669152 5.863018971759925
Na 6.935663037424167 9.992160826300472 7.642132936525596
Na 5.247269773472891 8.087975334010062 5.084270898736123
Na 10.54530374470119 10.100722743617691 5.6927926456994165
Na 7.835877861946786 12.459985008960256 10.135271388246045
Na 4.4094583960734175 12.13113359952219 9.125459383311505
Na 5.933191208424872 13.930088601110665 6.3991860935978755
Na 9.124299377512346 12.74908272767704 7.053537097474997
Na 7.137921976968172 11.326912596974374 4.321973799709731
