32
Energy = -32.71003061 eV
Na 2.658713831691577 5.060379963602887 10.575051586198832
Na 5.618896987823254 3.7344334953738514 9.150042829082395
Na 8.464219942296857 2.549987792125849 7.6901863228738625
Na 3.416786324151537 5.615816434399251 7.2061231708594615
Na 6.400921272726422 4.816227481819109 5.961243643043177
Na 9.146675183079497 3.599375900023599 4.314390779317539
Na 11.149912127868424 2.7700193800276716 9.825575958477527
Na 8.480781185345432 4.321743961697029 11.31968233822991
Na 4.102670742903714 6.853852512451963 4.0613189620854
Na 5.76485751244532 6.443264453743335 11.27863206985986
Na 3.412805493420025 8.280472048649639 9.310563182715642
Na 7.122454275627993 5.781172577505336 2.6859742284806405
Na 8.297178388254977 6.433903995141126 8.581780667263727
Na 11.174297729220132 4.737689752358615 6.9315399715622865
Na 6.053532253439971 8.300881552420535 6.800884522446624
Na 9.158766335114485 7.042102426037608 5.298514862657644
Na 4.104456746971346 10.367073191336374 4.585515288275129
Na 6.446053046444165 9.59860192883487 10.247682106075588
Na 11.703273740974808 6.168273298699021 10.15826899871886
Na 4.356556498462008 11.24477491151763 7.993319565106845
Na 7.214264686702319 9.213761229116143 3.4723077043409094
Na 8.959656446486703 7.810151752697837 11.808545397851953
Na 9.317257219295639 10.223293638671931 8.530367563070552
Na 11.805387468133691 8.109835050346746 7.212282971167867
Na 12.073181753321558 9.697522548295538 10.599629738758962
Na 7.044021303831683 11.843792439146334 5.766651816292231
Na 8.985707397126609 11.229826607301147 12.026815487841946
Na 7.244997474207846 12.924620850966976 9.476792336395182
Na 10.190804027461088 10.427041627608775 5.152761042368322
Na 12.555926275546083 11.362645103428655 7.49540980478307
Na 9.734552979964132 13.450930900363963 7.0000301330862
Na 11.092298737453843 13.173705076111453 10.198745599984191
