37
Energy = -38.38419263 eV
Na 8.182861080275277 13.266031931988854 7.3277610224986205
Na 4.9585785853738615 13.301882172148474 5.724254331251888
Na 10.980536115484192 11.87278016518674 8.986455529590348
Na 7.746825160252091 11.60809217297029 4.144095536069862
Na 13.459539987066037 10.062142841562313 10.45563407927725
Na 7.757745526848707 11.385918262260589 10.498170382606784
Na 10.425459337890674 10.580429684189385 5.927095780442828
Na 13.035944405448612 8.829167754262603 7.372762548243752
Na 10.477753266548723 10.17721212089218 12.148785697735564
Na 4.52877951869903 10.186011867256033 3.979338934197971
Na 10.098235233039768 9.496488267561544 2.7263270056897104
Na 12.195836047267647 7.479880485619354 4.359877219519872
Na 6.916617556771085 9.989109647936536 7.216217803290366
Na 4.90414730815426 12.628450013168472 9.084447682966026
Na 12.796942450746974 6.638503589914616 10.266470259652273
Na 9.86826000204131 8.464405093983 8.941069215313327
Na 13.41272305352306 8.362862234274777 13.405494445312645
Na 7.043274957032432 8.238131470460452 2.623529074377827
Na 8.845539607579841 7.408510018746858 5.608244207071841
Na 3.32881706614755 10.00271438618406 7.242169649335582
Na 11.625621280577416 5.458129926130635 7.31758295643747
Na 3.9390000628236663 6.755075464461692 2.5492621544278666
Na 4.799237282778242 9.423834665177798 10.425611560910449
Na 10.42405711553849 4.417053708494865 4.232098342588066
Na 7.67909999790288 8.085391888898963 11.651173887403578
Na 5.179334268912848 7.317008494530929 5.728734711352413
Na 10.49889752364068 6.656920145901888 13.085594894927349
Na 6.810033327030015 6.521780934246344 8.692726094314603
Na 6.957685050318376 4.860280249769407 3.965485915972804
Na 9.625394251656358 5.073357440153147 10.090187143704908
Na 8.640806066469446 3.5789345142129783 7.111957031572988
Na 3.267857062107594 6.7354601191036885 8.537609512619193
Na 4.741685509804661 6.228660348930479 11.688753191042618
Na 5.122034753290216 4.02484201183654 6.905574572406246
Na 7.635885791015956 4.764879216762639 13.010356780803694
Na 6.820753635346044 3.0743670658795716 9.960347563592393
Na 3.4347669624044688 3.519299540853245 9.969621373616365
