36
Energy = -37.95093132 eV
Na 7.645598384662734 4.046556582442308 11.737970843625197
Na 10.705070031660778 4.44972855758771 9.968181031830555
Na 9.45744635854937 7.3981542066735555 12.0250799459752
Na 11.884360456113852 4.608798371892549 6.519483221032515
Na 9.162485252432575 1.2518412544746755 10.002563322970401
Na 11.041954069269131 7.766930154627459 8.836675350857176
Na 10.805681912324031 10.734040787702256 11.293136069631014
Na 8.895559941228154 3.0856074624029373 7.154030032932506
Na 12.224533373281268 5.407209737970081 3.0738092505849686
Na 6.086916945311229 7.061530802986195 12.89933795409118
Na 12.322760520051379 8.18516550689969 5.42208959323639
Na 12.089607539530386 10.974663228520486 7.967818182951435
Na 9.041074831380373 4.1204157114933135 3.7163825528151038
Na 7.419762322887806 10.37353848839096 12.73770665201386
Na 7.449001184123011 6.399471947001212 9.19613185326446
Na 9.05979833552326 6.731757431970028 5.963636020035766
Na 5.863616047925947 2.579980652028584 8.838241574325673
Na 8.8845134110303 13.580022045520113 11.99722768003641
Na 4.224274883502171 5.520873603360323 10.104238267504474
Na 9.763314014366287 7.9366437912623 2.67058279715417
Na 9.395517658894327 10.356451847470524 5.847657768101229
Na 9.28817158971981 13.115126957188279 8.54636970050115
Na 5.963007765988464 12.664262465486118 10.094439262743078
Na 8.132523500723545 9.923177833453202 9.24038158987098
Na 5.948227893093816 4.826565689353736 6.0308111926082075
Na 6.0398207480562816 8.620155001005559 6.631521032006697
Na 4.827573214410079 9.11552166499632 10.363337608095527
Na 2.8179094768173587 4.076166280820694 7.111676300350924
Na 6.610203485388207 6.670761490728273 3.0073335193090536
Na 7.003823787209007 10.251494050394072 3.262713085849663
Na 6.395800133052119 12.208207234383982 6.470791512440183
Na 3.3352337340046563 6.543571516242681 4.254885723402928
Na 2.8787854007824123 7.642419160668706 7.649342572294383
Na 3.3980724294671814 11.286076715362181 8.020462381458486
Na 4.40982521881184 8.699249494225603 1.3938537467970549
Na 3.7132435156766994 10.213418206149992 4.6105172387032125
