35
Energy = -36.76423826 eV
Na 8.015908804999707 2.8726144542861842 0.9411148565789265
Na 6.272702809940101 6.206326530030804 1.250801589338151
Na 4.410053990018152 2.8788501389817416 1.793209304921439
Na 8.524448674993655 9.429397808500516 2.317862392005564
Na 4.795009038441405 9.075096079606595 3.101241445638655
Na 9.971943148625273 5.643943004278806 2.7111097326898
Na 3.6985784749307005 5.640209634682871 3.998497650096629
Na 6.644759001030184 0.4825918697541554 3.505762748443126
Na 6.987825578744947 3.747707404619499 3.938519636466417
Na 10.504182145171216 8.423094170533426 5.38288760819521
Na 7.325249484033876 7.021659079822665 4.445458830614032
Na 1.658235199063602 8.523104831903856 5.563066945199475
Na 10.000766759400104 2.0242672208895547 3.9600200939061687
Na 3.938071631952457 2.213744011641307 5.531791075026383
Na 9.99608815846361 12.031457938248488 5.01661937615625
Na 7.14579618437398 10.323418032518559 5.512106565330803
Na 3.853026134626727 11.331548445401065 6.705713038104288
Na 9.794965745643676 4.742671970683489 6.34002277255657
Na 4.708538277154466 7.95043610830853 6.605788130952581
Na 7.1064271027602235 13.152445454471904 7.137139740914247
Na 6.001285629669266 4.667916691774131 6.917637018718225
Na 7.577342204964938 1.6194314652468884 6.998537942049702
Na 2.4707812798519235 5.0658914294404145 7.523276193851618
Na 8.004281991872825 7.509026016052762 7.840202444782319
Na 9.659938144056317 10.492236843148255 8.372680047693605
Na 2.4243657694249547 8.566689263082917 9.246390433625354
Na 6.006747880222061 10.09743352145484 9.358954826412653
Na 10.937398765440834 6.880713274680493 9.148983328973143
Na 5.207558605877946 6.351879477890954 9.692797655209372
Na 4.7734602868757765 2.6622019673193336 9.512532642591093
Na 8.278427260656647 4.295635547777229 9.675815168976824
Na 2.3998892055168954 5.196531746528812 11.19254230685238
Na 8.117307309305188 7.665285794649659 11.37252107823455
Na 4.476758387654266 8.074697297335486 12.363298384841746
Na 5.831822811676545 4.659787351888615 12.545038871487701
