36
Energy = -38.27941664 eV
Na 8.181061798928345 5.522272728310982 12.010866201380434
Na 5.161289756644028 3.6514153041064885 1.042998552523867
Na 8.886672726375057 8.976562413125485 1.5119561150252134
Na 6.814325057822324 6.367231957252792 2.629419859866894
Na 10.565435449397642 6.021440747793008 3.0266519588101106
Na 8.315387203305225 2.932148227379314 2.7589337098038933
Na 5.434066651473701 9.715995484952913 3.458658583216251
Na 3.2151070315366836 6.28217867424263 3.1590164506633758
Na 5.3490243070803025 0.6587696254162242 3.397700342968423
Na 7.84418399085429 12.031973053419577 5.0999388507069305
Na 8.942978803960601 8.56372193871963 4.972910877223554
Na 5.109936148585414 3.6426106204016557 4.624420176876998
Na 11.16841421759863 3.067596368467281 5.515363817600306
Na 8.43394456343764 4.954476926480938 5.520634129480001
Na 5.504327537875485 6.8544682526682434 5.674424384297706
Na 4.121656623997066 12.279850502531636 5.897116385280772
Na 2.6060225094613765 8.801646730700392 6.141477204954359
Na 7.785031593530103 1.5550928552174095 6.375240219493489
Na 2.5751907996276646 5.073748404651111 6.787230631299389
Na 6.107897293616867 9.805590749497066 7.091828079054643
Na 11.288806729711487 6.459423879614501 6.8979709292868705
Na 4.100509665557091 1.4964985107624584 7.495062679835392
Na 6.059859788841398 4.188537711052555 8.043489763662032
Na 8.046798973218177 7.085663013302237 8.239096566969717
Na 9.474450456881632 10.304044697961036 8.25329848983075
Na 6.608041690424428 12.702275399863028 8.572096052264289
Na 4.551516564551305 7.210113925626114 8.914587279051995
Na 1.1947626244319351 7.538672609181109 9.312705558457138
Na 9.493563900337591 3.800806771411976 8.87897083160285
Na 3.4264609198371967 10.558585850966574 9.319740361288728
Na 3.4903959487484935 4.0334522018926835 10.381217433525766
Na 6.611486104953943 1.8781869361691477 10.407483953774108
Na 6.846788038463444 9.360478618156318 10.717736902372025
Na 10.108567403901393 7.572893570227443 10.753825889347036
Na 6.949190756500769 5.4485745774185 11.33197946433833
Na 3.6580140235434917 7.634167816071399 12.010866201380432
