34
Energy = -36.0802998 eV
Na 7.085637358044602 5.143173354854326 0.04108605821499676
Na 4.521526663113898 3.60111817868575 2.3731608362447814
Na 5.095940344541325 7.244168028539715 2.0422023078024223
Na 7.859170661260649 2.083832691806419 1.968310091635363
Na 1.7732382324687148 5.752579108279132 3.7942449161201854
Na 8.679240457161233 8.0953796661601 1.8045890316338837
Na 10.408117570981432 4.843703990463113 1.606440161552065
Na 6.5300018044725805 10.877771693704185 3.166005904019832
Na 7.708107646975574 5.000279715604111 3.5157969374150064
Na 2.425102081203589 3.0074841734492237 6.2001513745774925
Na 3.622977776431804 9.024841825102827 5.242049140220414
Na 10.54014956910587 6.998976102924837 4.974437091888224
Na 4.728252809591584 5.61072981863817 5.28432519394079
Na 7.095937948996592 8.145244814559709 4.96069016407071
Na 6.114470483415342 2.2834328373717354 5.583339239711395
Na 10.689572677805328 5.755205145037654 8.870461512010023
Na 9.618956959432523 10.679941460378288 5.208494438990374
Na 4.868855448877203 4.365491837664275 8.49324545466539
Na 9.38805468468733 11.820227325278026 8.839227359463807
Na 8.011238744822277 5.147234009003606 6.888882436220385
Na 11.972169359840745 9.321681624637007 7.723735418495375
Na 2.0018910280335467 6.450628404588384 7.617541112527278
Na 8.746471656398533 8.506244425166475 7.969249230897356
Na 3.166137642198332 9.93595914944021 9.094851721074738
Na 7.8531510904893675 2.729534655419761 9.244320025041477
Na 5.410279679269409 7.706328197456545 8.021709637362465
Na 6.342316010480131 11.086471412060588 7.0338957485114175
Na 4.234099660183746 1.103853560844223 8.794374597096036
Na 1.7335991060953033 3.676330863601538 9.900635567509939
Na 10.183719649407461 8.931959640183143 10.988470572829998
Na 7.427788891235364 6.1590810625785775 10.581439878552134
Na 3.68802468526378 6.769415944120273 10.951722953418756
Na 6.581511024515812 9.856228764876352 10.566137295650394
Na 4.941646477747754 3.33282240207063 11.702132475184166
