37
Energy = -39.77837983 eV
Na 3.7050031441915547 3.261918957630816 2.9275652638835603
Na 6.895619535168442 5.2243247021188814 1.8222265895515655
Na 6.482721604074346 8.71778331947973 0.5478954787341149
Na 9.807770161534277 7.651719522623281 2.364783445523861
Na 3.611860794911559 7.034760798591426 2.3835056124724243
Na 10.404252916921372 3.8085597456505242 2.9916933233200345
Na 8.110110987031403 11.162988420958062 2.937409653134986
Na 5.191547458470311 5.29952565561933 5.025031090202146
Na 1.7117769866376695 5.250696142495795 5.525049434979542
Na 7.193194594969646 2.3755812742945026 4.599878387797079
Na 6.6924834529090305 8.2987460388338 3.8604688455576293
Na 8.64002117855152 5.693835559132451 5.031727898817986
Na 0.9810992580869913 8.917194216859075 4.508391223626129
Na 4.251353602805388 10.711076781813043 3.2402511183436915
Na 11.986220964971402 6.23876789832936 5.586222395953313
Na 6.350904615496438 11.038191790276064 6.368539050157722
Na 9.6907602790987 9.261674788446943 5.814974900056841
Na 3.8207122566374236 8.342854963109701 5.897794910949459
Na 2.5826754554919362 11.315504827705228 6.820488216567788
Na 6.746965483676671 7.680225363039649 7.319201786874981
Na 10.18530961021094 2.969510127728793 6.764799470093727
Na 3.869929850724631 2.4214364656609124 6.7830326730076065
Na 1.1934933052165282 7.8707311612754065 8.289801105788777
Na 6.960728098341707 4.152311225582811 7.778857126292527
Na 12.121747902643243 8.587595053488542 8.669438123319235
Na 9.58249056686201 6.355411948891051 8.306974941147125
Na 3.976596873475674 5.783988482831902 8.324501111845985
Na 4.497046273563988 9.31084382551095 9.438944232386193
Na 8.55244264539992 9.604209413674441 9.492517096819274
Na 7.260375764607248 0.8953649707158989 8.18430743359786
Na 12.372430896143943 4.9378294493710255 9.225841713364924
Na 1.292662580764856 3.921671311384808 9.056525907916985
Na 6.6564360170771995 6.466551185750831 10.772971229010784
Na 9.006863516202298 3.500515848400489 10.468344314450574
Na 4.8817902017867025 3.110206747624696 10.420433333705347
Na 2.9268438122884572 6.393041618718482 11.424438174814863
Na 10.340746434009272 6.967839477335827 11.560162466888062
