32
Energy = -33.75692285 eV
Na 7.191202743357581 7.3483219637546355 1.1837189473826204
Na 6.382258482402593 3.494131320089353 1.2134663193105724
Na 3.5699375451227624 5.863509237148769 1.3994730990588478
Na 10.660206344174442 8.5619761427177 2.5355137204302607
Na 9.28955172764546 5.0590722856357795 3.0844205258972166
Na 7.85770408314609 10.915985092943219 2.778904711467936
Na 4.713404712174877 8.848549179094691 3.488056488231961
Na 5.743398851053591 5.440684223317301 3.874065578468266
Na 3.3439631453430887 2.8032623118760713 3.6751258863460694
Na 8.036274378834097 8.142995140981261 4.598425517999127
Na 7.251830170958086 2.3945355093747134 4.62462053242324
Na 2.4314571466130075 6.150424663205194 5.124385247329581
Na 11.042131457976021 6.872573368873288 5.782265083449135
Na 10.13162932178228 10.774125694187006 5.834012093123093
Na 7.957853198930077 5.256125291212758 6.63996478912905
Na 6.406413079592238 10.81219850221564 6.413449604804638
Na 4.680408315273878 3.804955546100695 6.937036920987807
Na 1.4625094112798458 3.125030355740522 7.287275171820265
Na 8.61892699058484 8.398768248680144 8.199745372343301
Na 10.437588322410148 3.193633188933457 6.5363666631596775
Na 2.5927157375597467 6.3559263268923125 8.826610961982396
Na 8.536636665099323 11.410295239451639 9.5675009929428
Na 5.294946423921012 7.482675026346263 6.717290017940292
Na 2.8245937627232776 9.541956384280477 6.874613321278098
Na 6.177731893428914 5.943800824255044 9.583566516119873
Na 7.329029859630686 2.604816350235475 9.038966008469455
Na 9.681319803500006 5.374713240665521 9.825986759920966
Na 5.294654599575514 9.518380607143861 9.689576467702786
Na 3.9115637782414527 3.406964127545842 10.477594168515497
Na 7.8867675894940765 8.079730222417183 11.774230786175705
Na 4.309545140708487 6.813154699997451 12.199130095918436
Na 7.109113077157145 4.363997444380513 12.371909389565333
