36
Energy = -38.3835823 eV
Na 5.649941603819349 4.548297210263386 1.7837901383054442
Na 8.196734022366826 10.675896292067812 1.5760773062306812
Na 5.198617329231407 8.568205821776314 2.077216805854278
Na 2.715959169253426 2.5606941780079713 3.0832931291140175
Na 8.814730368859205 6.960360582495457 2.0661892569768723
Na 6.197036555940006 1.027924899581305 3.1140187320324877
Na 2.204477347237584 10.208470445445037 3.098867922293768
Na 2.9055640076586133 6.317220097546778 3.8747040613742296
Na 8.6034980242148 3.6553197878334975 3.8772751254529525
Na 5.3326173276191335 11.975463831282664 3.7262272702193404
Na 11.082614305048754 9.560513398211418 3.5754862175091295
Na 10.05052316024848 6.632307917004911 5.496721613749449
Na 6.391980434520443 6.512718326264336 4.580412507120795
Na 5.083761903880997 3.5307977593731463 5.2662652890155055
Na 7.733579140925336 9.488605192195072 4.601699923398894
Na 3.902370397564957 0.538658126090356 5.917809628973708
Na 8.998864437236735 12.49928517573766 4.69400667753692
Na 4.147613780492948 9.347326354724556 5.807756399917859
Na 1.9672122391117923 3.60434610261848 6.937592702419005
Na 7.6504841556751835 4.676599881698685 7.269402050563787
Na 10.12514233106196 9.962443524944195 7.358583205047638
Na 7.544969909440217 1.2257508068632592 6.695080733377934
Na 7.178379695047544 8.126698475579177 7.576862615152249
Na 6.561028501512792 11.547336859578898 7.479365855111794
Na 4.056855985669326 6.287265194240641 7.3951698157955885
Na 4.493542682117721 9.186224994306512 9.620009732254552
Na 6.401130141561929 6.112182528097639 10.150170223174314
Na 10.052979882369891 6.5230220812908595 9.309378595140416
Na 10.673867143380155 3.239638262353747 7.313585423562015
Na 4.951352971361447 2.9542592378579564 8.942322519804735
Na 8.485741604656434 3.148248684265666 10.277339952327003
Na 8.050720429334572 9.336616930278403 10.75267198418422
Na 8.776020692651377 6.149860920301018 12.677604563980555
Na 2.8678104825271156 5.567833316715281 10.546620774798006
Na 5.337766660443974 7.702772560691529 12.93465467229005
Na 5.657440997583821 4.083764064043345 12.588696397566052
