37
Energy = -38.62671798 eV
Na 6.961459400086373 7.388229644712048 13.555599919038052
Na 5.650962339545697 6.172578890340236 10.77016959204614
Na 4.060216936928155 4.705025370049553 8.04764554094252
Na 5.940777207173444 2.5408656246431516 5.9650067480439315
Na 7.535235675982871 4.146399798564251 8.668192893178162
Na 9.291493722740226 5.454255357664287 11.494469029525254
Na 9.217068770600548 1.926437723921741 6.532724401917196
Na 10.40141583098945 7.6189500758224 14.07192071998464
Na 5.579138001995627 9.972051734287755 11.452942290656045
Na 3.905911493272615 8.333220265115497 8.722332742453087
Na 8.003004403234774 10.625735294119087 14.066697764916668
Na 2.15116727100354 6.806156152556986 6.054059172413314
Na 10.934036246771374 3.3814082246186614 9.176124201622656
Na 8.692206528690772 8.736153336285028 10.610790698315254
Na 6.851815816053246 7.2544159117155615 7.330135668481602
Na 5.068034398518343 5.660878725861654 4.594082467049505
Na 3.6999412449426714 11.810520992588463 9.247188322453596
Na 1.8287156057686405 10.146573854071711 6.585094294270958
Na 4.451117020072019 12.51372785754831 5.99885345593601
Na 11.07537844527759 10.624044982519191 12.481104249628807
Na 10.114676603384867 6.536018665309931 7.9442537636844754
Na 8.393602975394742 5.011947344991028 5.0669631988685655
Na 4.816587137078031 9.131056464386972 5.157016804863616
Na 6.659579614345639 10.645890406202527 8.068486920276397
Na 12.055107568400622 7.815170642285779 10.608733855610676
Na 11.7427060420633 4.1699306450868665 5.6311021229492875
Na 8.450975020500003 12.204491936563779 10.699838006029374
Na 9.514963935574144 9.587802783632512 6.609163156051084
Na 7.662270576934766 8.10024236388913 3.592849309361497
Na 13.536892299584045 5.557719437143081 8.37539954725194
Na 11.56834957127779 11.082210952267294 9.220865326030484
Na 11.072284055435638 7.236557911507688 4.279593732258154
Na 7.46145830234496 11.70505771937529 4.603592258697242
Na 12.907459285842428 8.690405171082855 7.101733657434983
Na 9.217006084592953 13.065178339985108 7.453673223609231
Na 10.377340335848347 10.425886314774882 3.2105165365493025
Na 12.145867653368141 11.96422986224265 5.8960452600136515
