32
Energy = -33.06926615 eV
Na 10.50758267745655 11.506223719191828 7.732371728868978
Na 11.224797017344486 8.27901232424519 9.177398062418034
Na 5.607888854540537 11.05365058633463 3.078602052380776
Na 10.853205128135208 8.044611950131637 12.746324880842382
Na 10.994490585251944 11.687596762507642 4.153220610876734
Na 10.282396623188617 11.31484430364005 11.388101851198302
Na 11.34742863730541 8.408843063464325 5.610322385939238
Na 8.558990699202914 12.460208626478062 1.749544311635252
Na 8.022193906764207 9.187504088641434 6.725746737094088
Na 11.470178456034398 1.922207655631295 8.785279852783502
Na 7.7991968853951965 9.081019271435023 10.276074556866222
Na 8.653574811695215 9.212671774192831 3.1148457823665106
Na 7.855154365382736 12.719183055008314 5.308129908701938
Na 8.794333300791907 6.006426104769772 4.828974554095157
Na 4.752173096980987 10.912191135762448 6.560512969496645
Na 11.61340808660589 5.1845757185439565 7.107236682978487
Na 8.936175133908582 2.844754242538258 6.572916676872182
Na 11.320887565688185 5.039004090106892 10.81017468420042
Na 7.085673779222351 12.28322181162795 8.68157705483829
Na 6.108508749345825 1.6643615715411193 8.307334413654976
Na 8.423268881249232 6.024068221237754 8.505879233662347
Na 9.567928696491242 14.32362591799601 9.694310688878762
Na 5.54236814044036 7.786409456485665 4.635680068993745
Na 7.0783506931024744 12.654537513035727 12.124870520019318
Na 8.578156719036063 2.819609584777031 10.432137348082989
Na 5.765870374760103 4.705382630681739 6.4266798702808785
Na 4.976377590964419 7.733452127802092 8.340489677122504
Na 5.484239191675421 4.660287523305694 10.188179536933912
Na 4.540901294346098 10.74659983201942 10.39438170270504
Na 7.675347055860806 9.494117902819031 13.722421459546826
Na 4.987198698039101 7.638021880079735 12.133006385892955
Na 8.108099504966807 5.9805400381473195 12.324957047544103
