30
Energy = -31.36656592 eV
Na 4.304027718509292 7.744365443643884 0.949974333150027
Na 5.411531057472912 4.228813993552921 1.8899337627428603
Na 7.720988105721175 7.200794832425762 2.4678865499111122
Na 9.087278336389888 3.884971579621807 2.413584547114
Na 5.575341042933861 10.121633300866042 3.482973554545205
Na 1.941270290428123 5.469261368886633 2.645484483835064
Na 2.017678524645886 9.055230668819027 3.5746498037832724
Na 9.511440874997174 10.061216261676076 4.512070864259657
Na 4.565451360011228 6.868978310905474 4.227319140011378
Na 10.0977178215479 3.2133594427028993 6.771985310521227
Na 10.372549557800943 6.555298000777774 5.2928598648880305
Na 6.571712235526959 1.6050660443217497 3.905260934903232
Na 7.261338734854232 4.729244609550111 5.094986776941919
Na 7.263010148094354 8.259279114267427 6.0744863568552825
Na 3.8376438606799472 3.5078287225421914 5.3050290833621006
Na 6.514272858534938 2.9329696866581787 8.068670250152385
Na 7.318608697797906 11.47984293651526 7.2924253391284255
Na 3.969333873176564 9.447391614654098 6.875545197377728
Na 11.83040382499495 5.865939549568705 8.786025940872799
Na 1.7375311104218625 6.381193505208425 6.247660778185506
Na 2.923436224931052 3.987208353685223 8.875755785069465
Na 8.496738008056893 5.950111943516997 8.347850688582879
Na 5.048722828707632 6.166007791293602 7.6913081814115225
Na 9.51853646326941 3.6124435047921577 10.510729583175458
Na 10.087928885488008 9.049521270025076 8.204240834962949
Na 3.5572860845172474 7.621553038646661 10.477614987750318
Na 6.75890059025699 9.093379515098263 9.718721853185826
Na 6.293561728130817 5.365021750334475 11.037359397154802
Na 6.183217539273073 8.381099859169444 12.992839566767511
Na 9.409331042131633 7.3477634155773925 11.45155567870107
