30
Energy = -30.40980912 eV
Na 3.0966956851951686 6.835657350109089 4.543918873948128
Na 3.4224645485221554 8.337913826286044 7.769423855382313
Na 3.932953914056094 10.173615630466196 4.603969408353907
Na 4.791527492987693 5.023172848146391 7.010878652058653
Na 5.8658216553262275 5.168115493501443 3.437787262943927
Na 5.455489958534553 11.529794016408601 7.24404618417057
Na 6.611100391105249 7.822257261385539 6.219213487101717
Na 4.638691471718879 10.01796695308902 10.498982080436209
Na 5.954969691393144 8.427632163936966 2.5309935574227245
Na 6.699805629058633 13.037632733123875 9.994208507936765
Na 5.958260483535035 6.8963969648967085 9.661837074750952
Na 7.215016429285351 3.6647252656668496 9.027095954977622
Na 7.7195591033430375 10.588732112871615 4.538091790326991
Na 8.177824094026786 4.19542334886473 5.628775024736563
Na 6.071849461372621 11.922888263089998 13.242068153847534
Na 7.264941549280712 8.58807565163782 12.43549741884951
Na 9.025870642549977 7.240757828642086 3.6336906212868065
Na 9.374528648025864 11.409251005422055 11.996371419846634
Na 7.969155160260557 9.650198548018544 9.162409340810996
Na 11.459990267133254 5.90624868560625 5.611516382709054
Na 8.442452475750787 5.4329484811096735 11.667467813532712
Na 9.256449494103773 6.370826383886235 8.398733962603595
Na 8.990566893454186 12.290040696454355 7.235465973180731
Na 10.569149089446224 2.9774844453864997 7.688033934734768
Na 10.130424254269862 9.036170830147755 6.420385728464421
Na 10.790000473184808 8.176033085857222 11.685706178723114
Na 11.316245452680178 10.768967084480183 9.247781444144508
Na 12.554621506781785 7.649121088044754 8.534315664156427
Na 13.793612454538115 4.309125371385843 7.836367175724903
Na 11.68787875410881 4.9189473773255745 10.645190093800288
