34
Energy = -35.16544202 eV
Na 11.857810691445893 8.893667391522538 11.298319473762199
Na 8.79883998097878 10.33095343823999 12.49836471311512
Na 12.332749703938529 5.3059311652587295 11.000653399570114
Na 9.47309205882221 6.558680541993189 12.307832112414133
Na 6.857375497285083 12.45288961027132 10.50312112514614
Na 6.530763455314798 7.893792964996003 13.374813294891954
Na 9.8285577788134 10.86864265740091 9.251789787140018
Na 14.716596558606062 7.266236885734065 9.68608213279988
Na 12.72566797728578 9.369634854159669 7.893353724141389
Na 9.686983523274524 3.812599822233322 9.534760782060031
Na 12.695253927454877 5.458645256788608 7.438923221014211
Na 9.899052487459096 7.25090897627432 8.830113092224638
Na 3.790307791412063 10.744656534418608 10.68621374654018
Na 6.748526628219493 5.346060689499342 10.750827468217743
Na 7.9573309654600735 13.157872372658312 7.179302469393968
Na 6.7948826250262195 8.920746132275045 9.981964166212183
Na 10.920062618720847 11.663959974105362 5.98980267808925
Na 7.916381072790284 9.528070205486655 6.613879559235962
Na 11.080127264563078 7.7363361690223655 5.377292940600969
Na 3.922100028379558 7.362590047417546 11.375165446529643
Na 6.634003507193176 6.352765476849976 7.363735346351348
Na 6.61646887803972 2.837501167853506 8.13402594897422
Na 4.725575063150886 11.43839441222816 7.5174910644795405
Na 9.344589552399905 10.091040451543337 3.3895637895963815
Na 9.742024477753361 4.505496546930155 6.114380617239189
Na 6.171282714837864 11.884976083908551 4.4633183299165005
Na 3.4708328127881347 8.24372739077067 8.17570004904994
Na 8.074715087831448 6.923441105318073 4.139563396520698
Na 4.795953661773353 8.737006895164429 5.154616318989237
Na 3.6392514120516415 4.6436830915714005 9.175421213226914
Na 6.700010296510837 3.680972091461686 4.757838281210702
Na 3.6080221624474085 5.519505055566864 5.892613418496879
Na 6.322842791654409 9.22340694456403 2.062721421841377
Na 5.047266964990006 6.0474063557463165 2.7699468126904985
