38
Energy = -39.72372793 eV
Na 3.284426027063983 10.917117244580059 9.223896102804689
Na 7.354506722071543 7.818415727427235 13.703385108714823
Na 5.256070653981113 9.37749103391491 11.594230073295364
Na 6.831680853059902 11.72358474350828 9.577283728190418
Na 9.576741125033953 13.899631534295052 10.40898297279095
Na 9.097811189588587 10.039904708562116 11.84140324653003
Na 12.35749187244711 11.810165002177138 11.038531070358133
Na 5.079392767164233 12.538595894484704 6.561330646370261
Na 8.49265917125802 13.242311511554291 6.834982108627289
Na 7.909336884802356 4.446098462925007 14.248669009292724
Na 11.91094570336208 13.585935761205429 7.748718529071871
Na 10.15573893051304 6.398528101061249 12.287043588252494
Na 11.970507607185063 8.33063006864049 10.23640964124825
Na 3.6974858020740995 6.997501874667359 9.46889835563472
Na 5.334987063806323 5.487565108138818 11.999531960488422
Na 2.1171289740478842 8.64618404839855 6.900617373364534
Na 5.704341333027398 9.039935570077281 7.33202953612095
Na 7.580365474901043 7.380887315555842 9.854769645187533
Na 9.982041318233486 10.652793394493317 8.619624367720743
Na 8.86083320143981 8.084887059654138 6.723255917874895
Na 13.482268359039624 10.519828291728702 7.936065701498585
Na 5.65398076623347 4.182138213900594 8.698184420948104
Na 10.345659759911928 5.573588109017604 8.753774333387904
Na 3.946696700362549 9.970048592193988 4.350806242693432
Na 7.504180084492019 10.678035306209036 4.639721667678516
Na 10.978661216924756 10.926284709400873 5.335990239794496
Na 12.27245842756987 7.641597040219217 6.653159976156948
Na 4.09242578122154 5.963866295395547 6.01131569405959
Na 7.44860891408001 5.1199140175975755 5.947535752789086
Na 8.289979732317027 3.7422635767887824 10.88716539076631
Na 5.545919061019731 1.939076705171283 5.871288058627155
Na 6.317149179898051 7.5938118701704465 3.700687549150965
Na 9.95620043628861 8.263815314353794 3.532082144955975
Na 10.894234864326332 4.813289455304965 5.391445705616806
Na 8.812202633409706 2.5117459634237256 7.722025539511113
Na 8.721692942316071 5.250132622010832 2.632887679313018
Na 5.445947385383105 4.09209051074242 3.09790154065563
Na 8.608773307033951 2.169485384167438 4.14647555779287
