37
Energy = -38.63651286 eV
Na 3.373859890070318 12.160389843937178 6.362163852262465
Na 6.468100104066385 13.375878619870404 7.601492174088954
Na 5.132568806060668 10.430201264836313 8.96584483121986
Na 2.483214030061981 8.810407478765546 7.333083326806855
Na 6.468500417583884 11.834435902573219 4.3929649763614895
Na 8.130599636523618 11.832299802370674 10.219914233221715
Na 6.735526714764101 8.852487726714353 11.578496818728304
Na 4.2354990138655975 9.285354674699873 4.199673494613645
Na 10.056811637545332 13.074732731850512 7.108592273427091
Na 8.066336439143297 10.236680244766648 6.97901989791691
Na 2.034329179373297 6.645851905925352 4.4202500843102275
Na 3.5930132754938326 4.999647371087625 7.010002457806338
Na 4.129926473260695 7.165662824161785 9.922809768962606
Na 9.662940693180184 10.223972982536681 12.934258472432507
Na 9.89718685860853 11.25053721548701 4.025044556995406
Na 11.75102515064922 11.569511235953708 9.69996487877635
Na 5.890581788086169 7.680274307293053 6.859258934674986
Na 8.27990864942051 7.203812130447568 14.361021153653184
Na 13.226749420178688 9.891994554730859 12.295850823823367
Na 5.2565167682259695 3.520061270971723 9.63089732411747
Na 7.577430504153846 6.108027294275593 9.518676341472176
Na 7.640622974842406 8.556412937751201 3.8333075633859575
Na 5.4495721975430325 5.83301608060197 3.813987064831588
Na 11.307290619037602 7.037469198623885 12.294531441309534
Na 11.591369724828137 9.7390514968053 6.672726291625202
Na 13.228401694712328 8.05356742366497 9.282053755396653
Na 9.351014406896901 6.956273974323999 6.5644740734293645
Na 5.754555320188313 5.602500808989954 12.53910324290672
Na 9.727564621760136 8.687151163843787 9.647161218576379
Na 8.724903041371494 2.6906781896608454 9.118880500971999
Na 9.115406387981285 4.439879593046847 12.09814293346539
Na 7.0301965629155 4.252441074607517 6.510933566829121
Na 8.94904048231661 5.16345823718185 3.459992911167052
Na 11.17173399065482 7.874169377572464 3.5636716017894474
Na 12.855514603559506 6.262298582454429 6.21346103110724
Na 11.058999916575448 5.322749560521048 9.26843476165529
Na 10.60050552828409 3.576078171318352 6.139562532153774
