31
Energy = -32.46192176 eV
Na 8.536352640329348 9.27962124059886 1.1626711935541043
Na 4.305912718242629 4.6952393725749255 2.620355791326598
Na 5.140780175236165 8.402036979210681 2.542364041344516
Na 8.019390186832824 5.839955281644145 2.138733701859482
Na 6.698805975261736 11.574101416747384 3.507829566959183
Na 10.848434574060533 3.8411149551395596 2.8520869770148223
Na 11.242269488006361 7.436979210086663 3.167935373483621
Na 2.454636070772244 6.812718978796526 5.1765069365868905
Na 7.321413731256798 2.899734415393531 4.423907297571514
Na 8.159643511457968 8.573353184866821 4.473412229104767
Na 10.345955328869934 10.982550626238444 3.9435264986851855
Na 5.9784148071524195 6.074679796034915 5.130950967951406
Na 3.8339979443648193 3.406536895420036 6.05075617099209
Na 4.818266952962639 9.541428200655735 6.058372138852289
Na 9.767555105081838 5.408694690519162 5.726717217519568
Na 10.950356858090938 8.604228362622077 6.825402873299193
Na 5.648852548535674 0.9057176498709779 7.894494376065245
Na 7.081258056092576 4.06081497290171 7.845442119136813
Na 1.990714089721831 1.2643378263480305 7.9239068221886715
Na 7.582856522404556 7.663048525291552 7.784186500891467
Na 8.177029914351742 11.138347441090248 6.998276834061713
Na 4.291713632903142 6.418032514283111 8.1749978107989
Na 1.2140093806712484 4.950129231412873 8.299695507028986
Na 9.892528262117503 5.655805002982823 9.429712790781167
Na 1.7111066878938772 8.5907941867632 8.45147529691694
Na 4.126058453489504 3.405792489252021 10.008714699795389
Na 7.5459713608377195 2.533790001740905 10.796177819116975
Na 5.162966887098514 9.340002729303103 9.886175379871554
Na 9.238169237846174 9.438388703424724 10.016524617214932
Na 6.5392503498229955 6.084213481391108 10.970787476061522
Na 2.9349667763754943 6.737449865535367 11.277541202105395
