37
Energy = -39.59441277 eV
Na 7.566418888678238 5.938790664940888 2.1006266593223124
Na 4.11955148668738 11.15346016435552 2.0534615536621597
Na 4.049041974944256 7.297115068246727 1.9613229402750634
Na 8.470743012444116 2.222260284290662 2.516840198772696
Na 6.831054664120503 9.170652373475356 0.3364265136389308
Na 4.953023942959458 3.389058006900606 3.1791430541812864
Na 9.994641987426922 8.79019746989081 2.4606914763303376
Na 6.64992592771476 9.55156599498478 3.6001017623604814
Na 10.84660239891267 5.035335699146077 3.754393769851613
Na 6.454814963338733 0.8209259451241294 5.550261055828538
Na 2.2215460488475043 5.139637643040786 4.984865584576744
Na 5.401995093218626 6.479722294758145 4.957488096230892
Na 7.855940256807229 4.017455856890045 5.283829333673613
Na 3.1919902534845317 9.267881754186034 5.039766218455133
Na 8.76518840533339 7.367145786779504 5.371535242827794
Na 10.192278683027157 1.713195936773441 5.807448629662568
Na 11.900097566074457 8.332545902536083 5.589846907207852
Na 9.143968907008867 10.92520553855522 5.796382220070149
Na 2.6763389391836188 1.4806966028724624 5.61357490869368
Na 5.396339052233866 12.223543828976778 5.686495308001225
Na 7.075876784586992 5.982521553498204 8.128874402291748
Na 6.264297950227334 9.1935743349354 7.016797141216356
Na 1.9328245340549308 3.7485590953625185 8.671283530430275
Na 3.455023367356954 6.946798937861112 7.938427081614866
Na 9.552596555050929 8.597491423568687 8.725784127135729
Na 4.848321960778771 3.676493312152324 6.921138182743575
Na 3.561703632438263 10.581171171063017 8.611417740307505
Na 10.477741472958927 5.055418137508636 7.610116264289319
Na 7.9081965321790415 2.547337212486676 8.682976117061108
Na 4.473848512522404 0.9388546991209884 8.81959368782429
Na 5.820178875674985 8.435313440869356 10.358037983664559
Na 7.322099168164303 11.5931848851071 9.200483381701133
Na 2.797719558036612 6.904787556777057 11.38677373143508
Na 8.561794291408301 9.321012502796933 12.133476288107785
Na 5.132168488792906 4.310202953166864 10.525808001650008
Na 8.767222674933702 5.721952726089278 11.025101100557693
Na 5.990513623034361 6.752563675558357 13.223040238991167
