36
Energy = -38.05528165 eV
Na 5.169657933009178 6.558585609446049 2.309840513158796
Na 6.953794279168934 9.580307045059838 2.092435624018688
Na 8.976472034060674 6.469967561648483 2.162694654742013
Na 6.966869580312878 3.4952042749162238 1.460161758732193
Na 10.611041827785337 9.360148086697453 3.6428683724883806
Na 2.057780186473034 6.332282857472291 4.174765207096393
Na 7.011419724108801 1.1633231768555718 4.214350063181677
Na 3.2014924413420145 9.4464525846978 2.176827031759291
Na 10.052722261681009 3.0954097387705772 3.2631888646692175
Na 8.266567989466651 12.263737664281543 4.124355127818471
Na 5.058604904534589 10.962544095080851 4.824876252789324
Na 7.900660461835691 8.672682192063867 5.453606743167366
Na 10.24247320690541 12.29987284227281 4.822257652857334
Na 4.0211724644083136 3.3152190093702743 4.118104087981996
Na 10.611626563210262 5.913259920200364 5.404503445316633
Na 1.8753913534779645 9.711780827210225 5.459906524792173
Na 7.156976705176207 4.773837841467697 4.666914801265847
Na 10.272501951952014 11.257840869710725 6.753097554006722
Na 7.028550715830136 12.29987284227281 7.4702963109562335
Na 9.293314885002296 2.563117985681397 6.8753740577772335
Na 4.76344510781548 7.299409917451236 6.039322995403646
Na 7.918478728181393 5.7158349687528585 7.771428697786356
Na 5.646286928292891 2.6197823515275576 7.230025859067231
Na 10.364385052144888 8.115183397485637 8.348937779420483
Na 3.9344696463706885 10.656368466926413 8.352669158719445
Na 2.120091067255246 7.689343926437668 8.478485084813853
Na 2.4751336597875495 4.24435166910148 7.241064904209581
Na 6.924435579533414 9.084918412816794 8.89810792006323
Na 10.738663832137275 4.661115975189971 9.428911310175943
Na 4.9847373896459795 5.691966876055808 9.362511504281805
Na 8.053987790850284 6.612892350599088 11.214165743752089
Na 7.5377691631833095 3.0825952275743482 10.291126593039099
Na 4.51241752018498 8.406243361993537 11.457474360406744
Na 3.8503899855272303 2.545615368828827 10.312909751960676
Na 2.132029923681021 5.5580178014071056 11.315506978388326
Na 5.320500713802635 4.877072719144398 12.793240268070626
