31
Energy = -32.26315066 eV
Na 6.695051229582636 7.047344938805653 0.8297495696870341
Na 2.958527128699748 7.1356286533922 1.7816431273487972
Na 10.489933914940218 6.710503004497546 1.5017392726357532
Na 8.740448487494834 9.974607343161296 1.977690978379673
Na 8.113616976033082 3.9918210531930463 2.549394984430331
Na 5.337582576869714 9.304373398278356 3.328629916783443
Na 5.082154151046467 5.359707419995155 3.7788913650253955
Na 1.785022104397165 4.083974192049303 4.955961699793869
Na 8.263669716849655 7.178503003105748 3.9678742035179124
Na 5.026482104485559 2.0772377031737084 5.409641969107382
Na 2.65998717286136 7.661085932876844 5.527535842288209
Na 11.258533786561113 8.923637905321852 4.538545925015933
Na 10.972130349228923 5.16765098997245 4.90033268308394
Na 8.153828591141732 10.473140316862882 5.611162131749521
Na 7.685563743088235 4.2583081221345225 6.128749932358885
Na 1.0660096395254346 5.6211022570679585 8.41982598884424
Na 6.0588558025739125 7.678611683088166 6.439685819518016
Na 9.528725273757246 7.228749115156078 7.383294837429968
Na 4.576642192653834 10.678655804470523 6.727885132565565
Na 10.73230180282656 10.336895601243269 8.091554707318986
Na 4.195972369807443 4.911397734637414 7.2786512126304075
Na 9.630921198978019 3.9680745624381677 9.02923854462787
Na 2.433351005993183 2.186949856152182 8.208543495567604
Na 6.084733569729675 2.4563752979037883 9.076121398495523
Na 6.763805376359142 5.9517915739389915 9.33617598796537
Na 7.182129781554179 9.549023938763154 9.20918614025983
Na 3.665338040224275 8.008973510238686 9.273855743185422
Na 9.445648919328725 7.271383754300525 11.076191610158865
Na 3.7567831726964096 4.648788489712678 10.865453372803428
Na 7.428211987539065 4.193468145397809 12.127553663581425
Na 5.7701236115953165 7.504320477093409 12.211324522264588
