34
Energy = -36.0027155 eV
Na 6.053367430537989 7.909608667507482 1.2965407792898567
Na 6.243773538443174 4.466223830417559 1.5007553697838119
Na 9.390205450999776 6.257429917280369 1.825927256192494
Na 3.7307129722990537 6.289350873241165 3.5679354513419343
Na 8.999876852106528 9.856176646087093 2.0655914720500355
Na 6.263747422966568 9.714642723032815 4.167068563413359
Na 7.314812526357378 5.852120737395527 4.7924405697736905
Na 8.703260801744424 2.746377578498153 3.6341857777333266
Na 5.051000334248383 2.494665458417821 4.033276424974254
Na 11.499692763646177 4.882307675211875 4.350608957067001
Na 2.707314122102762 9.722134174191014 4.784628786017295
Na 1.603450660999032 3.5035737835689607 4.846952794260741
Na 9.07567449703668 11.522798724905424 5.618182463555205
Na 10.647069796294932 8.24058053915237 4.677133363877511
Na 4.148558722595565 4.540481439139557 6.775436068489043
Na 10.609110267354628 2.5478313409460727 6.835003004159626
Na 8.067166245875333 8.736562129447009 7.245177927164493
Na 4.669113844534381 7.937645077866244 6.793347975078868
Na 10.328913243390623 5.921941225607949 7.588211826184508
Na 3.591792171324421 1.2026029232984294 7.0985639113870524
Na 7.121270039037397 2.54301383492097 7.015922890184462
Na 1.3163386889888284 6.746853785156172 6.67842430520072
Na 11.3089835392212 9.453266983637286 8.041271157015208
Na 5.565065904391164 11.361912397005959 7.361146148054286
Na 6.798961392582453 5.831389243801871 8.67747269305318
Na 8.558815543194976 11.33770315596529 9.471326849680036
Na 2.427885713547345 9.767703523608398 8.570371514311828
Na 1.316710849313667 3.6245482173305987 8.619739549111099
Na 4.900439614037721 3.115402337226652 10.021847874766193
Na 3.195472149346822 6.445765106318494 10.006800473139327
Na 5.6617358154009505 9.111506449021498 10.284065489756445
Na 8.809852653599965 3.669408068694414 10.148034783386587
Na 9.082296499902064 7.819481983573735 10.614576493756545
Na 6.272573351514477 5.86200486746311 12.027046455726811
