39
Energy = -40.78471028 eV
Na 10.260060181523663 9.069400574387634 13.708578784780254
Na 11.864101662508528 8.99537173416772 10.714321667124134
Na 9.911644934374017 3.012500691350384 10.967897099359657
Na 10.118888870377953 5.94745260979885 12.572822143755118
Na 10.644303292640332 2.932702527765374 7.598627658523078
Na 12.430131595914562 5.507926230622954 5.963199929211074
Na 14.13816503831903 8.109497531763518 4.275729122678618
Na 13.124210263059178 8.624020346670191 7.583304338814967
Na 11.254310580001672 5.948661346429398 9.239873349138792
Na 9.385392840728347 11.56406444898835 11.39060343839491
Na 7.016994566134794 7.809636869718974 13.264886352004101
Na 6.747543456775034 4.721362127878864 11.839325014627853
Na 6.835595357849734 1.6748059541232072 10.031356129238901
Na 7.438562913273501 2.007380236126334 6.672815969754833
Na 10.669486676116202 11.210617754065552 8.129530846850729
Na 8.512542917967796 8.323307241657336 10.048118515311279
Na 9.256717885132867 4.515066587088374 4.838012676059012
Na 7.951285039525694 5.173067169809141 8.446561355925201
Na 11.647891321004881 10.474575349881187 4.862811088078528
Na 5.152451093555276 7.387717582800466 10.35839799071593
Na 5.791993364997926 4.688272247453979 5.530191582657141
Na 7.241647713971173 11.51421447593519 8.63206368508755
Na 10.938550100452446 7.1351526692942295 3.172103656046139
Na 6.275715517593107 8.290392787557455 6.966565384585304
Na 7.641151390179337 11.090115410620566 14.542310331595008
Na 8.313258080738919 10.90512861564101 5.57101976215321
Na 9.782980943106304 7.82448352984098 6.606842898865026
Na 4.636889614648011 4.143482602745067 8.957566473445603
Na 5.778433319463867 10.741898784087502 11.685105164210157
Na 4.136470024597222 7.084787539392194 4.0313833388952185
Na 9.145098480023 10.11511281997366 2.264737463799419
Na 4.653961962909866 13.42477196975425 9.824714324855918
Na 7.5646453619387914 7.3314174951935245 3.8357471424342227
Na 3.142075520349467 6.883070591652518 7.491411100817333
Na 3.8062913198708053 10.125734315629138 8.843947862728227
Na 5.637615471132413 10.281515424723974 3.4793593997142187
Na 2.614383979808578 9.754178276591027 5.508899883276108
Na 3.034125918538095 12.485336474387179 3.4516587299017516
Na 4.679222784023552 12.573491274902565 6.419211458058857
