35
Energy = -36.83387313 eV
Na 7.66769091551446 4.147549302577468 10.932698448546553
Na 11.396438154690435 4.911098613955412 10.117239599251386
Na 5.277655858444266 7.225072826670665 12.500578545096383
Na 8.891239569199874 7.3998144853344145 11.392098100255065
Na 12.49223501350683 8.193858454514888 10.87970739820726
Na 9.234821340535982 2.3549191892229935 8.317540953461616
Na 3.3789444173471934 9.806305069015488 10.194780484353641
Na 6.795251949579423 10.283973107311583 10.46260124530694
Na 11.853240774134743 4.083121762869107 6.534406231174869
Na 10.234156452948953 10.618193818949557 12.067541227290219
Na 4.13810584248302 4.03430496378653 10.818265552141723
Na 9.010660692380286 6.033494082807275 7.876519787396798
Na 12.451361417341586 7.50617840406347 7.505587789425975
Na 1.910579521718614 6.688424606930805 10.62077909917016
Na 5.650051358509224 6.937803126807008 9.242621671242103
Na 9.788848772056996 9.752026833886356 8.675158999262901
Na 12.685484601773997 11.372883861984485 9.04292676861923
Na 3.003096767173321 5.300081686812391 7.406443338824622
Na 5.948614027763414 3.336671903160424 7.773357069671679
Na 9.144643717293041 13.140191646765025 9.942884717037211
Na 1.3503081687597915 8.373338634353289 7.514699967821915
Na 6.07066691815356 6.420971044285151 5.944047213695736
Na 4.65422913140671 9.532043542727568 6.995962747426293
Na 8.41350832548777 3.7223107141129 5.066507346952178
Na 8.337224595747282 9.008510911422729 5.779006830720843
Na 10.632632994740272 6.631905470050793 4.430318215828787
Na 7.031007511630295 12.11402774844739 7.300482532030916
Na 11.610353874380113 10.253628482884425 5.403816821779969
Na 10.550839486078821 13.323504596094564 6.865877752520737
Na 4.749864146269653 3.886198918961453 4.219891691661109
Na 3.171846911953436 7.337574203241841 4.352298407478809
Na 7.223607949145051 6.472489033705536 2.799811520643558
Na 9.577782862796603 9.286236848126789 2.3957847033924504
Na 5.837807165256954 9.84866568986377 3.6923988571129325
Na 8.687817577365024 12.247333681122937 4.121204270040706
