34
Energy = -36.01921261 eV
Na 10.036487397285187 6.7468178185439145 2.18604225890442
Na 6.107756840766159 7.021865058238643 2.148533412541507
Na 3.7717264261207952 3.9135212666366335 2.1370149213225798
Na 7.847210049013912 3.625903685198849 2.7208390843427397
Na 8.35528326899372 9.924557755455105 3.8825202338354514
Na 2.520883043526413 7.027644082929072 3.627840508895034
Na 10.997750911910027 4.314647369949356 4.913656079055721
Na 8.266593603004326 6.529187532778708 4.966167513326526
Na 5.165251343673318 5.050693016264344 4.8903403128124525
Na 5.359174921443201 1.5472671393896036 4.548417698108459
Na 8.988871164929686 0.7830063452361178 4.504088429879118
Na 5.269028099685714 8.771806614471188 5.169133326654354
Na 1.8706103881223413 3.8814011486153253 5.373212614478884
Na 6.182840253616607 11.921650796323686 6.479485860089576
Na 2.3381022065811288 10.172969676468117 6.623971796310744
Na 7.974992787992582 3.3176300392485145 6.562426786302428
Na 10.126192237783394 11.810977584541122 6.566244130877967
Na 11.255402445273852 8.39865189429673 5.347525780782303
Na 6.422061482074054 6.250822471958608 7.937213198151136
Na 6.92071366616321 0.3353918551568348 7.601462429127634
Na 4.440945849478205 3.1524705347336885 7.927926009383184
Na 13.099926865698645 6.341655398842415 7.511743347648167
Na 8.187408923492944 9.151546316039692 7.322081534994416
Na 3.1887583512439965 6.767794061544228 7.251212465136383
Na 1.3959436398325338 8.35977069211235 9.768772529481254
Na 9.886308275767076 5.8512734089944205 8.279942368524708
Na 4.959195555135164 9.580154173921576 9.113898929159824
Na 0.040299951956268315 7.224089799846137 6.498223717023396
Na 4.248091544975801 6.164205034860928 10.604022473315796
Na 7.335218177095772 3.858533722394526 10.119817375980785
Na 7.927865438620236 7.781490502552423 10.63461889063807
Na 1.1177156588700827 4.733311361136717 9.019523552814832
Na 11.222474923527283 9.19644242532323 9.066355190895333
Na 8.187486589820265 11.505421699470357 9.710297522677989
