33
Energy = -34.67556552 eV
Na 3.031934334337768 10.650401780180772 2.3355250320510392
Na 3.143770226117403 6.89106420337941 2.096025331999146
Na 6.243173921519566 12.09266778995095 3.333076998831797
Na 6.607332639943779 5.944505659617477 2.547656104664156
Na 5.950923049570947 9.093647354322623 1.0036845637011966
Na 4.053093941049553 3.172616955103439 3.0147921383845584
Na 7.527367077430997 2.4626421510460577 2.3051255074763874
Na 1.6297414306132547 8.381635374836002 5.14843586822773
Na 1.0255511730121283 4.770694019888238 4.551108158430034
Na 5.114305799979303 9.10654872816399 4.425659302104569
Na 9.815436630074739 5.288198986414157 4.389303344255642
Na 4.088147584348293 5.906562314385314 5.34490086397916
Na 7.23332984831519 7.041367506188267 6.011427086613147
Na 8.645185384337777 8.996243859421243 3.570297017653405
Na 6.766493020744877 3.5384347731490164 5.417201829284934
Na 5.622994963033286 0.3126227157071292 5.0516067028398215
Na 12.281898532054516 4.938865180506349 7.39257554955233
Na 10.543861538713864 8.08936385167258 6.860420150269726
Na 3.5169422726575643 2.6429315621731577 6.643393429836242
Na 7.683186469876336 10.593380737800363 6.88558405169899
Na 8.90785171131758 4.760371008435969 7.857391864127397
Na 6.865630704683719 1.7862876098236722 8.553199376577789
Na 4.437834085038694 8.64655914221544 7.951387419927893
Na 1.8953706905758494 6.019142092232895 8.034956909688242
Na 5.323346530571608 5.082718861317704 8.620813588828321
Na 10.497993073183865 2.772576088487765 9.894205733944142
Na 7.715807548655382 7.782880089789933 9.29436520785814
Na 10.022543679579295 10.224605692976057 9.841933989698392
Na 10.86626057833654 6.590321127980716 10.326856935776084
Na 6.500989243814441 10.665433086763915 10.59346578853993
Na 7.68352607044543 4.743328246971829 11.282216231987627
Na 4.964384414520944 7.351793582534918 11.36910092338934
Na 8.345045128889119 8.210841163905561 12.60356029514629
