30
Energy = -31.28756618 eV
Na 8.774937700758205 4.016045099461259 1.7494672462241916
Na 3.8898810908593413 7.695815330618662 2.901028269339526
Na 7.561634842586466 7.266471292263839 1.88797038445116
Na 5.161666377437112 10.717934239185059 4.346733424970826
Na 11.410203393013635 3.1366911452205257 3.8679706519046166
Na 10.905817583414652 6.8189248872521775 3.318412078929936
Na 7.902102422169158 1.6049105490809206 4.581726505787838
Na 1.9497143093950253 9.293904700577235 5.545047659386117
Na 5.746397213884426 4.493335486117247 3.434623225936858
Na 8.978446085147208 9.800130020288641 4.092363062789002
Na 6.563223757931332 7.626589269049933 5.23116225961284
Na 2.9484378241924722 5.6736596182371715 5.648261371396497
Na 8.83231764971354 4.839504491740486 5.374569234849857
Na 3.990186669209148 12.014179100557195 7.334570328721391
Na 10.677882332540413 2.082791343039524 7.228049935432704
Na 4.604594016620817 2.3222561958538237 5.9756414505485225
Na 7.275489961826453 10.644273157835519 7.373716145057271
Na 12.154210480324974 5.356092477115603 6.546016697835112
Na 6.116288740721975 5.180264043205034 7.474802135674777
Na 4.362448396875934 8.27963612745002 7.804283288225706
Na 7.370110464134399 2.008619404891099 8.246934648788475
Na 0.9661621364658287 6.832349715150839 8.297303244950479
Na 9.53347587651988 4.893233651867891 9.077712083201435
Na 7.426755698237283 7.8435528158809 9.746044539919144
Na 9.811112361411311 7.947572686244296 7.037434302963491
Na 3.137873852322816 4.2212315506380405 8.994188934031033
Na 1.8585448246904626 10.000289636356765 9.442341935826954
Na 6.217159969484244 4.680611491086325 10.889377865483958
Na 5.239098701251447 10.502076683055986 10.439404592767227
Na 3.611770540031386 7.184999063847595 11.09078776816388
