33
Energy = -34.78366645 eV
Na 4.494426056907518 6.101510045362107 1.7597733578081194
Na 11.282651065971548 8.227294387409131 3.5663317308074505
Na 7.8374759570141865 7.344272834945535 1.9171647007055184
Na 4.969527622477429 9.709146887105927 2.314302868728079
Na 8.409821572719538 10.711163012057304 2.7634065658417963
Na 6.821097901749073 4.082382936851111 3.3556359363082326
Na 10.333537366313992 4.749801904945317 2.4428225989039274
Na 3.313810140001781 4.371843878978138 5.321895516452687
Na 1.8451203915173076 7.385095557123418 3.4800741821218897
Na 5.2594527531431945 7.4362941718740325 5.045678086513027
Na 9.049650206356045 6.292853754966752 5.193251257808241
Na 6.174933153593561 11.099009526696582 5.584122115698874
Na 2.6871014881721518 10.404579334249672 5.116467114909913
Na 12.352310941676057 4.944452549566758 5.490870442646067
Na 9.531551266631686 2.6045046441349347 5.3665452953212585
Na 5.675296085992402 1.3977555905390042 5.496388250725434
Na 6.741915278616502 4.2391245418669286 6.863040266942715
Na 1.4650940694689574 7.538346288998534 6.892266020985387
Na 7.9190742573491955 1.468853069676423 8.612954786113582
Na 9.399674544868212 10.013424500733002 5.988036167106647
Na 10.17135389323175 4.397123348010893 8.470329090302743
Na 11.37617189800927 7.608213069365734 7.607138574776516
Na 4.354639221008681 2.368382107195928 8.788357986294663
Na 7.4952831390717956 7.553612806503961 7.978225754696715
Na 1.322153852311866 4.390119215352721 8.646750346092027
Na 4.277633665531999 6.0352780831022255 8.460472946139545
Na 4.251750286661848 9.62990476487183 8.293528713707872
Na 7.699537807270804 10.617753086443306 9.125584918739662
Na 7.1048123690966145 4.434139556088313 10.566413960383356
Na 2.0675476490683113 7.688241357224087 10.496146313987543
Na 9.450777089515269 7.270902616985218 10.733514443859962
Na 3.661905432785931 4.662470179209074 11.622920216301262
Na 5.744909928435447 7.764148744105831 11.181587824808885
