34
Energy = -34.82333758 eV
Na 12.580137220815464 10.337495746785068 11.82325932911512
Na 6.351480722166575 9.818291720958348 12.239096280788567
Na 9.737649369953251 8.427471452899008 12.825288572535614
Na 9.358110144333393 11.62822934346755 11.314673141137957
Na 6.093670571432569 12.908663213841022 10.678153861962402
Na 6.7299280230064715 6.772288986318003 13.810874723505252
Na 11.823026905764925 7.304481283588322 10.174054139343472
Na 5.4726623065840805 6.889929794332271 10.500455184314985
Na 5.024635354298571 9.993664306369876 9.02543986074214
Na 5.0019735781802055 13.165699149926866 7.402025586702868
Na 11.427327071176117 10.401692429976123 8.475154699761633
Na 8.433589737389743 8.613903651049196 9.487429242458202
Na 8.796591049389637 5.582351750031132 11.152570102814222
Na 8.262672222418656 11.814904209203716 8.043260498755108
Na 7.123544757712992 8.937798914713415 6.338141439167619
Na 5.879658570357435 3.922419573746535 12.138553323820135
Na 7.301117245779984 12.257198780343435 4.80645109573384
Na 10.81168967152278 12.47222659262602 5.567998729249916
Na 7.958908287659277 2.5599455446788704 9.676812714174918
Na 10.471292624971317 7.375250688437981 6.842478961140688
Na 4.580143362367386 3.8297080309787788 8.877729945492566
Na 12.80293209929556 9.522022143030298 5.4124544643737185
Na 3.897163726500785 10.250764116190604 5.726650814583891
Na 4.025539214630289 7.134219715768148 7.476883193520568
Na 10.976142833096459 4.302854346610715 8.720011856840225
Na 6.528408311179538 9.635931491163223 2.8224830121793194
Na 7.537178950079743 5.562689409177863 7.733578795772926
Na 9.719194132559451 9.537721094866665 3.9537497739460523
Na 11.805597592362355 6.648580770288875 3.736317605805884
Na 7.507395303072079 2.323013556793261 6.341807422153699
Na 4.45372275028562 7.3100026754894305 4.070520004154189
Na 4.8624001905043395 4.259750664246887 5.555220532521088
Na 8.076460248513197 6.460979669833583 4.215784004041121
Na 10.397793252857047 4.033865598384782 5.432723168149838
