37
Energy = -39.2865119 eV
Na 6.108820318225357 7.048730976552386 0.5283776569005371
Na 5.795721221121383 3.2816157503508676 0.7979249668876971
Na 2.911776386063824 5.689638848271988 1.6954587577156768
Na 9.497389139078795 4.806653052977522 2.3452318505574197
Na 4.524220167915775 8.818961421615679 3.265948732837742
Na 8.152915029290964 8.1983379748696 3.5729594296967604
Na 6.014941024932408 5.2521167044427175 3.4194824725730064
Na 0.9866448819423332 7.999900360794042 3.9843160708519894
Na 3.5996549464609067 2.5367172418457797 3.7269411367129384
Na 0.24042359687839235 4.362471791085363 4.084712274155796
Na 7.558128008547722 2.041842978412723 4.094035094292471
Na 10.356228800603581 10.61902981408704 5.470976770370335
Na 11.494184281561838 6.890348363393428 4.906466314332972
Na 3.065139576254971 5.734437697619474 5.308532508833283
Na 6.490270907829433 10.634299895687603 5.877996024833295
Na 11.398865880239162 3.1094319981453826 5.306013689053733
Na 8.595094055574052 5.031906778479184 5.69450798590629
Na 5.871939807373638 7.160018442744755 6.180305290836595
Na 8.739276500241994 2.2749414806817527 7.771979000952107
Na 8.941090692048396 8.125926539800831 7.191070555068648
Na 10.989782348005507 5.494463253647794 8.360480602702633
Na 3.083742960651232 9.345224841771469 6.8426736321335255
Na 1.7967189219349333 3.0688059766463103 7.08246328358788
Na 11.944045040783708 2.2003995887266083 8.99390042953749
Na 11.834033943087224 9.144409510508716 8.4817100056826
Na 7.255382879961714 5.329089738597064 9.038929641844163
Na 0.4032567258229437 6.604062265506845 7.303287345913081
Na 8.6528973777268 11.243894509273781 8.952803402635679
Na 3.084164498847562 9.204413786631788 10.6619347103993
Na 3.6848325358733303 5.918894614141043 8.887997528237511
Na 5.415551192391813 3.392195873919274 6.7458043775774215
Na 4.863217359383048 12.00030355155476 8.947353795261257
Na 6.043850759282734 8.795543135479939 9.084626161578232
Na 9.249866801692384 7.841961446588573 10.79610320101543
Na 9.487790002515148 3.9891477261044237 11.247160094805817
Na 6.455877974576136 10.50170816002439 11.926865716818126
Na 5.940478055464843 6.836368509204378 11.950884087085662
