35
Energy = -36.8803492 eV
Na 13.032854592601502 7.9145871496329345 10.943474484683376
Na 12.095013551495121 10.86923826942762 8.789956313790345
Na 12.051238057411735 5.318766081018909 8.511484082348172
Na 14.519562258952595 7.994836579159657 7.8668625920031126
Na 10.41809363421151 11.22183543628624 5.186446118869731
Na 9.57783149333119 3.146493490831311 6.9605435815668
Na 11.429697153931437 8.314913239741731 6.507879637616527
Na 10.452618560806503 10.072043943463008 11.913160292512456
Na 10.805863028214441 5.509520087781957 4.59170853724908
Na 7.681686416122207 12.162515869815325 3.0790864066078787
Na 10.407315817841658 6.3351520276829625 12.77897169627011
Na 8.752190520874048 10.314633522311924 8.313310491685636
Na 8.599262060354073 8.38790891234106 3.4959307924297374
Na 9.005156297000015 3.9019942547195288 10.255910530401197
Na 9.479069443754732 7.413782752647188 9.756378825153044
Na 8.343475364578778 6.862237773770014 6.631541790404855
Na 7.425576677361651 4.170442010744283 4.44526845254293
Na 8.728392162618285 12.96671751143009 10.318712471336239
Na 6.419658144047712 1.6396954257295766 7.489296180385478
Na 7.985587656230907 13.479291513931745 6.653186618786033
Na 6.677153504451515 10.185207348434691 5.713041936424942
Na 6.842784868812459 6.34312328091952 11.77622316772762
Na 6.869925828126215 9.950025367894689 11.417554217740177
Na 5.624237844747809 3.015558925473869 11.021515077576487
Na 6.033255889057127 4.913344307301124 8.1009249031807
Na 4.791099947690048 10.038805858593003 2.8758273375049295
Na 5.457993735550656 11.965493231481606 8.600995442511707
Na 5.229475472530068 6.992760848145822 4.775541044882689
Na 4.07460410845572 3.5332184441415135 5.256024449825288
Na 5.538709662440428 8.301167890001304 8.639394573721566
Na 4.676691025348305 13.023349559627233 5.060548195194533
Na 3.055869615698912 2.9585296806909605 8.593812656797441
Na 3.540161200680276 5.987518558663912 10.591979883240768
Na 3.197672657186599 9.901520640292947 6.300978137338331
Na 2.7054874586736224 6.368473219451214 7.165416887656259
