31
Energy = -31.20136548 eV
Na 12.004131943102912 6.757475492853083 4.661306282664923
Na 10.30076580711904 3.8149428858929793 5.916486973866573
Na 8.625133793355847 6.508721091628864 4.663041762642507
Na 7.018461251441831 3.300176366219308 5.421075106455677
Na 10.191124621093564 9.523882951878512 3.77182622415957
Na 10.226489255055753 8.85365427701581 7.189052732052272
Na 6.796474789852766 9.129900206886829 3.462029509083905
Na 12.163477463908535 6.080196857143155 7.9506010719593165
Na 10.864736092865215 3.1656540838837146 9.248809717458396
Na 5.3210204620813055 6.25169109880109 5.083554617490858
Na 4.337268449187196 10.936536670481773 4.959693461488413
Na 7.5631536731714135 2.8404655599012822 9.927808503301078
Na 7.88696225666927 5.764639554398328 7.9552979065519365
Na 10.935923613472674 12.219907445075592 5.827588482104427
Na 7.556979939141851 12.132369662891993 5.288879109432839
Na 4.764709368152339 3.3947471479348756 8.082983617807512
Na 9.47113479842848 5.654112387607776 11.23276311232361
Na 12.869585945255167 5.264947838008889 11.186495043338383
Na 6.548888423037398 8.99323368891485 7.101987061391037
Na 3.9694361875286095 6.5980905310365765 8.222506487417665
Na 11.985371015521451 11.559497864788142 8.96549291556667
Na 11.633884003402027 8.427759543884907 10.557028643366804
Na 8.632403561652302 11.749634421174873 8.529261905619887
Na 2.9415706299530715 9.905011252637337 7.956272023757754
Na 5.338828142355511 12.345639276421252 8.042894796621754
Na 6.076829589653964 5.7360906060762105 11.030681494180495
Na 8.164064019937493 8.652452995913787 10.247966790686634
Na 4.7050048169608605 8.88599485163984 10.749421155116165
Na 9.906283771071859 11.38327902637591 11.74170742171511
Na 6.554703040405533 11.779507374742654 11.355466124491958
Na 3.1364414469975204 11.973684795912177 10.776277104504251
