39
Energy = -40.72936176 eV
Na 2.4629726632568865 3.5357459334187635 6.406407797128329
Na 2.4682795271774873 6.7165584298982415 8.170537695908873
Na 3.1232215537561143 6.442026164555989 4.730706422360047
Na 5.823064631815705 4.2979183244192045 5.170085103145093
Na 4.877276491975658 9.734074538320174 12.857941153531938
Na 4.741495206284977 3.955390564128876 8.935135014995286
Na 2.9013746387307275 9.83805622096756 9.526015339496402
Na 4.5854082682794814 6.850198302069119 11.029253660452298
Na 3.88184220036858 9.428091405547251 6.1996162015390786
Na 6.000348120993858 6.914766055189432 7.658122183546332
Na 6.202593888469612 11.50463307521323 4.486349704873534
Na 6.09315796070028 7.878058852323028 4.07413231323784
Na 6.581061466794251 9.733763595223806 9.838037698368188
Na 8.80035260022277 2.9590992178259676 4.5113230702055445
Na 4.101854625583957 12.639060661554966 11.143971757178024
Na 8.138213113975505 3.7938350825766847 7.823638929604771
Na 7.655911135133746 7.705408326412317 12.597711546727473
Na 7.377508754547698 4.648320679742275 11.024776004295846
Na 5.108996731631901 12.172312785763534 7.744791762886868
Na 9.356541166999964 7.028521303585582 9.282734825799865
Na 8.511001679194068 11.102261180803234 12.651912808536787
Na 10.322986898368018 5.600136305248337 12.832640392202626
Na 8.01278478144878 9.569850584974978 6.810321688450968
Na 11.26439522824242 2.0724600528729726 6.847963235805673
Na 11.889027404919434 5.440294848030782 7.426604851775599
Na 7.404632296220504 13.299753644684776 10.31481749968839
Na 8.421110758336395 13.207209034461552 7.039334330177142
Na 10.738407694179115 3.4997870144394057 10.08278636662668
Na 9.406568941301849 12.852033658852118 3.8181093015386303
Na 9.051992214491387 9.30538970448797 3.4402870338590166
Na 8.945367523115156 6.369088906775176 5.514465292808482
Na 11.097924675753307 8.870112765641947 11.807380430157183
Na 13.085333182072393 6.073513123273896 10.689094032726356
Na 9.9585303871867 11.018710195464644 9.38770670485343
Na 12.09510762723504 4.290109312152298 4.143311496665853
Na 12.351455625878627 8.691495863197888 8.425507776839043
Na 11.225761920799476 11.05734449092924 6.239271346949335
Na 12.0438298245041 10.793248888497244 2.8775479446368615
Na 12.028817420858706 7.817454265884489 4.759605597588835
