32
Energy = -33.14806285 eV
Na 11.080621530044082 4.93532989114787 11.02896741920691
Na 12.187934152608115 8.368535398092998 12.057593849940623
Na 9.012900709931689 7.2288540118886 13.114002146174673
Na 13.149954129187638 7.053391805065401 8.88416370211211
Na 5.901514402724265 5.856909173598644 12.901845894413906
Na 7.44197341339133 4.7236660414961795 9.359761293975554
Na 10.473633024087954 5.056841285978271 7.207880202064667
Na 6.132386547966108 9.468638233391145 13.124570206882506
Na 11.926112074231316 10.5122900304159 9.160652101488441
Na 9.682912599321641 7.558297017530471 9.59294092870206
Na 3.8901099161433557 4.786628166845896 10.302355993973269
Na 9.171330542056873 10.504008913827622 11.604238835220592
Na 4.660269401397934 3.2886280086067052 7.2195509116123855
Na 11.083225162636968 8.428256613325198 6.188441864452066
Na 5.979742815558724 7.997361720870369 9.9094308998644
Na 7.830925094963655 3.5286546507350565 5.488490495550199
Na 7.148271491698878 6.951688005755558 6.416583596122929
Na 8.385795323459504 10.077084851122272 7.87939577406362
Na 3.500227237146742 6.695073957614309 7.370720998427567
Na 6.147156239265516 11.642791305712453 10.08758176086075
Na 5.187782682705458 1.8379794028210346 3.900489810679298
Na 8.440506217707709 9.918275363877328 4.1882987008026085
Na 9.43068222477984 6.252803142785289 3.7711497328361876
Na 10.765136968080403 12.125605341147192 6.021648500742666
Na 9.317552010371054 13.177119304656166 9.129828792867997
Na 4.606691731947872 5.221934612249223 4.2938918399103345
Na 4.874466053860209 9.898945979095716 6.81297502756071
Na 6.266908203299697 7.745395602880444 2.503929644978244
Na 7.170288489835493 4.186535187118155 2.03687942214689
Na 6.981934150445327 12.697148682854166 6.307738052618003
Na 3.0833964408138232 8.384127309456176 4.235255154710357
Na 5.148664076155935 11.077995014682958 3.414885179932767
