34
Energy = -35.44097484 eV
Na 11.36774554646154 8.769119611773975 1.1710677566130019
Na 8.392619038086778 7.319944093787602 2.5651723838728375
Na 8.445032671878003 10.73233054988676 1.8605198693701763
Na 7.502732661835518 12.193357438538854 5.0161449928139215
Na 5.3631855671982915 9.596239952103296 3.3436910545431133
Na 11.632450061926129 6.684161084113988 4.059809440433415
Na 4.530778014435513 10.732251007281326 6.863807518188747
Na 5.463293045744692 6.120511245085863 4.249368418287805
Na 10.752694980257615 10.18505007392182 4.411130115485761
Na 9.81169527107207 11.401605862024342 7.6516892431546255
Na 7.781861909518547 8.74873329373681 5.782190900202697
Na 2.610912701511909 8.345745346772796 5.216592736435968
Na 6.567199063623173 13.149924706730292 8.310589149595158
Na 8.716066892822644 5.183786193770791 5.657879939496707
Na 5.107060840849327 7.183595669862675 7.648812660330486
Na 2.8130967041372763 4.927271633648364 6.259959379999005
Na 10.978195604513857 7.9286011233211715 7.427311714683544
Na 2.267513983271865 8.571165175057386 9.08092573337676
Na 5.89331352929719 3.697301309863132 7.468437934771491
Na 7.126570735486248 9.636280243550296 9.227199836652481
Na 12.02814759516559 4.457566380127835 7.0058305646270265
Na 4.321137589477176 11.063657896311943 10.687501712305986
Na 8.232034349018173 6.1941803174013135 9.174663367124657
Na 8.79405239256862 12.196150116050113 10.939920941823797
Na 3.22879291770178 4.88041433337014 9.811465002317167
Na 9.19440419859456 2.8102702400473407 8.555027528181679
Na 10.243152180796564 8.973910967427276 10.864568976620372
Na 5.130453904161493 7.364862560650079 11.327547813359775
Na 6.396118646055781 3.801218481942378 11.026569297473392
Na 11.549419174045255 5.668142643228484 10.391976113799167
Na 7.18450650431975 9.680482106378038 12.903752144861226
Na 12.52111057859305 2.2652109164369776 9.784301004570764
Na 8.534516922242375 6.3951491385144354 12.693826113067596
Na 9.801495442027433 3.1017918359900247 11.973497567583202
