39
Energy = -41.71495456 eV
Na 10.27895288408093 12.668446768435938 10.027790138420855
Na 13.372042856498455 10.42153545531846 9.862530999155263
Na 14.174655517231434 8.286027191027616 6.789002327359894
Na 12.686150513651734 7.530526212631218 3.396546132444336
Na 8.814757308100013 12.620203169634424 6.622146823998933
Na 10.688606951931833 8.01362384808854 5.867459443480399
Na 10.052233226823455 10.70644914537766 3.7288420829934132
Na 10.13690308248251 9.402005059036334 8.760846081359201
Na 12.625854300486427 6.910576245844567 9.853605004521832
Na 7.145384600309704 10.92118488495259 9.350867597447081
Na 12.168345269301183 11.228142714490163 6.588363158285549
Na 12.6990596834848 5.044704701000514 6.6535649468001825
Na 7.006103382640435 14.366695276559405 9.510792701073017
Na 9.864292145979416 5.011658803498428 4.431825247538359
Na 9.766499367406002 5.9588482492563415 12.006912311323212
Na 7.489788049073498 9.414188195677683 6.205001181612753
Na 8.449720361703298 7.735042518966997 2.913873755835474
Na 9.713303464433405 5.908618009440592 8.268439744946521
Na 11.210921012421922 3.3146413987380354 9.761643570644033
Na 10.506318040579686 9.612172018105461 12.09851086096978
Na 6.414090154238925 11.213729474908918 3.4645419138615114
Na 7.454802720773305 3.8537921164087097 10.059693970607087
Na 7.284115907751632 11.95689249211532 12.489429638834062
Na 7.301113580606236 7.615171134098529 10.083932310757625
Na 4.096746675132111 12.291371798936051 10.15477444464267
Na 8.596462468568816 2.9167327907735814 6.883563926218878
Na 5.24824182389271 12.461191682446037 6.725860644228621
Na 6.224178020633166 4.398907737865584 4.005778840838444
Na 6.711155917125244 6.182986321465389 6.8604783615831035
Na 7.618243622629373 8.525144078370433 13.698401301168541
Na 5.909019705563841 5.511165295808129 12.763216290610822
Na 4.675939925885989 9.089078679612918 11.739308904673774
Na 3.0575491023879118 10.133032576609047 5.108022017858871
Na 4.380798642709137 2.563134445973323 11.041462741791582
Na 4.418446263936008 9.066391026819412 8.131415789560531
Na 5.12709976819669 7.816322204493348 3.7157030773957493
Na 4.177998666515188 5.875480105433561 9.677833876076873
Na 4.942635481015301 3.181484824445049 7.435997450139783
Na 3.209235576285424 6.274604110632075 6.160997944422698
