37
Energy = -38.6335941 eV
Na 8.607519382499445 4.297721445020423 4.547388766763226
Na 9.1098228936331 1.9780162205251892 6.958538547697941
Na 8.131884574360274 7.004196383260243 2.525250793505356
Na 11.178246355613062 4.605316595092174 7.328209313629103
Na 7.304261669996182 10.17111092046293 0.9472168236771845
Na 4.897775411282329 8.490187495661452 2.608857408204146
Na 10.547529339117562 7.167628908858176 5.074972793736153
Na 9.549879889507844 10.214475527466817 3.5239979182176113
Na 6.181045149628101 11.433274875512486 4.167269173522718
Na 9.199873691560601 3.3855386426953515 10.24131788935358
Na 13.06057616497321 7.38472187028596 7.6451592323262805
Na 12.036542698128654 10.313172612253155 5.819007761286461
Na 7.279727298333717 8.43963164358546 5.737690997014464
Na 5.302975624470774 5.718857647819408 4.539617595125067
Na 14.666908638698374 10.457788055555168 8.138536351906668
Na 9.791563439984438 8.691564738021746 8.254042837125667
Na 11.336896651429843 11.881228707402151 8.842911554389552
Na 5.743568876979829 3.1327427622349107 6.6642227879118865
Na 7.885271849081372 5.696406222939955 7.866783430793069
Na 3.759244368165552 8.909778236375773 5.734708183951512
Na 12.672547297981929 9.239789518468335 10.683655664995195
Na 6.870255899833027 0.8367296936866041 9.217963632006041
Na 5.368805768045134 11.652767203398245 7.475265062337299
Na 11.022224521112134 6.2285482984439415 10.546209470802223
Na 8.743083927876697 11.74848797752065 6.593700177912598
Na 4.282020537544325 6.139045465364405 7.811226442378045
Na 10.776479557797876 12.245488567585307 12.250489653687351
Na 6.405786805583534 8.697143795313975 9.231178172283542
Na 5.567920393271926 3.8481271805769013 10.178930350654108
Na 9.420024202979453 9.093024699997338 11.824970696070991
Na 7.633173544077068 6.243089069842193 11.610828834884186
Na 2.825702661616727 9.196029153058422 8.962911290094032
Na 4.549188947929322 11.691589286830082 10.753901100677549
Na 4.074614639398144 6.717930122083831 11.287813681013063
Na 7.938344431949055 11.807313259779571 10.056228522551821
Na 6.102078870913871 9.315279113374054 12.7291148969356
Na 2.4479194932457573 9.559089552077777 12.468827677454568
