39
Energy = -40.44505008 eV
Na 9.758112376087563 10.069168565218162 12.312130255728636
Na 8.084071574420404 9.39497521040857 15.41089497475237
Na 10.168909462882626 7.090270340272807 14.137753043550823
Na 11.995355275789908 7.136674739244662 11.125509702168664
Na 11.26431963010503 10.386429101922142 9.327367133061099
Na 12.12558485753593 7.407830103736275 7.590825428665741
Na 7.501619287073462 10.99819600544162 9.644867461547019
Na 6.376867959467272 11.00813068573057 12.94450466467848
Na 12.40147936017672 10.545281298610531 6.000152529565243
Na 4.396559814590719 8.870954150764224 10.602595143776664
Na 8.951235985537185 4.8908977489384355 11.875040017672683
Na 6.953416777511389 7.581808918452266 12.707694572897774
Na 9.367607705163705 12.097373075818002 7.016476107692761
Na 11.135574364787821 4.581128724648881 5.486198328815737
Na 10.985992255578358 4.455026482075545 9.077599795547775
Na 12.244425778298488 10.627702665615512 2.487022479172789
Na 8.905180867352229 7.781681945426633 9.534508421869454
Na 6.563963691465123 14.154087285708163 7.957172015182413
Na 5.1913059440682146 13.3866029077347 10.961092992013768
Na 5.92995735089814 5.709209728963586 10.131159274017682
Na 7.742960998358923 2.7198270245375924 9.632350341931925
Na 9.287445857432907 8.719539989815079 5.867366644208132
Na 4.12048865061571 11.410229939557315 8.248574197366358
Na 9.03400353646149 11.532573835632439 3.6874328018595315
Na 9.920147717369455 1.8927333510887523 7.008289123876273
Na 11.947611548339612 7.431472107570763 3.9583973544218303
Na 8.10975092299571 5.485125513327136 7.188587330474595
Na 6.180447201246818 8.515045995563844 7.488343258929084
Na 6.132565955470545 11.739709935060183 5.45860381339107
Na 9.445712598525803 8.692259347409173 1.704700638568083
Na 1.3558705646868416 9.356604615756714 8.283498727866755
Na 3.26405622433731 6.509208227565123 8.071788615554649
Na 8.547614396023453 5.989692403418572 3.5107248731060263
Na 5.007321846664389 3.563435337541338 7.550859283971023
Na 6.723082811820825 0.5100300732234625 7.014226893170816
Na 6.4787963245243585 8.916524970317493 3.541019507461438
Na 7.336763580297795 3.1176249872888695 4.724254577790761
Na 5.207672408591078 6.0434690279621215 5.023822412968774
Na 3.450094812977933 9.173480208041488 5.350691099005818
