31
Energy = -32.47070098 eV
Na 4.048042479640813 3.8868046252649315 6.266675008609532
Na 7.700218249575356 9.63086257742481 4.001522926721182
Na 5.394955985350292 9.353698270534355 10.602598859057155
Na 9.878357993946207 4.38931828969144 1.9375243720880442
Na 9.450358775370116 11.633957447693415 6.295798889191549
Na 4.615040806947572 9.843809507793782 6.865429425977071
Na 6.944632098537853 6.722535686310543 1.8339093121063232
Na 4.983869890020629 3.3296882566279176 9.724774613891672
Na 11.315893543965881 8.817292680341511 5.619953447030628
Na 2.538714302046845 1.3544422440092805 7.837439271391916
Na 3.9747595265802125 6.243295072963269 11.729702571918308
Na 3.2723257673895128 5.279895070127586 3.1655135169119464
Na 2.054280846416763 8.51642800461252 9.440956360723966
Na 9.927431506551844 2.954560734731556 5.467596092708348
Na 7.872301339858315 8.430084884291642 7.464413490230848
Na 10.425251869575623 8.049430021639028 2.095687773388651
Na 9.04905039452918 6.285181889874763 4.721724278488365
Na 7.51266577113407 4.500029442807142 7.487332557143901
Na 1.7140630794396954 4.801979788152103 8.962133434202109
Na 7.740831665202591 6.423329532265136 10.481568102411906
Na 10.495896127502988 9.483277111420653 9.212581177242924
Na 2.0720318393381376 7.159837006259842 6.083186196098944
Na 10.715469074962984 6.080913903340954 7.860585859321755
Na 6.309943257394468 1.2779907620457116 6.799429391212801
Na 12.34856649225461 5.58612847955334 4.38212492718579
Na 4.788742836915604 6.6344085546492595 8.488223313776158
Na 5.679458916217788 6.786120166124401 5.169216600250216
Na 4.018011099769418 8.927031153184096 3.229323548473921
Na 7.253327104682641 11.751195960798693 8.86658586459707
Na 6.754054591953411 3.5514159266988963 3.861153398647648
Na 0.6776556960529806 3.841259877892698 5.571538348124979
