33
Energy = -34.70905574 eV
Na 3.4576811395138964 5.653212852830047 12.072753093165447
Na 6.683964998283769 7.233517235531457 11.965155347991447
Na 9.59903437488155 5.109204993192784 10.919189549393565
Na 3.66146481267351 9.369322567191219 11.44992265095096
Na 6.315702167008323 3.965197394254686 10.323066742630507
Na 9.71352042399197 8.851076750448339 10.787421738004062
Na 4.667205421404876 7.038544231272655 9.036100306891742
Na 6.517133817764997 10.12188575595267 9.446193543254585
Na 2.8080388470990876 3.9176363449296603 8.917218837703654
Na 1.2567310147394708 7.289235780277786 9.72369130120804
Na 8.028848562337243 6.856481550644917 8.34503222699729
Na 9.184480663548163 3.5933398610422413 7.347735997950359
Na 11.56285931549023 6.818850716516492 8.384756609346116
Na 5.695327300806385 4.405498754566554 6.973476243770142
Na 3.227482655534856 9.899941807192533 7.650963424260915
Na 12.817307298988156 9.203204103145115 6.1111931976618985
Na 4.154858328779505 6.72527126031525 0.5805333893546983
Na 6.870442225005399 8.334785119475008 2.23968505884445
Na 10.116362935489555 6.5730705698373715 1.8935801592515662
Na 3.423162174027079 8.935642829883271 3.6545844448514586
Na 7.1297188990474805 4.600847403406583 1.357824671774506
Na 9.739909743863171 9.21217854958458 4.203226439550355
Na 4.908615723255634 5.781754483359146 3.864960160401915
Na 6.196894229774596 8.78260428114772 5.931393419076745
Na 3.854939750290328 3.161868556310504 1.698402219936901
Na 1.5423747711424525 5.682055283440018 2.857993556324299
Na 8.22595629395102 6.037536054464209 4.886069931202771
Na 9.887031761505138 3.2607404745383697 3.5607037271553037
Na 11.773110288267103 5.96853423140406 5.081918402850885
Na 6.529234704657089 2.476185423952363 4.261788047464178
Na 2.537233299142092 6.6154041936495185 6.307075784887775
Na 9.515987124601972 10.001333014487308 7.457695341478795
Na 2.9245933636950565 3.051246002317241 5.235902864973994
