34
Energy = -35.55100797 eV
Na 9.128628133539776 14.029009131113463 8.024996185776857
Na 10.335396140626377 11.55105485542422 5.406082457405861
Na 7.0978323879224545 13.214977585598538 5.324342428554438
Na 10.510510753503533 8.272269468593127 3.5540794805873763
Na 7.386626269304689 10.042131178524745 3.763275062225737
Na 8.122635926110606 11.492494549751056 10.934888330269745
Na 10.608258963709126 8.287463118586352 7.050589824580649
Na 7.460480250953491 6.961020996383584 1.7184582725758502
Na 10.448091627874014 4.960510939814815 2.25294121964666
Na 5.827553787667991 13.068207214263504 8.676309183970456
Na 4.576391930250617 10.574192045375986 6.160697707172243
Na 7.70698147447363 10.106482277269956 7.598643897008854
Na 11.13079374600044 11.430375235473353 8.906683306025922
Na 10.03018381249549 8.501600544753158 10.733502588784818
Na 7.666090761264629 3.4841927088742675 0.8265966710959443
Na 4.622109862248234 7.851683341284031 3.860635538080684
Na 7.715945865900381 6.62887068600073 5.306893373390534
Na 8.958675766742152 2.9973276645010376 8.115968477719186
Na 8.394901892330555 2.8689537210055556 4.369500747781183
Na 5.294199717158642 4.376074668785978 3.127359398632947
Na 11.27739914710942 5.467780715691266 9.10819137011833
Na 4.561868965144411 7.307501143426918 7.457539705708094
Na 7.013383117474605 8.12298817009736 12.341168810467861
Na 2.706683043689381 5.146383259882622 5.3724148704056764
Na 4.916561336157041 9.873278293642272 10.012496636746304
Na 7.659495911216302 6.495018909530108 8.889533238712719
Na 10.867743262178637 4.946764947550582 5.698745436262613
Na 5.7727588923425035 3.8297093447096526 6.706552650501662
Na 4.20479941155196 6.533487090070613 10.986419893433343
Na 8.901775828535307 4.857233231531147 11.711187482849779
Na 2.904164612680241 4.100359362885686 8.762841286756787
Na 6.038393672792552 4.771082890263043 13.594405091377118
Na 6.114328271692072 3.2389195280974317 10.34675759311872
Na 3.07280616848826 3.432502583244817 12.22528898701197
