31
Energy = -32.58725492 eV
Na 5.880063588274961 4.712258303031022 0.1618411254556118
Na 7.699254118460092 7.888548394259245 0.4328459911891487
Na 3.1673448422240353 4.548984947875613 2.702436106023382
Na 9.247357521613997 4.70758000753465 1.693371903248492
Na 6.6468538712414995 2.560261884481993 3.2308281611820857
Na 8.977529798442736 4.528488383657367 5.317818210491295
Na 6.383395998565166 6.186418986321947 3.0571299759809434
Na 3.9558942538946433 7.773965077577318 1.0356700092821018
Na 6.113422697849534 9.74416680516767 3.3472921325617055
Na 1.647806213957975 4.755215173608886 5.953014822881526
Na 6.944803087045092 1.9781558928913425 6.89463872237057
Na 9.508258394039366 7.864973590073036 3.8561865393773562
Na 5.023270574687454 4.688440101864133 5.761176253286809
Na 3.6106735025620935 1.7270611296070406 5.045583272332254
Na 6.800978729463935 7.6155279869034285 6.050448164233221
Na 7.344659975608188 9.260989872950216 12.44874829990244
Na 7.100741454576712 11.83470550128068 9.86187028335386
Na 4.113107598651487 9.711030402125806 10.733843285965603
Na 10.238807776588526 9.754359743287063 10.14590123343663
Na 5.239385807496304 6.226821871806677 11.460876785960911
Na 9.257977695597589 6.330763089370476 11.162403349698756
Na 7.052355847445068 8.50071510451318 9.26603852104997
Na 4.885556527354266 10.373869156837689 7.048365638923529
Na 8.796973992935625 10.402418857904049 6.773483783267712
Na 3.6670020039096505 7.113701210918954 8.234858950021337
Na 7.265555042426082 3.2076733431612605 11.176144619686973
Na 10.252443855977214 7.173235470125257 7.5999132775263805
Na 7.157099294168759 5.2098942392257666 8.476046792271605
Na 4.090156647632495 3.6076739946762157 9.079633820663503
Na 3.2800916093608694 7.819416559118458 4.605956206329886
Na 10.160653011707325 3.7021602516015886 8.895109095803322
