38
Energy = -39.54093885 eV
Na 4.702372699392967 11.584961659643746 12.202859326838116
Na 7.6958533026884695 12.004889526364629 10.564388000425293
Na 10.49608902661789 11.889572984256047 8.563353718380112
Na 4.152332287766596 11.759125589034747 8.849597645116534
Na 7.424244086039774 9.409309929440107 13.0360353701733
Na 12.877622767641515 10.58810396061458 6.472738131930636
Na 4.26723575852282 8.857730821594338 14.25238479556635
Na 10.475180418070774 9.806162694706329 11.412917784972466
Na 7.087170597723746 11.593543529861877 7.180258906378012
Na 13.62800838539505 10.07171106242014 9.976825584346336
Na 9.801880729859107 11.066058738349938 5.150383812532665
Na 6.7242098267232375 8.84804971734849 9.373935085860586
Na 8.866326745020869 6.743495767373787 11.1511779839792
Na 3.71645595509976 11.78493272477451 5.415603217464803
Na 10.40577185567829 8.493244868492637 8.062255639047113
Na 5.452260703405532 6.389675512846096 12.061253752501683
Na 12.330282939549347 6.737830512234947 10.412202661079183
Na 3.2985658841007703 8.82037594706557 10.624786506163602
Na 6.679113270749979 11.516687515716132 3.743524360399029
Na 3.9883187737453043 8.750355381373758 6.976452681737337
Na 7.941233837584025 5.823829514819882 7.972741657220968
Na 14.1797061421415 7.601164061408553 7.574407384553316
Na 7.5159244192467884 8.427949235915868 5.828038528226494
Na 4.773634659699363 8.561024882174697 3.528235470811771
Na 8.473742486320297 9.081992282875923 2.4401247303233085
Na 4.116331141870762 6.00613994708752 8.872225406514453
Na 11.66868953346907 5.335838835068678 7.034631563165372
Na 11.350073949637677 8.012647633918023 4.5059127239593675
Na 7.37015982381596 3.5714091834453816 10.686895417511295
Na 10.590865082271279 3.807086383055583 9.941364425271596
Na 3.9968945963881426 3.2863855703969307 10.931195894022599
Na 5.183693742065721 5.822987258988209 5.593954537340784
Na 9.177630837436183 2.731690568076579 6.95109056568658
Na 6.714829761096129 5.80727021087441 2.297987243692768
Na 9.143031664306143 5.319898372490273 4.690848221829464
Na 5.4817720737579645 3.0859669444951887 7.714370807863179
Na 10.189704971261111 6.3436539102980385 1.4954599551830385
Na 6.561907567143408 2.830210321985998 4.423813089499527
