38
Energy = -39.42673881 eV
Na 13.87958753272606 6.822342014398523 5.641315212025331
Na 7.827908918924513 2.4053250385712572 10.206912517016468
Na 9.322844871820502 4.145852974548729 7.549184963362166
Na 14.731862179008054 10.142419335826123 5.720853283045633
Na 10.703267743194935 3.984991140466368 10.992875647435453
Na 10.882208832240774 5.542287096456245 4.783305785214861
Na 12.493657175252634 5.334207136002803 8.376005427671169
Na 11.497667401224156 9.029627412490822 4.471904222411506
Na 13.132260947530645 8.864676289574923 8.45622141982304
Na 6.240750378794623 2.7029816921618077 7.25392195014968
Na 7.708652722573424 4.414754704134842 4.351242856845828
Na 4.987094067012705 4.260324107031678 10.489884280366622
Na 9.272902744462833 6.074532774041056 13.37217269841873
Na 8.298196814295745 7.807201864430734 3.713750410752289
Na 7.949800080678228 6.1953487051829015 10.009732087048949
Na 11.804977969702822 11.737328840332275 6.687815168766986
Na 9.833131556999145 7.74182321113128 7.396208279968126
Na 11.329303892773757 7.519614691773119 10.934498783506921
Na 4.499345933732059 3.224433911498261 4.386604664385898
Na 6.490908684296028 6.567682580710434 6.758906126469508
Na 10.329274276208713 10.61957092033269 9.643155405824789
Na 8.69571103415315 10.695949620549355 5.655236650839284
Na 1.6843567253482845 5.211234162788956 4.387115159769424
Na 5.758500647110252 6.863098367735168 12.70263152274463
Na 3.3324942853662605 4.6190814507714855 7.48049627518548
Na 4.9414346377515 6.602901503690349 3.4080542399446427
Na 7.058720992273312 9.905162954175806 8.590057978557583
Na 8.519355351166435 9.16409484249868 12.201980758934639
Na 8.710010079099284 13.331488037009391 7.977995202915059
Na 4.441760455360641 7.445616191231653 9.442417690501983
Na 5.593862946043191 9.622820058044642 4.875282673180966
Na 7.978249302246429 12.405763347858125 11.747494294070863
Na 5.162731433313941 10.1725664933709 11.524978009720536
Na 3.009752451835992 7.803614208385798 6.197476517144945
Na 5.740439109820301 12.738784896951817 6.146111980487841
Na 3.7040019340581507 10.556248855066785 8.104169643668977
Na 7.78495292450041 15.50455955273377 10.45397716481521
Na 5.29841350775193 13.220565431139786 9.600754104068738
