30
Energy = -31.26245567 eV
Na 7.491081784274859 7.517494525146763 2.201560416265016
Na 8.294272143925237 4.046232859761196 2.4985406902316933
Na 4.742215741334202 4.957741970894557 2.808257181581684
Na 4.784992719556383 8.225118773393698 4.481292566989992
Na 10.703345427070362 6.723005924981384 4.517090900056042
Na 1.4383976973999886 6.493349971018606 4.41718733177901
Na 8.283354680841631 9.190900806054142 5.327310678580803
Na 7.339384974132048 5.769906911381832 5.172279101669549
Na 2.1753607443687977 2.8581616096221225 4.598740100094182
Na 6.106899229490919 2.3558638277526156 5.210104173110876
Na 6.0717156565892685 11.692692817346348 3.8989849320067202
Na 4.0726790016585355 5.076319931986267 6.30143093231853
Na 9.767643609843217 3.418413801059957 6.083583199880313
Na 12.703475492206637 5.708508668005402 7.506775459098324
Na 2.3866208564618656 10.587168345392538 4.711890295405192
Na 8.901248611204304 12.343037567724416 6.196403568373497
Na 5.352457475995493 10.817668603237346 7.12560920474614
Na 2.5742309103049417 8.095872433227814 7.465742750869211
Na 1.0233836103431826 4.426278005105158 7.605118324109054
Na 10.460051160481418 3.465949731176548 9.43481508097142
Na 11.485009922032438 9.433545768279773 6.8774183861962905
Na 6.1305105610511985 7.496727812425247 7.849048800969178
Na 3.7888876979782493 1.9705454981027732 7.951524080819735
Na 7.860741917452453 0.8053140987108777 8.103203248723744
Na 9.564295755381696 6.662305720359485 8.02347161854739
Na 6.92885659644527 4.023656891370181 8.412500658912332
Na 8.50404452295451 9.894827259528116 8.966207711722427
Na 3.8997869614484184 5.473350035206656 9.84476075729942
Na 4.796471492097165 8.965229252462748 10.512329762026743
Na 7.396834801583118 6.533062335191823 10.925069842552936
