37
Energy = -39.15482457 eV
Na 12.515593260529457 8.197056718157613 4.164073256664685
Na 9.941594505103065 10.777636512573945 5.879422789587308
Na 13.064897086742684 9.891613853243614 7.544660808209081
Na 10.365477331149407 12.194183247063 9.194604071654112
Na 12.732410513880833 10.68046290160258 11.40502114681479
Na 13.476959078047667 7.484348077983831 10.292662310756993
Na 7.060420182794056 12.67168337206795 7.1171574281751715
Na 9.336792985070328 10.673738681080401 12.568142257019474
Na 7.266039878629918 10.610136823433772 9.869331036508953
Na 12.099262220089667 6.230818556831896 7.291150575612145
Na 11.402240187028662 4.570629342686255 4.294833384643699
Na 9.449489560790488 9.661920961425091 2.567045109184181
Na 6.505946716944252 11.176319182493547 3.8843052386261347
Na 3.7077672010449523 12.658141172826229 5.6595727020083375
Na 9.411043986103762 7.339334708029457 5.222420574501537
Na 11.262133600798423 7.743145200870379 13.07440415392712
Na 10.225533108313629 8.647846147397201 9.203892413109873
Na 6.720245162560679 9.087496394382818 6.6773844672460285
Na 3.999704711307361 10.784804443018825 8.715257647160241
Na 10.674180450836744 5.134491446417786 10.521840446815233
Na 3.5644555727750578 9.179770351219872 5.192424179605159
Na 7.985877659284495 7.469565351111184 11.620103376294288
Na 6.365624774219287 7.600390620163506 3.230876383460581
Na 9.517415192898428 6.256595447611095 1.8149053660548304
Na 9.897337873864196 3.2734101763386674 7.410537372961727
Na 5.219221706425281 9.546888810309056 12.41980330486792
Na 8.005208864214355 6.030813401490945 8.04615393011731
Na 0.9411306173379892 10.880847086611437 7.075463574912198
Na 5.177040618307522 7.5651143767350995 9.49299540322611
Na 4.71446214856199 5.920322403036246 6.071420354286437
Na 8.770264381852911 4.95161061389095 13.697733489041713
Na 7.715255866945639 4.386663492676926 4.4062040933162665
Na 2.0333059109984135 7.566433922713364 8.138720645743527
Na 7.317230243478498 3.7748976265540315 10.602828182155601
Na 5.0281985562577605 5.768999487924365 12.570521494541692
Na 6.241865554956322 2.951954792842284 7.246056489067768
Na 3.7307222186506643 4.462756763979701 9.32456504209749
