35
Energy = -37.13622255 eV
Na 6.866412843470104 6.868693224678192 8.619634768607956
Na 2.012022459104329 8.108087203406312 3.7965553810408688
Na 3.408917069888851 6.676268687649912 9.587007764639559
Na 7.553275876557543 5.293320375967715 5.597838897652903
Na 4.7699024032579125 3.5838074926187464 4.009007228139466
Na 7.460745254345902 1.687413147794974 5.701979902809715
Na 8.635145808490154 9.848905335556994 9.30707411844656
Na 4.659012406734668 10.318300251829768 4.468314424603913
Na 5.342371283257967 4.786663394190167 0.40284468445908006
Na 6.944124454037176 12.27074591432804 6.589159674547689
Na 10.206611130414865 0.9385265407050197 8.04957011093729
Na 9.423104261314462 6.500773822936019 10.885881254566229
Na 9.794793606807861 7.08023166132983 3.5809905903938524
Na 10.360076547160132 7.045795262047511 7.392183168945113
Na 6.019760799780183 8.51530182665415 11.5183061229524
Na 8.493655975430432 3.877614247698846 8.436479957211699
Na 7.955032419782586 7.253269792468909 0.3014431547370279
Na 11.83332023333769 4.1176007320813675 9.04513069280611
Na 1.7263257884719037 9.048603025815337 7.271399940146986
Na 2.8001952976235667 10.208956353310292 10.677352434319744
Na 4.448956012661216 6.976526851852569 6.102485115221803
Na 1.739877387602091 5.097521182734584 5.830690774010274
Na 5.026112534671377 9.872101273963516 8.138103655743848
Na 4.322530402632582 8.449607363696677 0.8448848986745244
Na 8.246996356863544 3.9242427339474046 2.480388135478007
Na 10.707054004945974 3.724581517665496 5.494495234045365
Na 9.326109541424385 2.62383779688867 11.354773375022795
Na 6.7465363387292205 1.062187050920002 9.337319221657664
Na 6.008902073716294 12.189326895215203 10.349180363671191
Na 7.7695017186663975 8.943662586415128 5.820117080130694
Na 6.041183431238523 6.963460129000825 3.129515269448635
Na 4.8435121820938285 3.7818808139313997 7.705678924140825
Na 2.344602117054647 5.204606390233682 2.0714947500122194
Na 6.08472319276076 4.542673074651633 11.106986591708012
Na 7.6298606428938065 10.166169903036833 2.546996196292236
