37
Energy = -39.43126884 eV
Na 4.104683977093287 6.264398896877151 12.093354211181415
Na 7.415846344254582 4.736173636033975 0.45121346456854317
Na 10.036202032309756 7.322094247739024 1.013709975877913
Na 6.501818813423885 8.388946988039537 1.4383167913894788
Na 10.680053158979273 3.9234629963837215 2.3051967196244023
Na 4.759737006135552 5.028168200801395 2.921002748045601
Na 3.1038759026455396 8.453709870436013 2.8578822277434037
Na 5.3467582954497725 11.363077454555638 3.964449406291642
Na 8.359476820060628 6.057920796264509 3.5549423653853824
Na 8.972317288016407 9.711339083810705 3.9452667624065367
Na 7.397683532672399 2.45788802651892 3.608597522585505
Na 2.960040650669237 6.132808666894807 5.955064639191707
Na 11.601816988255461 7.10147724671276 4.407199717105267
Na 5.845508979971196 8.0762283234738 4.810108850237369
Na 3.9720229414513897 2.3275088489040474 5.700897215449348
Na 9.955893500437085 3.8616778146216593 6.080473483066422
Na 6.4590131258086645 4.8246215499177785 5.980906852321809
Na 3.2464831525992692 9.86144336889384 6.648243397917885
Na 7.096103619705137 10.606797619518261 6.969805039496402
Na 7.143642275689279 1.7190340906219483 7.599900101020763
Na 4.818508070229813 13.028554054264378 7.5157798366935396
Na 1.3433122340571546 3.5096391954679014 8.1492975033581
Na 10.487469296045225 10.59194947482219 7.468373139099088
Na 5.653872667765794 7.570022508216216 8.156830452627533
Na 4.609326927201153 4.290471344047662 8.672941711414229
Na 3.8242811008721187 0.9866465396037605 9.215650094608629
Na 8.069139654053696 5.123473796531865 8.996291691874285
Na 9.066243332721166 7.498900994446114 6.766306264339004
Na 2.4607383720512095 7.1402986940111335 9.493069523850036
Na 9.884571929130592 2.403618735147969 9.930649283875008
Na 7.9268879416083 12.412487913218902 9.685798035823153
Na 4.878420783167358 10.324864666329495 10.031624221804352
Na 8.391188584735417 8.823513460783941 10.177213625152353
Na 6.499982168595949 2.7432048903239608 11.219638824233245
Na 2.919390457809129 3.8506269079250366 11.438052946482872
Na 5.6265187760562 6.5545605803397375 11.457371107402247
Na 9.088268396788655 5.435487616017172 12.093354211181415
