39
Energy = -41.73622372 eV
Na 7.793203846515642 8.970887456966864 0.9315704270020627
Na 1.1620764388566658 4.991415334947122 2.0093284554514934
Na 8.211044081258338 5.524181456692447 2.1898623793604965
Na 4.725642022171798 6.957274109968897 2.163908235628379
Na 4.677473097515404 3.2512874885163194 2.7546329710048063
Na 10.828839810173067 8.055294231016697 3.21994277365045
Na 11.878633016225782 4.380330913876193 4.0953295125714995
Na 5.094256823663555 10.694418120216131 3.1722514276470735
Na 8.808273364811726 11.386577314021185 3.579629589913047
Na 1.4472764470535644 8.243246566970535 3.762289332861354
Na 8.520072168381 2.7201879384369367 4.794277559033098
Na 1.3411835670523709 2.236650935847826 4.466768120066637
Na 7.5225227747380385 8.403867475726003 4.237272257100276
Na 6.18411852264907 5.238566780190186 5.103547732657869
Na 2.7343981605551386 5.238390887578615 5.014884328036579
Na 12.714878322604806 5.245684759211782 5.086854092486198
Na 9.506759376941192 5.952060333765937 5.7510259077876755
Na 4.348795955923038 8.263595309114688 5.668133420657766
Na 10.053415577515977 9.49470084508605 6.707746373846426
Na 4.4751300035390456 2.381250031484643 6.541635546468448
Na 12.71487832260481 6.72438898593719 6.977590711997384
Na 8.343837995280538 9.72234856933574 10.019534399378411
Na 2.565338764594149 10.93528491313027 6.300827687316452
Na 1.3472376747257309 3.728675997004749 8.02985957253254
Na 7.481074613077815 3.8363988922019954 8.187081534172998
Na 9.853343255227431 6.486658095736126 9.166570730300734
Na 12.261102848388349 8.742345579757156 10.040422719978446
Na 11.088534282175488 3.404250335344925 7.7226894346095385
Na 1.2641699743914914 7.495450693812619 7.55781328282242
Na 4.328031069167563 5.620890615914439 8.146574836815386
Na 7.09822477289306 7.626422059615442 7.655217944468471
Na 6.6526815963279775 10.973945342448484 6.758518238980314
Na 4.632343396801621 3.003499304190032 10.282217035799375
Na 12.683821225370448 5.33459238387296 10.68025382996759
Na 9.977110528467204 7.154507020009821 12.472175174098254
Na 9.306217185501463 3.7418642769204276 11.251644462325773
Na 4.301243566354107 9.118667799301614 9.197812680364828
Na 2.422914419102884 6.030460308446895 10.846373061169551
Na 6.570492717354117 6.228022245312874 10.99447392759759
