38
Energy = -39.37651881 eV
Na 1.9131858752244355 11.606354566344939 5.032862130980441
Na 4.58350935956241 11.897265953477481 2.8819331221187525
Na 3.872572883391615 8.800054965999978 4.905675833765847
Na 2.626556060369227 10.026447827975147 8.002002190472322
Na 3.371437823332957 6.1861638769635805 7.267074597758204
Na 5.1658208882641174 11.956671469644151 6.3705624703067825
Na 6.312049924905934 6.495121394767516 5.187643839878774
Na 7.168352059761576 9.705572671160711 4.245260817313253
Na 7.916556348766096 13.065486380134908 4.126250468025616
Na 3.5027145061917886 4.7575979230818595 10.43080647970271
Na 4.201597210014026 8.200174929111752 10.37946350911344
Na 6.834346152616489 9.236487019006418 7.886620751340404
Na 5.252005727761136 11.67116994910896 9.82646912751632
Na 9.131247414138702 7.387527534051641 2.972058662957811
Na 5.843523321235577 3.231039532320355 6.389376687913483
Na 8.295450914338485 12.74422374442474 7.5338662559721215
Na 8.75267803719832 4.140047629400994 4.400272776968418
Na 9.480096568343649 7.450947142316535 6.540201732931625
Na 10.402405584296838 10.697937579415184 5.338447832859584
Na 6.346523940792546 2.7967777152124382 9.872665308495563
Na 11.644807793686189 5.069851845282499 2.4293036496560774
Na 7.039086293060546 9.449457570570958 11.759027565293902
Na 6.469098987614885 5.993463188724279 8.727793379302701
Na 6.174325330361957 5.942728011811596 12.354192218931306
Na 8.42470605282887 12.750519293126631 10.950430074802245
Na 9.144549079552084 4.0117298868299995 7.815818237800911
Na 12.364020432848275 8.145457346552732 4.0742553615851085
Na 9.371316457660175 7.3898247624309 10.112022042334415
Na 10.364778463021258 10.412572992564833 8.859639355300189
Na 11.973772629043545 5.081794081442724 5.8577099872315745
Na 9.14038533002426 4.150796551792361 11.28824842022591
Na 12.876514446832472 8.440966974631621 7.368218282078425
Na 10.297095014354015 10.384608983042755 12.393734458400289
Na 9.054183740217663 7.250912880590189 13.6530403514759
Na 12.058071104293683 5.289622701517199 9.204784128320288
Na 12.794794188385398 8.496503696815582 10.758759214770448
Na 11.926242542835821 5.537356174210306 12.575346889048557
Na 12.423324144982685 8.499761706637006 14.295061672846026
