35
Energy = -37.08461627 eV
Na 8.032695651016766 5.991878886587445 0.4906996125604675
Na 4.583425137178449 6.739302534927107 1.5451686337500916
Na 6.222368601325751 3.7279692405573748 2.702146559194284
Na 2.8048205086226066 3.9750331217826385 3.1148506946293444
Na 7.189910058335458 9.283877264307666 1.0653754502568233
Na 9.88754004444817 4.177565098789147 2.8678228629697453
Na 10.629434504161598 8.010489774295527 2.6192658067076477
Na 4.654221120345658 9.730182965079724 3.4962739143708914
Na 6.784237350004087 0.6336787876493967 4.315575219157618
Na 7.748209788857633 7.11328449141526 3.9136200558737553
Na 1.8851118194258198 7.323568690273891 3.916510131657747
Na 8.405230186016253 11.029274271731675 3.8319896142431853
Na 11.003056432884106 5.725769470072555 5.855117945984188
Na 4.19363978529097 2.517176116922811 5.921488275039515
Na 4.848588549628552 6.186282395490768 5.383431935894696
Na 2.952796823656042 9.18066898945883 6.774860641174992
Na 8.086460639112746 3.4975708006589423 5.761934122292627
Na 6.511843802489307 9.68282386472387 6.3668008357702295
Na 10.21858646892411 9.357467059550965 6.396410864773271
Na 8.394124337535796 12.391231375627564 7.303576878515005
Na 8.173839131262126 6.690350221320864 7.451981583303995
Na 2.4576101286721963 5.506273616502451 7.870882441088747
Na 6.826531660577998 0.9565932114269458 8.029222471638834
Na 5.007953534643995 11.259303593596274 9.160244387700171
Na 5.89714385595635 4.324398944169217 8.468234140353315
Na 5.255446426163165 7.716224082925376 8.93434196242028
Na 9.45520549446876 3.7401784393656317 9.057868478328073
Na 3.4655630793049292 2.215904345084912 9.529984858555544
Na 8.36523643979895 9.663026035860039 9.701216560164426
Na 10.957507535026576 7.044662503987028 9.4229061337094
Na 2.365222845712663 8.66581063079163 10.313780040481015
Na 7.842345986356773 6.243490877085636 11.1896644278323
Na 4.082704186163468 5.4803809625003455 11.355346822642511
Na 6.721360774371598 2.6745638881194935 11.32864168105059
Na 5.615896200542166 9.069612335642432 12.06863284419717
