35
Energy = -36.53783984 eV
Na 11.117574540061113 5.749229964162155 5.855674028238095
Na 11.929956520823126 7.343174823395702 2.7241450865430132
Na 10.006581949401745 10.410481275705195 3.353797575779989
Na 10.494301972005518 4.053356075933825 2.7926639382853695
Na 11.527985373333234 7.629739503192647 8.981856161128023
Na 8.488784152339253 7.033813388523832 3.368290499065359
Na 12.395626266911528 9.112841062722298 5.80759224027933
Na 7.916226279703385 13.284703370597253 4.335154274949174
Na 10.404374379120153 12.028426183005221 6.595154396378776
Na 9.484376531928627 2.5064707659186753 5.895761309876004
Na 6.998875088773843 3.7522300430926165 3.57025264774376
Na 6.401072544736243 10.126449822694815 4.220332003562281
Na 7.590889572242573 5.526317230692311 6.7054362892997315
Na 8.939766272076758 8.810176108506404 6.5774151883139345
Na 10.122667687241165 4.255798702015631 9.082022661602855
Na 4.980413355430046 6.790997800440412 4.3391124417902
Na 4.631893681081271 3.730878643434139 6.192941123681401
Na 10.683663269308783 6.11990688421122 12.106301481624785
Na 7.080984036139801 2.44909075422782 8.534113072541738
Na 9.5189926997134 10.596680133582375 9.78946061540487
Na 8.019034889177357 7.277792412606621 9.933499865024146
Na 6.936309000934927 11.942028242173066 7.55076636223154
Na 5.507932653131514 8.599249585008897 7.554878166988942
Na 2.948003608006095 9.775641953774038 5.2326761907048756
Na 7.565478304215453 4.160451340394081 11.734911002826173
Na 4.456020352289268 13.032481455976761 5.25896454055255
Na 2.5615257559560582 6.7710259084126 7.027545088041148
Na 4.9136400023081555 5.351978698180594 9.418524464694004
Na 11.103208628165088 7.9155320659213535 15.089811356918025
Na 8.622251635258522 9.19502154176047 12.94767393515085
Na 8.175062505485075 6.093372462146793 14.652771018726883
Na 6.008624722591741 10.36905413075323 10.75912780212925
Na 3.424344009161106 11.505338479839622 8.37005729317308
Na 5.523674094632409 7.208179293762502 12.569073652525686
Na 3.030672701633268 8.464473778246978 10.188141962676303
