37
Energy = -38.3938746 eV
Na 13.464353894098451 10.702804960070834 9.96843236141388
Na 13.56839567694667 7.303810561644807 11.364481055735649
Na 10.670194582787012 9.429452128225337 11.940441835975397
Na 10.116642482442092 11.409750283213421 8.990153874868865
Na 7.824263405843819 11.419656117799084 11.670630923191354
Na 14.701671666360577 7.949914960275599 8.135159688443064
Na 10.502141027282955 5.643212057220965 11.68652059155446
Na 12.431365007519856 10.352939392175877 6.5966201588103415
Na 6.856233907289823 12.641246160562378 8.428450044707091
Na 7.642749112815132 7.645159385359284 11.924831986785065
Na 11.049683263697773 8.002732667752491 8.884566671886542
Na 4.831909621807284 13.244386572430562 11.280190183584342
Na 12.084057738826278 4.706115105069494 8.728894827355068
Na 4.818622236800981 9.68360978791356 11.952311514989457
Na 7.4371849462332085 4.128877802789464 12.169112810299413
Na 8.806482638533593 11.808083278378781 5.697994763973799
Na 7.302400176199834 9.12814523393928 8.91101494891332
Na 12.481012791353308 6.838108663084838 5.881379071086341
Na 9.163420592780056 8.200340289550228 6.081767071117525
Na 3.8399439259709074 10.938337845698088 8.82306529003496
Na 4.587195327515553 6.192948208517022 12.493767803150677
Na 8.377931413226996 5.541651277563136 8.96361406058671
Na 9.85449000164657 4.534178881074106 5.955826084409944
Na 4.042827348471816 7.478285289123486 9.440283388147678
Na 5.764951823066771 10.227081227395457 5.95127496529574
Na 10.482695194986162 6.830975375584714 3.1219760891401087
Na 5.946086141049194 6.662567294379619 6.634890321002572
Na 10.98972614414451 10.256708073648598 3.5641710895105425
Na 5.17417431925565 4.2076858146525105 9.475461422489092
Na 7.7004679406481955 9.3618616706782 3.122055573839737
Na 7.451248876751447 5.616490319693564 3.6139865384305683
Na 6.714507071798009 3.2116791751394174 6.3780654982246405
Na 2.736465268279938 8.570389873518813 6.4383916169638935
Na 2.719460342907965 4.983836560101302 7.18785963700576
Na 4.627351518338609 7.896066218603853 3.4627263186026616
Na 4.406620478798362 4.337777978943629 4.049422534197551
Na 1.5092797757538563 6.250853889927022 4.150756532333465
