35
Energy = -37.03486578 eV
Na 7.80132449515607 9.048726782869421 0.9184517510806615
Na 6.833176069112945 5.648498097854698 2.123217252692211
Na 4.173917212214186 8.523315770097655 2.358297943735693
Na 2.973448799666471 4.736558944660139 2.9295718423211174
Na 10.236584155394976 7.007729235985613 2.904783741605759
Na 9.563065794374818 3.366970045330177 3.1992301703962576
Na 6.3284738657801745 11.571101584264163 3.0881792198331373
Na 9.994515733287132 10.687274738726558 3.674108591464644
Na 7.299432871334926 8.61736739768703 4.22202267320342
Na 1.4100840199490208 7.328918645391653 5.178794122315101
Na 5.905417017177409 2.9375538555168363 4.541810694646237
Na 4.827935593828177 6.347086344525004 5.0617973932781135
Na 8.354203100760618 5.560763937235159 5.483278708567092
Na 4.00124946829812 10.022304039991818 5.818251685450428
Na 12.861001869987936 8.510454498366467 4.855454092513172
Na 2.74227318151627 3.7951609745705666 6.542306384397143
Na 11.630546249146805 5.116137288124344 6.3022899267520325
Na 10.082719533915757 8.595365228029987 6.744078038950669
Na 7.400616659706127 11.312917244510365 6.603810096709001
Na 8.842190024517745 2.188351882621552 6.503403494111915
Na 6.71376212498808 8.007294409714715 7.57504130898592
Na 5.2837043218900694 1.280738802993413 8.008057636205
Na 6.083397437513317 4.517842008684657 7.897084439512828
Na 3.5015109116151555 7.074780306515095 8.132806594257625
Na 1.185630335336512 9.628182561227938 8.256315251172136
Na 0.47055196117413384 5.960729305107619 8.598053986975385
Na 8.543847372022542 0.09678853571343926 9.093164424516964
Na 9.299098168455414 5.907361599264226 9.153173277029524
Na 4.607159418839812 10.181287337176393 9.459268421471187
Na 10.889167094377491 2.810483201961205 9.306246547432304
Na 8.416563984122103 9.51947195845587 9.94405735262712
Na 3.477589134815674 4.069078352176617 10.186007403920966
Na 7.391085051012204 3.153942274264019 10.735947141043917
Na 5.966216646101769 6.683988220545043 10.85342005605475
Na 2.4161857623339444 7.693120029564622 11.255863774495891
