32
Energy = -32.72426156 eV
Na 7.927245614389298 12.972299701560264 6.435406826783923
Na 5.345460054619672 12.978443675559005 9.14616345047878
Na 4.816152005934714 11.492392515935238 6.10063124532447
Na 7.8412077170081576 10.678404973049846 3.8323819661741814
Na 4.617781592691565 9.773151272964776 3.2784393755075656
Na 9.808912591356258 12.435905501768916 9.075448559023261
Na 9.792102072419832 9.920388074758787 6.617105827410431
Na 7.231020295958741 5.25231180198067 3.310176396403531
Na 7.084254327807995 10.034410222876947 8.699133889996824
Na 3.471846037086493 10.059843330902753 9.151237348192796
Na 9.731413690999464 7.744528912167347 3.82214713141514
Na 10.957175791115771 11.767125077271404 12.154533243959728
Na 3.221934162345672 8.265587518230694 6.23333558211869
Na 3.9619725413597617 6.503618257492854 3.2992023919659825
Na 11.755773485880809 9.365526866876088 9.540740316310478
Na 7.4173822629097375 11.971912048034273 11.800198365258257
Na 6.740000276485938 7.939725260916978 5.709646928508282
Na 4.79840590892035 4.920553953294331 6.172136274204774
Na 5.303039466420729 7.069304083667901 8.847442869194692
Na 5.535389779754374 9.04811441473121 11.740711615232902
Na 9.103387896435672 8.912127935755377 11.872289526249247
Na 11.926664518146609 7.213878585906623 6.6672987499320175
Na 7.142972317867523 2.493734207170931 5.484808013530183
Na 13.9297096558941 6.658849022643273 9.779920111690142
Na 9.36591387883557 5.031093312144536 6.070483298746833
Na 9.045841987885877 7.094361706196856 8.817647716652555
Na 7.0059927682102865 4.14548554045526 8.75708998976241
Na 7.295580872850206 5.950287484545491 11.733630940547458
Na 11.056155915174754 6.090052521232059 11.799191907642662
Na 9.475606309629386 1.9952072212189425 7.834170553881902
Na 11.737150740739379 4.3806626341602195 8.64481532146117
Na 9.381234494801571 3.107086996445922 11.134324763114085
