34
Energy = -35.90478818 eV
Na 5.2399423020910385 6.437940367559129 0.36055249231584574
Na 8.572172891449323 5.165282213793971 1.5463013302854391
Na 9.101594073939195 1.4923220782194966 2.2895397727086473
Na 5.7618954391690895 2.9584483783818416 2.050879088151306
Na 7.234489246869203 9.089682295533022 2.123207567820054
Na 3.704794020045238 8.685994325635734 3.0082127216997625
Na 2.686277184616071 5.077910163081376 2.859773739930978
Na 6.004877043514496 6.037247464948866 3.616437953353021
Na 8.549808463997604 3.605275677282585 4.851182103525817
Na 6.078107348501218 12.056795649790827 4.470921926082081
Na 9.394390477258776 7.1880024192761125 4.802132577493191
Na 6.698142927606929 0.54942097812619 4.934695257310226
Na 9.287013920119195 10.903386356530172 5.810852921837044
Na 6.269220075350027 8.90512424274371 5.574028653746286
Na 4.6890396359024935 3.2989272531512075 5.389190314354896
Na 3.2156423140294206 6.721877508199158 5.97840622173116
Na 1.4276007304820866 3.5982246364681765 6.2471176839917115
Na 3.993706787434693 1.0558721471802979 8.054279766288984
Na 6.621572519019524 11.422052041365548 8.286617709027931
Na 11.868918938993781 8.688113160293259 7.4477316750068105
Na 7.225463076653162 2.50081636200752 8.102558432148442
Na 5.079471719665298 7.951208652869059 8.77341134931321
Na 10.18711384136512 5.221219714923064 7.862969685502972
Na 3.946927845994147 4.584404526141795 8.80514380591415
Na 6.759532234406903 5.688714642284492 6.913195265339011
Na 3.4860783405794113 10.527870127446185 6.811273674869646
Na 8.552448759181878 8.379141795995903 8.180489558502396
Na 10.11362942700818 11.140980082785537 9.486710373157658
Na 3.8936269875694447 10.29321142127805 10.71979658312052
Na 5.3131718038904285 2.6627700905158496 11.337319711589444
Na 10.711722938546803 7.7406519184019835 10.742183592603261
Na 4.585827805372883 6.660165333922414 11.969424884701596
Na 7.516180599831955 5.584984248858735 10.389236225214235
Na 7.372828756555191 9.269192202019282 11.347455858372992
