31
Energy = -31.7859633 eV
Na 6.702658002248311 12.142489841250802 8.057601443504991
Na 8.648398384150816 10.740355983371733 2.9173242153782972
Na 8.091420063550382 10.301074445177482 11.639697788212205
Na 13.096120190140388 8.139711467404005 7.626489165450875
Na 8.278716632301247 7.230716055675955 3.243393236186158
Na 5.9446169360164305 12.172355131687448 4.744470128180333
Na 6.881314535982186 8.467194568405175 8.906347061888763
Na 11.143461102931353 9.373316295360988 5.1202298400576245
Na 12.536856526986456 11.544921934976303 7.968997225577726
Na 4.229378471127296 9.627629129977135 6.936194789097593
Na 5.158381838261772 9.112031326251653 3.3574352007734625
Na 9.597930466515423 12.314362375706631 6.053582521938372
Na 9.74036555739694 6.528591823298762 6.368075487737315
Na 5.823434939892187 6.525484412285588 5.734444829622726
Na 6.78844107756102 13.495125879303657 11.235372960382824
Na 8.183005660717232 4.014535541564502 4.290117847901875
Na 7.722237953753259 9.421909115060297 5.945677000241531
Na 9.823428930404395 12.73369272614639 9.684916826097412
Na 9.851010838547602 3.143036323790992 7.251606032684514
Na 5.830837522693032 3.2031372854422844 6.708036893832427
Na 4.653079772360818 10.705971541818776 10.474197212359057
Na 11.414833525987907 5.742894673843365 9.285237144739064
Na 5.3442302298712585 7.563137915663773 11.79251551878273
Na 7.578205763566061 5.197043585216283 8.992539417617815
Na 10.145046628901795 9.249096650140334 8.942614952665894
Na 9.054065673352827 7.125846453526378 11.65102243487488
Na 4.048073887477841 6.368180106779884 8.663700612384762
Na 7.667298172104938 1.8592185421556089 9.554564131292592
Na 6.68736417464645 4.399218865042782 12.309935396600535
Na 9.944690737352328 3.7031244190635575 11.496666511306707
Na 4.496012016793041 3.2420360637377352 9.901957285678165
