37
Energy = -38.21512546 eV
Na 13.095882695175908 4.091161920779096 9.245290103881764
Na 15.18739868379754 6.732162325074738 9.339629341969914
Na 10.355186316052913 4.575961636443663 7.3039392231912545
Na 12.731665987823812 7.052446881537086 6.865016518644663
Na 7.9773512152478 4.910572392507554 5.031874537231109
Na 11.089622204669485 6.089589292135332 4.145528362876621
Na 8.65033523665298 6.829411746643831 1.8318894279770555
Na 9.96807113775712 3.534311570192251 10.663268231011468
Na 11.994616067186795 6.930679175022605 10.838165143468855
Na 13.820146457902725 9.753588422874996 8.739060075479534
Na 8.636908013913914 6.684663118164464 9.812484580380136
Na 10.47362634715282 9.707663426964581 9.56918176007025
Na 11.500589422088071 10.99038327699357 6.3582454761369505
Na 7.255752368868574 3.4261547032751567 8.465589507829685
Na 9.364942913519524 8.10591289938388 6.603378266854674
Na 9.854159125452554 9.835481558026673 3.4206126775810963
Na 5.548990220311811 5.460234776048371 2.733668188983703
Na 7.742895245566711 5.174225974088282 12.935644558085373
Na 9.618755857667486 8.226694263112133 12.866567212413022
Na 6.741335301131943 8.443718857520638 4.2560921860120615
Na 5.221118479270644 5.297904083582179 10.605421504652508
Na 6.137308601505141 6.798409170766991 7.400005150776287
Na 4.850449165089102 3.705658025595813 6.001644960137299
Na 7.694385063123364 11.62705439023893 5.394388014734234
Na 7.034956351831273 9.973477744168184 8.774489496875889
Na 6.2496540174035085 8.418828471473248 12.160086987825894
Na 3.543597667278768 7.07065365346916 4.966774180587904
Na 2.7890522150363006 5.422561393479616 8.202959176126992
Na 6.891778839016885 14.274981664400645 10.593554783829338
Na 9.148616998112043 12.741434265145363 8.402739366461883
Na 8.322622460034093 11.312128127871798 11.77374832097974
Na 4.583258753997794 10.077863449673004 6.305200752297195
Na 3.943166298927919 8.4775766470123 9.591128532722667
Na 1.4016631239463897 8.575950043922584 7.224010261369688
Na 5.597839598922906 13.12498976713986 7.614690429311009
Na 4.851306251436825 11.527450668423148 11.132806432878832
Na 2.447996879310331 11.60407220000292 8.587486217631875
