32
Energy = -33.23863032 eV
Na 7.574787440027211 5.471422445599547 13.29530937834964
Na 4.98015128647047 4.011151574014026 10.972972406598826
Na 11.47855807487712 5.960696171037063 8.302050611400164
Na 8.764173560053829 3.986790034851123 10.246004459336524
Na 9.68126058989933 2.9459860953100114 6.827915393747584
Na 10.073806842665777 7.18413036796534 11.427667610898727
Na 6.899998532499846 4.193391783704165 4.670320146191542
Na 6.542650034978317 6.901151165718046 10.262972952069386
Na 12.600818993573105 8.65435579566002 6.061724733243669
Na 4.669544808220217 7.525384565839406 13.023161165059022
Na 2.651108816924082 6.730866372733053 10.105646654873144
Na 12.912173582988009 9.066729348471743 9.683037777331139
Na 10.744481941217305 5.599348771853565 4.659347168804685
Na 8.119999806056702 6.070195675636886 7.281154315972708
Na 9.699133318703227 9.237765456526482 8.680083905079547
Na 6.311425537441862 2.5865750185103003 7.913315629289537
Na 7.413132000915374 9.929003701375338 11.77098356591139
Na 4.556071740143403 5.591601780787869 7.39734151780828
Na 12.112621591952365 11.898450697573043 7.555846811033062
Na 9.124994450659026 8.834877441263163 5.3488321963653505
Na 6.3802001159141 9.251592046724088 7.856047806224012
Na 9.786883693343702 12.3316907041079 10.213003026855443
Na 8.197108033882015 6.846340418331315 2.4908551938388834
Na 4.01881862120351 9.947859051980986 10.472889586943591
Na 5.591417846194645 7.857768044159854 4.692015309991629
Na 11.263741565369447 8.510998340000041 2.5774043127802946
Na 2.960022447660868 8.82853681248188 7.163646975904225
Na 11.139019976432486 11.636217008369547 4.192846250720113
Na 8.655990499341636 12.238000447687039 6.610458436812365
Na 6.294474893790625 12.466130635084932 9.27272953634857
Na 7.7492816809876475 10.650465535061311 2.934498617084246
Na 5.285568124381437 11.455019898978435 5.594500075184371
