38
Energy = -40.76920112 eV
Na 5.312335350193134 5.246535352737018 1.2928079846764935
Na 7.356732224155855 2.2981845203795057 2.1316639190277797
Na 9.535552673331864 5.615029700278678 1.868344759460713
Na 3.4028065223342883 8.409498651290543 1.6343252801345347
Na 1.560896080382236 5.3139090808747715 2.475640152439687
Na 10.850252676229102 9.019932070538008 2.825636655015938
Na 3.9401724864064285 2.907088121046023 3.753227502239734
Na 7.1084204263770525 8.2147245341574 2.751863320197658
Na 12.745214093848816 6.165982285897753 4.004778148047863
Na 7.1132457277706385 4.946147702051408 4.257417714647531
Na 10.299686045001122 3.2881861326595354 4.5640235183017
Na 4.157281016368682 6.652284050353049 4.430450336967076
Na 6.838141223826431 1.6651193461515899 5.693391579752049
Na 9.66435449523413 6.922869925415119 5.284820792283801
Na 1.2167141758951145 8.338083093724268 4.6627871026170125
Na 4.678231597134299 10.140856715522267 4.527299214529014
Na 1.5678574778274512 4.884226872616782 6.180988234528187
Na 8.506667162618973 10.538167680359322 5.103269941704057
Na 6.762897288363363 7.89115046686094 6.753870368414442
Na 2.160276119222712 10.923945083463298 6.944520540374854
Na 9.653812401226945 7.4723678196798495 9.04264767525706
Na 3.1613051044015177 1.702945121190818 7.199101342474657
Na 8.573744292020313 4.3398562370524045 7.430745942248872
Na 5.824992813965422 11.366731597131533 7.619853244074975
Na 3.367311245711442 7.668132793149449 8.042296826101373
Na 4.978077345042689 4.56927518295446 6.9257847649376725
Na 6.429066494564494 6.007600995501843 9.688197678081183
Na 9.434038572350179 10.951079664148175 8.483392362611744
Na 11.949073333020287 5.186385506816555 7.465370419627763
Na 11.933696407548842 9.093456822976753 6.471798213777624
Na 6.257162743589031 2.4038866332800493 9.41462010548612
Na 3.369664659052863 10.50363587104287 10.277353190256234
Na 8.053248874906334 7.013481696257217 12.5545474385835
Na 4.195455445678137 7.353492083977267 11.907781548091705
Na 6.776775507747301 9.445309361461621 10.332284601601714
Na 3.1020727203495633 4.398771599478175 9.876560425427922
Na 9.451830461438803 4.135765827814551 10.707571338877523
Na 5.855514860089435 4.150481944934743 12.563543962346476
