30
Energy = -30.95970581 eV
Na 11.330366670265564 4.6459992451035115 5.036945995249051
Na 8.481412817568355 3.439376165374532 7.156644058210352
Na 11.815859915957812 7.544575905989038 2.9770976363484656
Na 12.006182085022624 4.168903115883133 8.435048766992775
Na 8.498876207784814 6.5346832075130745 4.0964337580827035
Na 12.604072144928939 7.542235203931044 6.578217816131671
Na 5.742970536581569 4.089435464074697 9.604122851910843
Na 8.760998734101673 9.153952574930498 1.792846948044046
Na 9.182999038950408 3.983013472408902 10.74133854522063
Na 5.880563614819874 6.064142055478717 6.621643898921867
Na 10.233814472454084 9.969739846542923 4.943957787466679
Na 9.45799314501631 6.603987643980153 7.486100268923684
Na 11.295065658551854 6.961318154967097 10.540140510158713
Na 5.630066185401736 8.403177493343991 3.317484153392079
Na 7.1651568502552 9.231707259067166 6.652034612317555
Na 2.8040165514677504 5.808421075609831 8.238385803714346
Na 10.340178229616301 9.928074587614503 8.661989523414054
Na 7.179282552388376 11.746626249198053 3.8301748854571396
Na 7.496353461249789 7.172277065324108 10.21523621352025
Na 3.314802209669517 8.690143507184272 5.950174325690376
Na 9.303170719727651 6.551864399539694 13.518823130013164
Na 3.668579178891249 11.403768593523411 3.5909212342273413
Na 6.433945844635913 4.621083962771046 13.03990829324362
Na 8.54952806662558 12.504298114176988 7.002010008357667
Na 4.476261186969471 8.747167042436379 9.289894547073374
Na 9.52033709717092 9.740087559450679 12.13088527178193
Na 4.907801194204065 11.825704044581663 6.8323786542946365
Na 3.6972237544513358 6.26006702325393 11.681931662948609
Na 7.131768518735634 10.969073493912102 9.924355026498038
Na 6.192450268570119 8.485146401248175 13.037197547124249
