32
Energy = -33.54266123 eV
Na 4.124194110480856 6.5295126444663305 0.84551014754676
Na 5.530978540310897 9.892216635860551 1.5850277672267965
Na 2.178376500646275 8.857311286966041 2.9490351830234443
Na 9.265459876447258 3.7767060173138756 2.74918304992376
Na 7.785366431613509 6.873175593415888 1.7352675241858022
Na 11.135059277359629 7.095643045622412 4.683749096559386
Na 2.4188700779608148 5.241119521196401 4.05636359633593
Na 5.708261462798552 3.9805912181315186 2.8061310084916737
Na 5.149300158414537 7.3964477647205085 3.9656292162344955
Na 4.387163699582232 10.987815374017426 4.801018863404813
Na 10.781285392904373 3.1982331550649747 5.9862161068252755
Na 8.095502944196111 9.521816417554417 4.151710784440706
Na 7.445417687293553 2.119829581361639 5.479552417453497
Na 8.233270720808894 5.883148208972479 5.490205474689496
Na 2.5230910399324453 7.91353614899517 6.4317063740192255
Na 3.7635460151245295 2.0973904086698707 5.139343505675898
Na 7.307137422574665 11.830369630823805 6.882018996335024
Na 2.1900165025007805 4.502581961618007 8.035932985292707
Na 6.072267244519187 8.609611802222568 7.004870173657296
Na 9.625181768488748 9.005453665166096 7.567163009529542
Na 5.413852106985475 1.3665643301764705 8.278478632899605
Na 5.204366623629549 4.881960844349013 6.857315934940902
Na 10.98632001973416 5.702543183193088 8.433671254695172
Na 8.669703940806272 2.648782477479823 8.787269506816424
Na 3.7253346085340113 10.7135964967476 8.424908623924518
Na 7.6775868190751 6.337554160859338 9.155402769417082
Na 6.975074003834062 9.880812591405096 10.1727431397049
Na 4.1936159922493665 7.270871039478874 9.761039824853832
Na 9.999090994674813 8.157581164536538 11.070000147883006
Na 5.598969103914218 4.003598907332396 10.632868629012586
Na 9.215651217065341 4.625304613735966 11.674138125459871
Na 6.645873038208381 7.123505451213373 12.431713472209175
