34
Energy = -34.81674937 eV
Na 12.937228903171325 7.412923196316834 7.048859213523838
Na 13.483221982376428 5.7319146227568085 9.997017547652513
Na 12.249959939124857 8.544380228775315 3.8037199988898194
Na 11.039237139058967 10.295682126210194 6.6988046812538835
Na 11.641942167119707 9.09659328664316 9.923668668952025
Na 11.432967806197423 3.9677821188366353 7.681727046779657
Na 10.721879733255353 5.528410931564187 4.67038897214853
Na 10.441012581459901 11.37403079961062 3.3206470386411726
Na 12.34146260993665 7.32101561697038 12.73116035021439
Na 7.996233105607208 3.816098585474972 8.355610932875427
Na 9.447395034618575 7.160147950620927 7.553143549133937
Na 10.097596586463709 5.557925569175472 10.580764976895882
Na 8.77081844042911 8.464357446566517 4.291828562837087
Na 9.518189812488172 11.801407501337701 9.517982587931392
Na 8.968266306894366 12.919749029108898 6.099421488170697
Na 8.23628406790746 8.565683919173575 10.449159755262164
Na 9.035951660097332 7.151482489340816 13.518046655872606
Na 7.3696589384673965 9.967792444467733 7.176921124933175
Na 6.957204959799145 11.321350521534152 3.4720542945963753
Na 6.745238370499087 5.421073959168108 11.573905119733814
Na 6.13966831772323 8.91861982786847 13.182908711397788
Na 5.959217419199615 6.78471666908496 8.013707288327632
Na 7.267540299267169 5.421606375927288 5.036821281558469
Na 5.483099879053801 2.7959064221304093 6.326536516113667
Na 5.7833025464478895 10.891781928558517 10.250175820410647
Na 4.510251354322364 3.9944720196988484 9.573965144302221
Na 4.057278180807441 7.552858871971028 10.870986174614986
Na 6.830654051564417 13.743453484837309 8.600413323625718
Na 4.895980109700765 12.267553291684289 6.101649383401054
Na 3.631978211402646 9.341554631172995 7.54682591140713
Na 5.24898819862868 8.567345939815803 4.416248372656592
Na 2.1378739460271206 6.345942796638803 8.43628521849654
Na 3.726519861384216 5.831793933924794 5.372377121164614
Na 2.1809269071667456 3.197210955492774 7.055147167501283
