37
Energy = -38.30306882 eV
Na 7.453183837534481 4.506338687701651 12.441255790590828
Na 3.989349925773223 4.458779785429331 12.747956670464154
Na 9.07361647093072 7.504857185204798 12.18161080419509
Na 5.516515240529916 7.590280934184567 12.16632868646786
Na 10.032490350613234 4.490158044795014 10.181282488765937
Na 10.68611918817289 10.506776926645044 11.701597946541854
Na 10.97683532324937 3.0404289131275535 6.488205756599538
Na 7.151863357575174 10.60218903645127 11.727071392807503
Na 5.175451192130508 3.157296097174842 9.771338696769273
Na 11.611276721634914 7.694053993384958 9.889822874978373
Na 9.10159892042823 13.55426286244409 11.240503308511624
Na 13.03459793796607 4.974071061120564 8.390546640133154
Na 7.024490738919389 6.2188362316964 9.243039711913362
Na 13.243472779964733 10.82399091843247 9.411459515744285
Na 3.513890150188762 6.25636128265342 9.583101848009086
Na 7.793490251924704 3.173390327295825 7.632455194428806
Na 14.614365099285065 7.982307226785789 8.007759877516069
Na 8.791177480776044 9.4232431627436 8.768371025672709
Na 4.714769829531126 4.654792071709275 6.601762491642833
Na 9.787060875494966 6.407486874567207 7.0146379621621415
Na 5.257913233914386 9.263543506311564 9.029310522855312
Na 12.882871846020882 6.81872790453158 5.202572276592245
Na 11.554992444230292 9.648595361388534 6.560725973109086
Na 10.46252106599782 12.560537870824636 8.175655057709124
Na 7.608781626590003 4.9739731161473735 4.4962752358434495
Na 3.2995163749945746 7.91595777778291 6.4725136523178515
Na 10.82251915116698 4.874160747710728 3.4982658795506243
Na 6.9157362778319 12.455705431172678 8.644479886113867
Na 6.839674055697045 8.013970488125151 6.038091483388625
Na 3.4540671360773874 12.238849597915562 8.430133583681977
Na 4.741638960088624 6.485816752180542 3.5899990448690904
Na 9.781822316162122 8.199238712606265 3.8792806780222593
Na 8.70747640717688 11.349053190852114 5.4792599286845505
Na 5.277740154609374 11.095313931216122 5.748500496044208
Na 1.6527589072990614 10.933197123555349 5.750499489645101
Na 3.4079456640130394 9.572892362431855 3.143650201881668
Na 6.921548965864513 9.790263301517697 2.929802091984637
