33
Energy = -34.7310783 eV
Na 6.848167435365722 6.70989734023209 0.12059928044893675
Na 3.189990399892593 5.449219436378084 0.5989523993107034
Na 9.221839896146296 5.82725495035585 3.2415717325016593
Na 4.066425555001844 8.797767886761404 1.3423222077303774
Na 5.423829608356966 6.144585355746316 3.0940836899531954
Na 7.412452272022236 9.176664916624581 2.9976215588722286
Na 12.494995955873243 5.61782784774091 5.251114966715924
Na 3.1447133765430086 3.473183108735622 3.8940120179233535
Na 1.8040991521240546 6.935827037906717 3.6937470583567817
Na 6.85088421133239 3.646411675063354 5.150779267824465
Na 10.314920960138897 8.687950415236465 5.692472068534975
Na 4.193877420542905 9.402305291625593 4.982289415038379
Na 10.426863690987558 2.630998192490647 5.006385090957195
Na 7.109955285718663 7.425733819613254 5.87146584214472
Na 4.012328675761415 5.945202171402114 6.235495507080837
Na 1.559553591212823 8.201567416709466 7.398777104343908
Na 3.2607561597208488 11.336831129129163 7.890122945917091
Na 0.9672041405181807 4.591023570125727 6.619555006801164
Na 9.612349695451696 5.3973001170099035 6.932832123922166
Na 5.067319830319171 8.589955036852476 8.59610117261786
Na 10.917004201167158 10.693694091992333 8.57543190930536
Na 4.266706700958601 2.744074016417252 7.582589649005646
Na 6.560372780722386 5.335673033495111 8.563120377377478
Na 12.063265746592327 7.2323671123865845 8.642020148326996
Na 8.601630023482828 8.272970700929767 9.260854911383062
Na 8.490318945421226 2.320759569547559 8.208500264713095
Na 12.026330845571257 3.4575544194316574 8.278085465749852
Na 7.368026988661637 10.743520831400193 6.751974659246645
Na 3.12923501848955 5.652604729059257 9.733683139829155
Na 2.5229190580513654 8.8937173275914 10.927468769320532
Na 9.446846309680511 5.024454131734566 10.605033252505946
Na 6.000565119325633 6.9145461161861475 11.695480015844515
Na 6.16618212780265 3.268488383045535 11.107388159353613
