39
Energy = -40.6325103 eV
Na 8.170709899549 4.587253717146275 12.837835771739421
Na 5.54206133370543 4.535309876930358 10.323433899922115
Na 3.561186281212265 5.28084704957138 7.5012843727621155
Na 7.9357368014593055 6.698088302024502 15.587719564075895
Na 5.819540851734224 7.168842961147382 12.965349204376428
Na 8.759340003359501 3.4182196092048076 9.646223488371591
Na 3.860167942192287 7.712853871993076 10.311995206753698
Na 6.9207070150018035 4.573975222703984 6.977743267693084
Na 11.229713410159414 5.456098673525538 11.19446882009635
Na 10.265357970081887 3.6245925889228223 6.513752556724336
Na 12.199487805348486 2.6946980363425013 9.27907663324489
Na 1.8465038161764822 6.851263927928255 4.730624348559929
Na 9.866385021932174 8.019448467725985 12.908306483227664
Na 8.089924588255155 6.972358266532052 9.900870393035026
Na 5.823508745763059 7.99244749403251 7.392578025697078
Na 5.238994365117353 6.190140213480826 4.283215858640519
Na 1.918409916423512 8.497648308134242 7.703101895072799
Na 7.5493262958993075 10.071193898186346 14.54620962532937
Na 6.42614277690501 9.972547184854323 11.070023266013308
Na 8.578258623948537 4.942375370821804 3.920397320154412
Na 7.570702047895127 7.055018874604637 1.3177361559315077
Na 9.369315394725627 7.2383563223604295 6.632615418951509
Na 12.482386505940815 5.973736185531938 7.987130378080178
Na 10.880447728372783 5.753392239923575 1.3381382217315283
Na 4.209290197288382 10.953102329984175 8.546547424916175
Na 3.8873597554364996 9.768703392499136 5.022690041325474
Na 11.304266212717314 8.660762632641207 9.773842673515016
Na 7.2199103297576075 9.059942135800053 4.355107446323908
Na 9.625441066659723 11.29751339948418 11.50063447637481
Na 8.451832922575086 10.2555138137785 8.220877265408781
Na 10.421585363354547 8.563740696094376 3.2030096898529994
Na 12.22479765438179 5.893619059089928 4.539941670051051
Na 6.774397542431184 13.070804005267302 9.538293842594424
Na 6.337253975953432 12.039189420929194 5.97295804847581
Na 12.421354180635145 9.033714359349625 6.351286398290715
Na 9.849544498700544 11.2348360755205 5.133370815540376
Na 11.620887085341678 11.816902046815104 8.369576964106392
Na 9.99183922538398 14.493977020535288 10.168203445478191
Na 9.060667431853366 13.937704581692543 6.945558365912563
