37
Energy = -39.2466158 eV
Na 6.901389735097144 4.373977781240649 0.1788200867384364
Na 10.011418340618555 5.180709786096013 1.8268279784787997
Na 7.226716622793303 7.29020744932194 2.286736734518265
Na 4.825285903588449 1.8288496527012794 1.8086389968921905
Na 3.982101520430721 5.188255782019867 2.1991135979406753
Na 7.00723501559877 10.89170062774367 3.120405713571185
Na 7.646965871427263 3.086219545762824 3.4072187505376927
Na 4.011871208026768 8.451685809578281 3.7273501839323298
Na 10.209492794913313 9.0317356416401 4.008893793403242
Na 10.903576504543892 2.920788227616383 5.294397058874653
Na 5.797845711777329 5.5189594670353115 5.091883556352648
Na 12.554484421242682 6.134422144664852 3.995627614944942
Na 7.231065205689942 8.778859635857252 5.706330242336875
Na 7.379143897407633 2.6603553304172127 6.895061517369339
Na 4.131488386020167 2.3638331435993427 5.345551060850813
Na 8.261276888233422 12.032872308555804 6.416332593852045
Na 2.1502563519923754 5.649084602822171 5.448004713068871
Na 4.555507534368469 11.302354698495328 5.918926226847013
Na 4.347072317139231 7.977444631101329 7.3426043032114805
Na 1.6429769037317195 2.899177029234942 8.071482758759604
Na 1.3862365722646746 9.211273430481182 6.22039380321028
Na 1.56542183623701 6.601421106543361 8.977071410798539
Na 5.47088096277454 13.37196164653149 8.460689952771006
Na 9.24309707062565 5.8344332721722605 5.323517996394134
Na 4.553524944814934 4.6308375972532465 8.217603603414197
Na 6.71365756524498 10.119836954980368 9.114257462590688
Na 9.993675446672778 3.5415953661954696 8.750953593069797
Na 12.116311443782458 6.032671495407991 7.406663556326224
Na 6.876429984885273 4.178320240513125 10.868613119180523
Na 10.084616894730395 9.138989347347227 7.875558643072476
Na 7.606510674982801 6.549804626783274 8.45779561215999
Na 4.840565602886857 1.3773506060372045 9.121372733664156
Na 4.585058794548502 7.32396123827595 10.795243476223987
Na 3.154595227477338 3.935003696652641 11.281965272563111
Na 3.1355634794312786 10.507359693051828 9.328438564804095
Na 10.60222846185484 6.5621057517883825 10.50533753758973
Na 7.825939711909789 8.053066444245678 11.73580198945068
