35
Energy = -37.28071089 eV
Na 7.539885025328695 10.61320480072376 1.5613434218834203
Na 4.746500053163401 3.706907214224601 1.6712022181089985
Na 6.446682219159566 7.170893190060024 2.3513157251916734
Na 11.724618729937978 5.211987814222302 4.885139626404121
Na 10.185974524312615 7.841613528426569 2.6719135465621813
Na 4.532194187178359 10.14226019109124 3.547642206075412
Na 8.651365144784345 4.035807098286243 2.826473621081556
Na 2.9291643189874828 6.3396529317178425 3.5210329982871196
Na 6.989511410522959 12.901317121642048 4.461507089247336
Na 6.138480421084444 1.1112328252081838 3.9973345307423847
Na 2.7304850719076863 2.5910686209465457 4.662727373245477
Na 5.798834652249492 4.349722688074973 4.770544094426368
Na 8.17899824576829 9.79732894331192 4.769139127423872
Na 8.72254548170914 2.7666967314413706 6.4093267803295415
Na 0.24211050750372784 5.1267472780143475 5.877578518438709
Na 5.4132304959835835 7.681947300090246 5.785006788330714
Na 8.654168443704856 6.327745034894344 5.375519948284779
Na 11.216778460060008 8.56500382612199 6.476386528062762
Na 1.6089187059780765 2.535273989797459 8.278431694461704
Na 9.132779044881438 11.664321083284861 7.64707876118151
Na 5.539421888428478 10.917267005836575 7.1984661620662855
Na 8.175490789716035 2.9721216071360166 10.25358411579817
Na 2.122147807098628 8.401242831420621 6.468248420832097
Na 10.417032044932098 5.45448436689295 8.43414172063521
Na 8.035267367918568 8.39812289192959 8.064502417030617
Na 3.41758842354396 5.114844584488273 7.0546229395873805
Na 6.729435384109079 5.142408242851899 8.08102250616402
Na 4.5773539582114235 7.856049939295573 9.322574223356366
Na 5.272598142524897 1.8918955590835407 7.53378274982706
Na 10.609780042360995 8.645481406647336 10.329258650118609
Na 7.238893216691553 10.375449198776797 10.578094167293404
Na 1.173029818514336 6.056941792709062 9.29938614330169
Na 7.621215995155512 6.558791481873472 11.15549223332892
Na 10.753868431356045 5.24999609439342 11.916248822898304
Na 4.354560276853823 4.105079516705922 10.384838861613622
