36
Energy = -37.41598705 eV
Na 4.7077928112076926 9.743725810935691 12.742582795111229
Na 6.866728281489041 11.281015726884517 14.87289206086795
Na 4.741166288741479 6.736677024579744 11.268598949125272
Na 3.9023597638245096 10.311388819100538 9.545838694863972
Na 7.5243600472901315 7.897934043320212 13.29306325454984
Na 6.547155657913167 12.186563181484363 11.185903442820514
Na 4.309115038605089 7.256231641196298 7.944629183694976
Na 5.186160957021356 3.944417636121862 9.293565180957073
Na 3.712797448623254 10.541504867587987 6.136946137688099
Na 8.061054860249964 5.260712421100919 11.21218401000277
Na 6.478748021641299 12.263577123474457 7.828254177096416
Na 7.1081526674877615 8.842590717264885 9.72568342705074
Na 9.526521002948153 10.857141762143376 12.770182024897872
Na 6.552210431820027 1.742257446305256 6.776612824202971
Na 4.502915242416983 4.5788890288964 5.899073438753593
Na 11.020838373713689 5.166710690245165 9.230404321438915
Na 3.4949730541633497 7.5955553889861545 4.567192952855188
Na 7.590260496544679 5.684523915569295 7.497071711727869
Na 8.708854512207076 2.5388600020459218 9.320571476836248
Na 9.480017467981938 11.446402746257503 9.334289875943059
Na 10.23693149450463 7.977345252459902 10.977644652457327
Na 10.007255451469495 8.480015019970217 7.574161352446898
Na 12.506438478714768 10.7432244568495 11.068901612965377
Na 6.785412014338087 8.853011340559817 5.985283238998059
Na 6.326508850918008 12.128713929254905 4.390204643132359
Na 7.416779999918967 3.8937684695923216 4.12207870080904
Na 10.152455642031995 3.5808641662312017 6.192708252018307
Na 9.436736647868457 11.881400707672478 5.921439262708542
Na 9.378006105734743 6.719530456420666 4.616600303698319
Na 13.22263451760538 7.891438345336581 9.189958527406858
Na 12.425666910009685 11.275795429585632 7.516916069993598
Na 12.453474897361602 6.265963080669817 6.10777029309383
Na 6.356780636484731 6.893740739996725 2.9447399887769863
Na 8.467254337191656 9.777156291057112 3.0214663654300282
Na 11.614815902043697 9.40959020335783 4.538132726558586
Na 14.67995902364017 9.0056049380556 6.250966260540321
