33
Energy = -33.8379919 eV
Na 6.81091030090054 9.900228112863594 13.287612191987757
Na 4.076411912083488 11.77831510811901 12.59957012691066
Na 9.59784480996928 9.46677321895966 11.42816777302755
Na 12.407532629389017 9.679614677618643 9.64035897000245
Na 7.490228512990724 6.631013418377167 12.655024757006315
Na 13.238278323635937 6.2040347995142415 8.740576146102576
Na 6.8761480066393945 12.106230186926949 10.468488901104148
Na 4.2239078075353556 8.005037202165102 11.902683888786084
Na 10.456793698007528 5.857162223515796 10.805960736241667
Na 9.536973421721347 11.548440831505687 8.499989419344095
Na 8.12273029987425 3.347336750800714 11.848788819616013
Na 6.857557785077861 8.468387496527054 9.697103272801673
Na 5.161089043985185 4.782297354125835 10.768935399159037
Na 14.954280752485413 9.139637684159533 7.475313949463186
Na 9.912538204919029 7.839918793192924 7.902437861405243
Na 3.689281460420232 10.553116365475615 9.486918013449538
Na 8.032225206528137 4.794749466543038 8.715934931467743
Na 11.012876566616422 4.540084938206744 6.723876261006611
Na 3.8280066751639685 7.096824159153962 8.538148590417924
Na 12.656944457612335 7.490415952677537 5.5450540771749335
Na 6.243710089587913 10.967875908124148 7.232643043742312
Na 3.0611928340065018 9.596695572113282 6.254409455535972
Na 12.18781711474852 11.001363404445916 6.300399460016676
Na 6.808722618014745 7.186875608934886 6.419891682219128
Na 8.915247706807364 10.08970648710991 5.37995314558038
Na 7.952835488012482 3.7952535737363577 5.3018196301613845
Na 5.658074008224647 9.626975719133386 4.05913176493947
Na 11.414036071350772 9.739333878031475 3.1276578535386705
Na 3.6679291252767334 6.354499345747289 4.94313413570059
Na 5.035418184123709 4.069659381154277 7.2076335601955215
Na 9.686390789925607 6.706725167375843 4.293554019330277
Na 8.27754426225218 8.953736102985816 2.0306406929020735
Na 6.512676139686561 5.965752503116999 2.957112082580091
