33
Energy = -35.02340704 eV
Na 7.080705225612789 8.059021371826956 0.405725122569175
Na 4.01202362258384 9.691850421887004 1.7357540795558888
Na 4.011221007644167 6.064284092573464 0.9212917579677999
Na 7.25345569825393 4.511414464300678 1.943002419607818
Na 9.440968675614736 7.568671938974029 3.2807621828423947
Na 2.3932927450658203 7.242726598484166 4.1166467695034505
Na 10.28340367275566 3.8756956361154846 4.293670960843624
Na 7.5917500420655335 5.238033761396394 5.422751914929217
Na 7.419436424994464 10.697576786108046 3.2588743354617002
Na 5.82318492470202 7.446534741301421 3.4331912725078837
Na 4.497296349446229 10.25850124977053 5.504564471439345
Na 4.2951583303702785 3.9843245776187546 4.16672354679342
Na 7.138548015375994 1.7294120717909187 5.060313023422078
Na 7.642221606480559 8.761657519131603 6.207360500544187
Na 10.462717354122294 10.380838564053269 5.534224724179162
Na 2.0828352108902735 8.22837688875349 7.86622751200435
Na 4.740660610204045 6.800594154433772 6.699497508875229
Na 10.556391258030246 6.7057467058787505 6.847683421034238
Na 3.792940301080894 1.0038935121573331 6.564755678421668
Na 7.474064746251361 11.98790994867165 7.295251380457146
Na 2.2640576954945897 4.373369427647178 7.305414079163419
Na 5.646903198554904 3.589383460804154 7.748581695790678
Na 9.242534377838686 3.3130567491511678 8.060755093925685
Na 9.56177830229794 9.390165457441352 9.214655714089416
Na 5.456946079391393 9.469888656161878 9.10913835743455
Na 7.53082685247657 6.418478759040324 8.833168893114909
Na 6.744154934710737 0.6036230821686313 8.751416522301778
Na 7.586780193946678 11.524518518463829 11.040437572469683
Na 4.298620416820736 6.010859665597686 10.244708387350926
Na 10.243567235635961 5.83814645721083 10.662732807403023
Na 3.671159049097115 2.229111674200685 10.076841065315696
Na 7.088404328259535 3.7279393077209573 11.074699115732315
Na 7.261593674721887 7.86399593995495 11.908780273739124
