39
Energy = -40.31855597 eV
Na 4.187986041012302 13.991727750964733 8.210836290877271
Na 10.19782011753117 12.970971258394181 7.092130971672038
Na 8.493059690342708 12.185564628800554 4.177464892942833
Na 7.381741487194049 12.460481450315697 8.99120477768552
Na 5.643968644995002 11.608335140195448 5.983429948456435
Na 12.38159642079865 10.384761890098963 7.051832207706268
Na 4.558234795916904 11.725114905285924 10.937555235121925
Na 10.358010908750904 10.820088507325464 9.90068134041501
Na 10.475520206647696 9.437418619630616 3.7880369132833014
Na 2.6221976080776215 10.889188022124754 7.799656436723499
Na 8.70173202819287 9.742056093782283 6.855836790731025
Na 7.534639160646571 10.169729231103172 11.760410742299104
Na 6.8549280989760835 9.115712543082221 3.7692733083862375
Na 5.795816326534028 9.173038939972386 8.736582748384382
Na 14.714279762735984 7.697401358335247 7.352181076048703
Na 12.45325326510155 8.150385165266638 9.869609471276002
Na 0.5870545786751398 8.12300877199823 6.632423101104152
Na 10.248671650962681 8.3577432427357 12.581640760917294
Na 13.612672016876973 8.363795195006611 4.334637864136811
Na 12.895692121401613 5.919717761701643 12.463994044078364
Na 3.8898151250391426 8.654165824411262 5.567499123457053
Na 8.92036486133321 7.23934905038013 9.48377005608919
Na 4.367202100302139 8.472104168711969 12.059629484345178
Na 14.780387932066551 5.299055963952195 9.754462230552418
Na 2.4848810317498042 7.696323115149618 9.372686612175405
Na 11.195676411905799 6.94004727418077 6.600092934782404
Na 7.134556449197468 6.576512164606627 12.504455238553208
Na 9.004854024241451 6.279774962633732 3.7951112144475783
Na 6.91401935882639 6.5504835961364085 6.6284811638462315
Na 9.822741890589135 4.659362628127953 12.661585673429238
Na 5.27333467111948 6.107242674353781 3.5637156392634557
Na 11.385403013423913 4.636007243612862 9.380277519029779
Na 5.346292215139568 5.746414435388568 9.652889985910372
Na 3.376526882478275 5.447082914266214 6.750630322240955
Na 8.003092291872719 3.60040773923464 10.038978814650301
Na 9.434411073355156 3.9589986368362187 6.693788155183867
Na 7.380791850495676 3.29884288534334 4.082709462902717
Na 6.009655216465108 3.0450122329458096 7.3759481322261236
Na 4.0353647350166835 2.907875427874895 4.465880398412985
