39
Energy = -41.83132279 eV
Na 5.87488127387061 5.211228875664809 0.23717051239450332
Na 8.966098054099849 6.914482768820965 1.870820265099986
Na 12.038994099296053 4.792769370091597 3.169313720442088
Na 8.707204214298628 3.15197964249076 2.2726178574413654
Na 5.546773302869846 8.4129043464703 2.055820480734435
Na 8.876837147290331 10.594545376353679 3.171678666011459
Na 4.705126938257165 2.214061926298609 2.7238128051813684
Na 2.879845371181207 5.762184149456013 2.555259692476733
Na 11.250878146627247 8.309382253670897 5.006652047324124
Na 6.213254621368193 5.147762659348417 3.5575846761414907
Na 2.0502761782805843 9.265356011807842 3.8735974403719435
Na 9.404558246836075 5.086334059797614 5.129178465678624
Na 7.695344490880612 8.084169345678108 4.9620748361003315
Na 10.958374051610688 2.1450044033482487 5.438903102161199
Na 1.0689343156524427 6.542206302720673 6.341565034525811
Na 5.518224001818496 10.877777152792767 5.331877865048483
Na 12.309966259173784 5.39859715284515 7.201987541596918
Na 4.306230033364116 7.401415375704944 5.366115647596755
Na 7.105639184870016 2.0494647868657827 5.590284453068034
Na 3.857618293032347 0.568151854172921 6.190230292606068
Na 2.798658352673644 9.684450224705472 7.579140280234916
Na 6.628337335914853 5.26208748773503 7.009926546893691
Na 3.5046462260945925 3.9022378519300083 5.669678796364478
Na 9.064742428918224 10.73952750884388 6.981768648027374
Na 3.8641003652925336 6.172873562483531 8.597866443912858
Na 6.24893835116396 8.660475641064417 8.095459509670022
Na 9.394924610509442 7.193706631951709 7.92727779395865
Na 12.07130657322494 9.077029159049465 8.64104982766429
Na 5.619573841722382 11.792905017433004 9.114610740148306
Na 5.262572562970477 2.7194843147280343 8.926603765469842
Na 1.2950583761611274 7.5254586840746205 10.229627554804367
Na 9.297665694355809 3.5323428258088287 8.494136339075018
Na 2.3460066931722805 11.04675514032652 10.729669506704967
Na 1.6623332536662965 3.5570352783730352 8.794242150959672
Na 4.799566039715512 8.539511706185777 11.209984630252787
Na 7.144261164912217 5.798175632377921 10.53325442361313
Na 3.6887288638587403 4.866337021030801 11.691381469340913
Na 8.620375307053925 9.353065768376286 10.555981170483413
Na 10.91826610112143 6.211883096302049 10.7369153675994
