34
Energy = -35.84247699 eV
Na 9.308780064501255 4.958975575635593 0.7154237219119686
Na 7.077552928914529 8.062579662876768 0.7156587038904271
Na 7.866766920001153 1.669168957245657 1.650220517602245
Na 3.529621407081779 6.979087135338595 1.503045750824004
Na 4.426811545184958 10.398970107956266 2.1686843705609546
Na 6.29747679659395 4.6953099080409695 2.2022833787845006
Na 7.873450256276027 10.839335031883191 3.6070513543948013
Na 9.48343086877092 7.382247426631029 3.4093320945233536
Na 5.833159941975192 7.8875613203239485 3.8798803001569735
Na 9.835924063421443 3.7545260588404363 4.040185579045692
Na 2.427328939149248 8.282795644370147 4.8623707798905595
Na 6.569322660069469 1.8843904716028788 5.096138501063351
Na 3.7890693865435336 4.886092139188678 4.735142004144625
Na 5.018806094155914 10.74674444797694 6.073311526603091
Na 7.339416829426443 5.364661625401502 5.605610933477676
Na 10.852291213805131 10.051171555098986 5.585637877877866
Na 7.92281328768027 8.829083580272172 6.53286380227512
Na 8.075289007775407 12.173523846923246 7.276050729730778
Na 4.781599527004627 7.325620460291588 7.284498647350731
Na 10.47170076084383 6.369793604412637 6.8469690717825475
Na 6.0420993968928896 0.7300813890281267 8.899270140737707
Na 2.0345515565365297 5.283358864211096 7.948566235073571
Na 5.2076825916962495 3.8372625507168094 7.95588036199159
Na 8.838585593443394 3.1406750520613236 7.972446909945044
Na 3.353628015281439 2.877437289400981 10.680302240228759
Na 7.575371366327862 6.355417793605937 9.048766543454889
Na 6.176729517529098 9.779221828181896 9.689527817005947
Na 9.77051923461642 9.014709105844277 9.558980346216943
Na 1.2203547935234078 5.763677095139066 11.271433789270024
Na 2.3711539090908365 8.76696703282113 9.223052773557953
Na 7.004099785753448 3.6580794105321925 11.188841164055937
Na 10.276646019217404 5.379357928972048 10.694890137906258
Na 4.597693810477391 6.401502231317766 10.834638973348586
Na 7.776040172655663 7.496382130073753 12.268811183532819
