38
Energy = -40.59338449 eV
Na 5.25802857405662 12.178923659667209 9.468117167661045
Na 9.487460878665084 9.30431842400626 3.666431490860214
Na 4.831958029250624 8.981852252864163 11.415050128641026
Na 4.801466799511891 4.127350259936604 11.775886368203851
Na 8.347496329401785 3.0441968819202665 10.37365776998674
Na 6.674715603871378 11.747764167264533 2.8922324318463155
Na 2.300168589151078 2.539398972899638 9.613353348277785
Na 8.239671418663637 9.95236490628393 9.81430173535651
Na 2.6214881004799593 3.9757175419185273 6.115509174484036
Na 3.4644109262794758 9.616461262741714 2.541669718049388
Na 5.381211712458774 3.319136427741882 8.497462266429272
Na 10.944118632366997 10.09378033684395 7.010788881849723
Na 2.5449062179992 7.981719044293394 5.800428183403565
Na 7.850706211828702 6.012409010716738 3.997907158051506
Na 2.2345345120900606 10.102262795736921 8.990509040127598
Na 4.1878914771679225 5.787313103561106 3.169351165103216
Na 7.602897072005822 11.542391262978237 6.496800587272677
Na 3.8881475651128246 11.517711033903574 5.877884879426357
Na 5.284064666995648 9.120484309722745 8.039803957407186
Na 6.200567912511401 2.884071330014352 4.884188186167453
Na 3.0853964973853327 6.265382388497542 9.337305956677172
Na 6.9053929324344505 6.411320262664923 9.968490886330084
Na 7.0319291659846686 3.9220738834262536 1.4712423981746205
Na 11.128092163378653 2.7352332362394054 7.76038560351001
Na 7.899898426733903 0.9484764073224796 7.355644278508385
Na 4.027386283024763 0.6131604627542697 6.817625765637232
Na 9.732051072534103 12.97216086577734 3.984770122790795
Na 10.232421963813925 5.980777310629913 1.675724202447198
Na 8.370371781587338 8.00075069463986 6.9002487970382065
Na 5.148415180501586 0.44611657904166985 10.307415840778802
Na 6.883601039089998 7.854781081872618 1.2588988257891056
Na 5.921068484327694 8.858767262257217 4.582984518187413
Na 11.118685639554919 6.342428465638973 5.272288107837161
Na 5.347462466207775 6.0313568147357515 6.503968805015168
Na 9.826367636645788 3.04837337435991 4.154331769089156
Na 3.49723008332775 2.0536994193897216 3.1731180693951946
Na 10.48816787001397 6.4345340979262 9.108272725793391
Na 8.419160933500603 4.4599912577252425 7.134960538310819
