32
Energy = -33.69869943 eV
Na 6.253782428187554 2.8845089445003533 1.5314215993974818
Na 7.767726671149021 6.331272448607243 2.382295033548572
Na 5.713978634862149 9.484984186714668 2.951986118442635
Na 9.572387042263916 3.070315048727197 3.056590820627359
Na 4.011672796342513 5.557688731333746 3.0638053906537404
Na 9.053799740321649 9.449826760268802 4.400619235920218
Na 7.155294929018003 0.629339459333341 4.225982275875485
Na 6.693497153457991 3.8632761910096614 4.800915598564978
Na 3.7035258071776544 2.0377468782422996 4.206619602801045
Na 6.167828481460362 7.157003057440214 5.437202108073436
Na 9.695703115538894 6.008215111595463 5.572792431661603
Na 2.793505391588243 8.119811966262178 5.633385556332978
Na 0.9946433260718556 4.3654840508267885 4.724431094388129
Na 5.6166344276253595 10.29652617769204 6.405196703586568
Na 11.465335764689549 8.92497992253268 7.122728418096853
Na 7.246926038624451 12.57573063068261 4.259494330224816
Na 9.172411064835813 2.4061890031932207 6.824935240896122
Na 8.946535238926014 11.638187188425507 7.379034840456253
Na 5.622891994352185 1.6179691415431046 7.474986646295581
Na 5.663978278035611 13.366372154290268 7.529136827790461
Na 8.137880885049626 8.374895085736993 7.90039246952367
Na 7.050398358548681 5.047317797887309 8.133869559783014
Na 2.020250912125342 1.9400948898267323 7.496769432295562
Na 3.08412913231548 10.894255084921928 8.771990096306801
Na 3.7554209494170636 4.7829337599695485 6.672693430817102
Na 4.508310224146859 7.633619824553799 8.902742192203204
Na 10.344964861525732 6.0265409398097445 9.280745541446473
Na 6.425417709520461 10.556139420166076 10.04748602881516
Na 4.3471306805107455 3.842944924286909 9.996532181567103
Na 9.992371625193964 9.510305559491849 10.44798699959787
Na 7.83041143802002 2.529512330865165 10.25428007472792
Na 7.211406014584579 7.096164444751013 11.131103234769535
