35
Energy = -36.29673069 eV
Na 9.685282072551367 8.451769063621486 3.1932768754919523
Na 10.523707847238406 11.855967129324068 2.527917095312394
Na 8.9146688085938 5.392913527473952 4.4672138751236625
Na 6.504795592229042 7.89841148695734 4.814241166293882
Na 7.549388879365177 11.183313591654928 4.191265313204476
Na 8.069860233019297 2.4984967315734044 5.970444619541237
Na 5.58360845656179 4.7739289672400735 6.0817037038262125
Na 12.461882450309016 10.05633569969193 4.7196011676884675
Na 3.2725824316493273 7.249867703693036 6.287131257932168
Na 4.468755586268783 10.606116279020945 5.677335665677538
Na 11.878346639820174 6.941162943429546 5.85654672387868
Na 11.127799482044821 3.9166824445788015 7.109676750230913
Na 1.2840086802714927 10.136907354365803 6.967727468663256
Na 9.22606547160829 9.221884993024267 6.722035662713859
Na 10.321401424802545 12.524667691200085 6.087648450512388
Na 9.621191797059023 1.0787401331659694 8.655920110624928
Na 8.395398096123342 5.975872948467668 7.985135410098638
Na 5.9868935430408445 8.611640637139729 8.283289969377412
Na 3.907461045683301 11.3325796234564 9.167083530824996
Na 4.450340766959301 5.556641848237731 9.434092641706751
Na 8.936254563132795 8.827959486547947 10.222108210598185
Na 12.418269626392583 9.876484443461806 8.092578970497524
Na 7.244264761081477 5.854475980377299 11.461248084665929
Na 7.024176448864158 12.129272941220721 7.52059060560329
Na 6.734437233274844 3.101656819712066 9.212731683914871
Na 2.3452479968610844 8.185814157020214 9.582330288779657
Na 11.734995174609294 6.674861231511264 9.315167807810374
Na 10.003141883333884 3.9251607735913185 10.56448231507612
Na 6.749690421970813 11.596266975850082 10.981810342224588
Na 9.972208079002817 12.181257305141934 9.428993245531805
Na 4.98193756998016 8.51080328568299 11.667216092871314
Na 9.665815371450801 11.516179455092281 12.776438006244021
Na 12.191128715661051 9.572766586851296 11.476402136704209
Na 7.781297301953264 8.76015666845645 13.594101154934322
Na 10.475783987164771 6.693958900137476 12.60778724819558
