36
Energy = -38.44250964 eV
Na 7.469376705179957 5.184810421230604 2.0535939441661584
Na 4.413191949184738 3.3908068107066094 0.9385259334846349
Na 7.50791051050678 9.380759207316347 2.3620712033461086
Na 4.170208211546541 7.044318754440457 1.909482992924893
Na 7.062718363083466 1.5701458931146397 3.3565109756989915
Na 9.911556228107115 7.112921800854666 4.502338479320765
Na 4.7648505032741415 4.208330007531565 4.210186651781392
Na 6.306124975989122 7.126024018831934 4.713083967002689
Na 1.5244081854360985 4.580916528013765 3.0714614497983046
Na 4.510338310565283 10.267195754112326 4.35608480515823
Na 8.250752794398643 4.086491151083084 5.374285597149524
Na 3.2230959732328004 1.3726903055509438 3.7723718015716785
Na 7.381083800416014 12.677749472495465 4.157835534756853
Na 2.6160791350238686 7.11730107719812 5.402917933733732
Na 10.601566543879017 10.835396915591915 4.2389705481227695
Na 5.638545969334374 1.6928212091876407 6.7539990235839085
Na 7.870299900246342 9.808781800810978 5.956398197254092
Na 5.223833955424965 5.111070798955709 7.4524143015057875
Na 9.37267349105708 12.368420253241053 7.304221611253389
Na 9.47194407414692 1.2587847757473567 6.7887383864444155
Na 5.100903809968568 8.583043497535906 7.669153729024522
Na 5.632199860577267 12.140168115086672 7.485746327358854
Na 2.250575687721007 3.556227226645453 6.786647195209694
Na 8.214450942768764 6.804179071381607 7.737103505915207
Na 10.93823014074721 8.887555454434311 7.72904477016841
Na 2.362622527539363 10.533589845754504 7.352359217732772
Na 4.379404214292039 3.277031634419228 10.156737147048513
Na 2.592924577485307 6.514416617967449 9.142807869940244
Na 10.987695401503592 4.718359486814526 7.662120974795296
Na 7.906226591017368 9.781531254850728 9.722592780358344
Na 4.313272795008115 10.271771466851714 10.428941968986994
Na 7.810311750462967 3.4203122423878636 9.059987994237531
Na 6.105496983334052 6.6493435890134895 10.76493243375377
Na 9.841174300469666 6.278828474660262 10.763464999057048
Na 10.73220228104948 2.637447642259517 10.552624969431168
Na 7.647380242935489 3.8560891108324933 12.415872465834914
