35
Energy = -37.21053212 eV
Na 6.7079402305853115 7.48828361028373 0.8751017551362802
Na 2.9634476386050754 6.900362828554609 2.076294482742368
Na 10.381693459956644 8.059735455005399 1.1208457284866225
Na 7.836028532080384 10.662116234835882 2.6605373153149947
Na 9.084238632057442 4.615147671712888 1.8425903102223065
Na 5.128156350722142 8.734779264000512 3.856023511523864
Na 5.759721814082741 4.899589277439139 3.360584871064242
Na 5.395672233296719 3.403757552848706 6.59136446161928
Na 8.494427723096894 7.422525865959131 3.8658556370766
Na 7.0401178949291285 1.437049467660465 4.286613487907043
Na 3.0506370934446894 5.95194180594877 5.615479340532047
Na 10.94753921727615 9.70951935374292 4.329269003497715
Na 11.660005848229416 6.0376104101800045 4.107719924364986
Na 4.651140749991746 11.892736843616568 5.369849336821219
Na 8.93232500115323 4.093369715018288 5.4259374744891735
Na 4.822080046895964 0.1634734538546741 7.3185342789101835
Na 1.7956937611563941 9.415341457953867 5.018529858880139
Na 1.9732073367452894 11.283341058976264 8.228798219702695
Na 11.063752798047936 3.8044551568332183 8.266934896537109
Na 6.502396953184968 6.6554942012498435 6.421318610386834
Na 8.201324102623563 1.3470529126978898 7.878313864044925
Na 4.336220318254709 9.006033222412904 7.359534867648098
Na 5.5229197969616886 11.762319005318815 8.917637724299608
Na 7.72928668992719 10.121007085940953 6.295914018485142
Na 7.801017552846181 4.754128798418331 8.862285177581658
Na 1.28233732549577 7.610214502929387 8.37721802770361
Na 8.969562967940904 2.6925261749950264 11.28862544088324
Na 9.99194032114919 7.249901636984805 7.245536803767793
Na 2.3360960217730256 3.199002003300007 8.181007595641935
Na 5.444239267018047 2.379862059730327 10.136045207369964
Na 7.2300726587952235 8.318838860937745 9.552909610613943
Na 3.7631269432275087 9.008408540512024 10.79040388453796
Na 10.041908030920355 6.198935631939123 10.933486817417178
Na 4.309202327737798 5.825712945527525 9.228346859363802
Na 6.513847780609948 5.5587513534994475 11.977877016244111
