38
Energy = -40.28275812 eV
Na 13.028127173536781 13.229716145590492 9.690753513090417
Na 9.471222582672668 13.771769390214923 10.656491065806097
Na 6.101302962724725 14.697910161998866 11.67048599598403
Na 14.340409959385505 10.652418709122305 12.067354548749924
Na 6.78008182257545 13.935534186787214 8.254645475093104
Na 10.173768095560085 13.008639284101472 7.328687985094956
Na 10.909630818843002 11.312021602564167 12.739299613244667
Na 13.311009289794674 11.658181885015994 6.250633766942051
Na 3.4485427136225972 14.560734593267776 9.324818713277846
Na 12.323308275548836 8.174522965856664 13.790077766798111
Na 7.432050065409034 11.632615156830596 12.935678584878119
Na 15.357375597513867 10.31718457837202 8.767320243143592
Na 11.728403198245434 10.112381050848475 9.475917702534213
Na 10.459513667894461 9.591443139444852 6.414125924374056
Na 7.386104623867272 11.279235968267038 5.825749637701672
Na 7.932406247890298 10.565015271244297 9.321042397066444
Na 4.619285726817571 11.568763625393364 10.756743583208248
Na 13.736357737711037 7.436420683281406 10.534363890459682
Na 4.159021860066394 11.679713258502117 7.166056110616722
Na 8.776752779973208 8.73994040819038 14.747965095206549
Na 9.532075703329195 8.117146144191805 11.396806042136669
Na 11.465941490536816 5.1531782676569975 12.220812005699072
Na 8.621147909730162 8.746728886041579 3.5195006763856576
Na 6.030558668544068 8.491987831810418 12.170205665134247
Na 13.530593432930827 7.874192203417283 6.818585654478972
Na 10.5156237047027 5.666837982476775 15.60481135002998
Na 7.851960205733742 7.599931497688388 6.92919654794397
Na 10.776734788261946 6.286649653548546 8.645480697041352
Na 4.862911097533946 8.591769472293727 8.695132467756455
Na 12.407183445001946 9.155790123507655 3.6324251144974378
Na 5.125857087480327 8.605262363127267 5.007517887777056
Na 7.929869742340442 5.455574383361938 13.255999099934044
Na 9.213489087049167 3.3063783083705935 10.322536546927632
Na 10.72884571867977 6.17950164169722 4.955426607155968
Na 8.46523526726324 4.00171447730432 6.901597647549076
Na 7.030616795230795 5.926947326211227 9.85430095038065
Na 7.181851126327804 5.519264736473932 3.915269047891826
Na 5.074196216641691 5.391129231978804 6.840580831534862
