39
Energy = -41.72237912 eV
Na 4.3440017944610965 3.72678039958088 0.013415180327641413
Na 3.284648847884246 6.574153749249106 2.0847222820069646
Na 6.768405825572152 5.300944207242322 1.929570850327339
Na 6.499376819573717 1.548922859373067 1.9486536399300078
Na 3.5428671758862067 3.1437789204831366 3.468920380623382
Na 6.31695391817924 8.773040494764308 2.997513999609112
Na 9.904597655074818 7.976988498868937 2.503689237915963
Na 8.586409654952197 11.482378327565995 3.583016990919796
Na 1.6292458448035163 5.635413639130281 5.55115270243804
Na 3.1520619462061963 8.998298725957529 4.751851237047754
Na 9.795592887927524 3.8173695148418347 3.0560446831160384
Na 4.938582956966391 6.0156192434822575 5.047184079326898
Na 11.857606735629632 6.151250551595021 5.360115698317426
Na 6.848492618273286 2.9690974674679063 4.980341016157261
Na 5.069499716364739 11.989463964171637 4.315682102797426
Na 8.368743020100771 6.272740588574534 4.94328309737998
Na 10.263509174443179 9.524406693066434 5.845670334637092
Na 7.333012206089141 12.068899710975053 7.089257068005226
Na 3.6062668544100562 3.12921890804005 7.170177098830604
Na 9.879234261758125 3.2086076612477417 6.760082883442097
Na 6.6624868620058075 8.786667140817507 6.757636378706684
Na 4.790775068909181 0.2142173799898374 5.168724059648282
Na 3.5336286574155973 11.20378834571883 7.457954061425137
Na 12.638973369112533 8.362635826072205 8.351699599451512
Na 6.669668758062784 4.984623252751215 7.812582857539148
Na 9.642079987548327 6.6574208525265535 8.048143449317855
Na 6.717836944476024 1.441651613882158 8.226268752923161
Na 12.395852218598288 4.624498524648862 8.922345982796953
Na 3.9441864410842027 7.23847231292131 8.276571339847726
Na 0.7840508268947535 8.55545695184944 7.361671684427
Na 9.229847038666707 9.835841717633375 9.332538991478065
Na 5.629550568268065 10.0358426377953 10.01301045112066
Na 1.3870643811059853 5.355364305102756 9.476024842966334
Na 8.955218400131455 3.7476165098492302 10.2820581946953
Na 7.153058841463503 6.945259030391179 10.694611669356867
Na 4.858866631592058 3.8759162675268315 10.497954042032427
Na 10.76522711770001 6.915879646950741 11.194306396881855
Na 2.0022443302650124 9.503015193067075 10.39375032077193
Na 3.794681893064112 6.952866615746606 11.876210612376092
