35
Energy = -36.19716387 eV
Na 12.988084206755707 6.732188259058054 7.1434478652461895
Na 13.817688221197214 9.004868496538759 9.758944491017612
Na 12.184399837106616 4.448093156851412 4.446527033603425
Na 11.384692582111253 7.9519873182214 4.214194169115218
Na 12.320480968847372 10.291620432713414 6.8422440580686645
Na 10.635860261461305 10.5065854437734 9.868338375911643
Na 10.390672292900181 4.415695151241326 7.529873473951341
Na 8.885081539034035 10.9815758483453 12.81693399662894
Na 9.143957193573723 11.663746117289918 7.0949655673940235
Na 11.21374148911031 6.7438654608813895 10.190154968743526
Na 10.67856077971483 11.422867396298189 3.9383292660409492
Na 8.374566532770862 13.188960577747867 10.179986800075026
Na 8.802390358721398 5.615684226095813 4.643538375741515
Na 12.037812427699906 9.12030910280756 12.775373660660355
Na 8.080111749265384 9.164254538923842 4.405689317897448
Na 9.62702114764836 8.058365682512623 7.354556353418232
Na 8.696817149246314 4.47405745578491 10.640815751537687
Na 9.409659157335057 6.820857725228958 13.263986544393225
Na 7.97360914293116 8.26170104276844 10.449582895712771
Na 5.1908867572585855 3.685877264292085 9.999040163503983
Na 6.982062303290214 5.807522160840741 7.830554154481952
Na 7.705192084645219 2.2737364303406307 8.068315663516145
Na 6.1066096532832725 3.4884072772070374 5.199628109649666
Na 7.435446627082516 12.70258564333718 4.206806192764673
Na 5.706549723417492 11.101790028098204 10.75043784108686
Na 6.404366482002315 9.486531342171578 7.564668412084949
Na 5.5124374789276995 6.940202483701405 4.798257786193709
Na 6.168778943885259 8.965112280650045 13.407133047790351
Na 6.146013683630916 5.73816342999645 12.581046749504312
Na 3.641111847443803 4.92100905391104 7.17901780544586
Na 6.0792159221023905 13.18881107946347 7.571201485516699
Na 4.757613551839953 10.44294703805624 4.660393745924973
Na 4.5541846768527 7.657449414973913 9.931530527431503
Na 2.9590611073851023 8.25184966143403 6.718178394227807
Na 3.376665807337272 11.185628553868336 8.233129162674519
