30
Energy = -31.25902029 eV
Na 5.293181372307436 6.5557087914967 0.17891271580035936
Na 7.494086105576081 9.221257357705122 1.3474575365397652
Na 3.8933477036972386 9.310780209147254 2.066787028588773
Na 8.691962078668736 5.745448669259776 1.6251643329927805
Na 2.741225764058954 5.8671112669817 2.78183118006406
Na 5.61423762213086 3.631198734058322 2.5228773256725767
Na 8.898325505785316 2.402374289578118 3.0497168168548274
Na 5.967096867469717 7.044182598643759 3.5230186053169734
Na 9.308515619854902 8.156247830171255 4.455842844512609
Na 11.295075140160133 5.196159828151863 4.066851737518326
Na 6.435821042544848 10.375986362642491 4.908620941447659
Na 8.083188666595555 4.811104748467474 5.217007913280984
Na 3.419281165358105 8.404833919450242 5.69243795738962
Na 2.7591140726036785 2.446426331519543 4.3136732710609325
Na 6.074753674642205 1.9362765720494481 5.693565257355752
Na 4.3839510285491405 4.950608212579106 5.989375483701131
Na 10.166426023480204 6.529287831713048 7.7431048377694225
Na 6.699929303043935 7.489319454146966 6.874587844060909
Na 5.393868664376517 10.068979956350484 8.797000619687383
Na 8.919267234558813 10.08741523395564 7.941186375560161
Na 7.137061120464622 4.2321373643226154 8.595499716982834
Na 3.8348201159734527 6.839631797219221 9.03767696003587
Na 10.830090985937897 8.548882340437643 10.671697983270969
Na 3.8155940765312297 3.2393517354478965 9.105235246441595
Na 9.517716241633178 5.186284862669442 11.328455540815709
Na 7.906390108861336 10.652263604318106 11.466193671958521
Na 4.709827659535967 8.418431880555746 12.143466841158542
Na 7.474933915040147 7.533104081888991 10.257497875054899
Na 5.859555219247483 4.680633903679786 11.818794913344538
Na 2.4830658660385065 5.540280196117762 11.888170590487375
