36
Energy = -37.16966755 eV
Na 13.532353686050802 12.438721183177668 11.126706929677232
Na 14.27091033438402 10.360748290573632 8.351934784842962
Na 11.171145556184797 11.858863515336243 8.085848327105618
Na 12.28187569447422 9.943110297837931 5.496664925403425
Na 9.895842840474044 12.365471563101506 11.217081241604829
Na 11.877266431113526 9.299633244787417 10.822332511426366
Na 7.814150527984342 11.97332177333992 8.222510400730968
Na 9.02613751715582 10.922279220344805 5.09656970091786
Na 12.7781377911011 7.335704621431344 8.043667753617957
Na 6.515660784073578 12.262498164962931 11.637227012365111
Na 9.540031321623104 8.741634805951465 8.069837053118887
Na 4.391365112717673 12.152237116728669 8.939905318665277
Na 5.52074773344248 11.314889653399092 5.799636627062595
Na 10.460060072346135 7.201651521511295 4.905945829727465
Na 10.480497830315262 6.227164856588262 10.762022660383824
Na 8.58743775334665 9.18891007013761 11.638588076533367
Na 5.232835571794243 9.250338965099091 12.594439745989092
Na 6.14218513182504 8.976493227043406 9.100033161815148
Na 6.941503544122791 6.282845112894494 12.071360431941768
Na 11.023294601731426 4.623446736441265 7.447540677825324
Na 2.838191769369924 9.338495412426902 7.842178911423668
Na 6.565052012141217 10.04614516001328 2.8058305059901345
Na 7.122329950908908 7.893696163921094 5.643213416828169
Na 3.4215696305828254 7.17164679079896 10.586209500567334
Na 7.7902136801717345 5.635160193134563 8.454563832044268
Na 8.155697809789057 6.66718860880064 2.4228650799137084
Na 8.60213763004105 3.4227515485428888 11.247474379331145
Na 8.542232723924126 4.307535244457827 4.998103542756776
Na 3.8297840808147994 8.474734009435 4.606063779206344
Na 9.010628034612973 2.0702898055581604 7.846971068235046
Na 4.502755950288511 6.304408051734009 7.375806797451131
Na 5.05259109854258 4.1327062086109345 10.144430245178006
Na 4.907264098241503 7.395674981415827 1.3380846343028605
Na 5.265489756579396 5.215878047901902 4.100766368240321
Na 5.811664466468195 3.1318605462381592 6.872072086390335
Na 6.535234363746854 0.995289185481292 9.88000497599768
