39
Energy = -40.13345671 eV
Na 8.306131504489889 3.165816875077461 11.061964946216323
Na 6.8879278449141825 2.817824310330311 7.525934036736787
Na 10.254501339992697 2.09143115346159 8.274157599395693
Na 3.8036790428669804 4.459479075471852 7.245600214905157
Na 6.656862997668099 5.521170083716783 5.296781637569438
Na 9.815382907416614 4.30971853807546 5.53145673811296
Na 12.175764644259491 4.952747099175813 8.156309896672397
Na 10.765485709314513 5.539607201514955 11.2854045908774
Na 3.802637550609758 7.347910146205229 4.998420201560459
Na 10.490062442645716 7.823153825412092 6.890272813717265
Na 5.338498795699234 4.572792767208578 10.516070906755623
Na 1.2098186206398025 7.208820690966899 7.226078090310017
Na 4.9671929111916535 7.475865936869607 8.470150903336911
Na 9.256337473194165 7.143760266842065 3.5212447550769563
Na 8.387154307890533 5.717661111830716 8.567724537285624
Na 12.557319527018132 6.478258462077578 4.272573885068065
Na 2.1761131690031994 5.800298013781384 10.234249486439792
Na 14.42391167495267 7.3160835195881795 7.2563726482204105
Na 6.20039160654241 8.202536438123003 2.764798006294433
Na 1.7753173318950815 9.409308171517486 9.902477318490723
Na 6.974853983882723 8.913554981750625 6.2065802656945825
Na 7.66349027543371 6.71603915472863 11.946798029438405
Na 14.644374314171632 9.371679651310593 4.492740832954726
Na 4.483692764521154 8.033933903116205 11.826218074300373
Na 12.373748611521782 8.148711847866073 9.913671953049882
Na 11.225593375644031 10.011494106109053 4.183123214306662
Na 8.417033934752537 9.096001895706447 9.537694554758625
Na 4.558985635083505 11.05166658151252 3.746892862022735
Na 8.057913288164343 11.234909726964554 3.88488827454691
Na 3.3733655637454203 10.264866166932896 6.821406409890684
Na 6.995464932627639 10.350331144648736 12.576982671453722
Na 12.968518932273383 10.556725564466088 7.32398165045438
Na 6.338043107063861 12.377511342624754 6.782038992684568
Na 5.0870215277740956 10.83628343986768 9.70602481072916
Na 10.304429012131523 8.94384441897988 12.657651132415724
Na 9.585735179971094 11.286789694177008 7.0922660706220055
Na 7.9365701480138595 12.773070111283012 9.97186638652826
Na 11.141076521161796 11.407424171162193 10.264732360348175
Na 9.597750431228764 12.521273560919125 13.21348634140969
