30
Energy = -31.33234105 eV
Na 6.488266830032393 8.483352829997722 0.8410289980759063
Na 8.730658545149335 10.999720262003548 2.2381619831341113
Na 9.907628426154767 3.9584311470449993 3.401818722659248
Na 5.102692433318541 11.29445676109478 2.879294073857716
Na 6.579777944366528 5.324556524205011 2.8772620878638304
Na 9.76704155731378 7.444037826236419 2.2626216825823833
Na 3.8349995557475673 7.756483667051802 3.368912401026655
Na 7.134214785540008 8.855127681769792 4.225512328011648
Na 9.056814695679003 6.297016397124012 5.611241944875689
Na 3.5298397244782973 4.194928698954033 4.720475186144011
Na 7.5661816613349995 11.989332845832905 5.538070385502993
Na 10.51042695864014 9.728236502240483 5.444056956216788
Na 3.9389335808705503 1.2841381372108356 7.041068897327758
Na 7.033151764956011 3.123104808133694 5.780586663535543
Na 12.311813104479258 6.687059048357986 4.716390999933706
Na 10.944079913094837 7.4720321444978675 8.302555639796992
Na 5.649981968905808 6.640480926593585 6.187196004412727
Na 1.103130123382838 3.6071214300641916 7.524040026505367
Na 2.115697165087369 7.155755740952536 7.051053976069368
Na 4.468394996507813 9.99697749864626 6.4379194809376425
Na 4.412535665755628 4.4253211792559695 8.2592376388157
Na 7.809829311405955 9.094316068658257 7.888248545583757
Na 6.79651260887502 1.8542409598399057 9.339520541807762
Na 7.898867212933175 5.242864724853609 8.63054297467301
Na 3.042272964963951 2.301791702170849 10.408959967103973
Na 4.816867804209775 7.8960503340351815 9.520947124466959
Na 1.9424132472782856 5.781869149399936 10.330630665536932
Na 5.522694699859725 4.890999192795192 11.558472212665174
Na 8.972480283008192 3.8220768683415947 11.494650376039035
Na 8.063317260974927 7.44963573694135 11.171038309141574
