31
Energy = -32.53338515 eV
Na 4.2169026905432485 6.544911178236418 2.5493760851990075
Na 5.649643688639954 9.952706887261613 1.942364607501154
Na 8.11702623548118 7.062024822130683 2.8056385414925162
Na 7.00116852215783 3.525256624896352 2.518222313710916
Na 2.4408572987190547 9.502486453997788 3.9344744342720466
Na 8.753168910277369 10.541457959301647 4.5717241493095075
Na 3.2516978597311943 3.456001714177576 4.374252872318423
Na 7.278335507258455 1.898744441105328 5.96099711664155
Na 9.806433046706077 4.389660663952485 4.797704388937663
Na 2.8803910598380273 6.697360425770832 6.039024526633208
Na 6.189742825751443 5.196796903923431 5.219908931694519
Na 0.688582889484039 5.961111237559139 3.6372725244820128
Na 5.7218849439016415 8.68852768535007 5.031171229133335
Na 11.738406314622884 7.604362188758515 4.692103929565856
Na 5.154053363490158 11.986465954920222 4.974015253205277
Na 8.835223331487063 7.483332023556428 6.347810081114916
Na 0.7244929366354299 4.332628828564122 7.042808851848731
Na 3.5817599797960185 9.922780001989743 7.57591986740195
Na 4.386752306407349 3.5815679785313748 7.937152732812547
Na 7.309752999591851 10.334780229564409 7.989056434921918
Na 5.7519844234818205 7.054957997069212 8.16279078487147
Na 11.074045919862575 9.61234264730525 7.7045847507571725
Na 8.196552611185512 4.532869339637925 8.088792800804566
Na 10.547577911588274 2.1361463017042155 7.817723035254356
Na 11.627107250942707 5.765812572959854 7.904950904254753
Na 2.5451316849309964 6.483428031870719 9.467600946459545
Na 7.36229014981992 1.68011156669714 9.704570539381262
Na 9.010869471143787 7.6248907312834975 9.94732814941971
Na 5.350774559367897 8.865935988478368 10.849002149684049
Na 6.370744479067463 5.081959170394226 11.033305645408845
Na 9.973857427211653 4.03579404817464 10.915564020630603
