36
Energy = -38.26431853 eV
Na 5.133214626638133 9.157578967742385 0.4177730229228711
Na 6.369560359839351 5.560366930112777 1.3125059581194805
Na 8.491264625652722 8.45673867065601 2.1947173003592972
Na 9.784762485524338 4.296699846089657 2.574806194341732
Na 2.6712247751062375 10.535700221101154 2.86045031640497
Na 6.332930138562553 11.46014328593062 3.2342674536985254
Na 4.945201812495985 8.109327376113196 3.4828100897959304
Na 6.901828284325777 2.4087915289756565 3.9052784523726958
Na 9.93318959751425 0.8222024825834477 4.237497426822027
Na 4.0522281696639615 4.68489727758433 4.2964462692121
Na 10.103959048134913 11.12838591853105 4.321023608254381
Na 7.535039788162647 5.9055966191721 4.5007039598657625
Na 10.718910001951736 7.425240267653861 4.981379726787487
Na 0.8721666114340844 3.7936267068108345 5.398457685189293
Na 7.590770478515282 9.278152870819657 5.576954878555552
Na 1.887955394338264 7.5908290040664905 5.339226966959614
Na 9.951380823971993 3.7156153435407027 6.311263159455486
Na 4.218622509361045 10.644399244485625 6.203516721259885
Na 7.733538066418352 0.8479112223965678 7.231641841181457
Na 6.371184646706711 3.9246192559820514 7.091943163707764
Na 5.059130491470005 7.262585762449 6.755312684386255
Na 7.595434311557581 12.39844415190562 6.713431620901175
Na 8.785943783025541 3.6779296985227528 9.75938436852898
Na 3.912946347990713 1.6093333490334554 6.427165212848049
Na 10.23628279829756 9.768438410504682 7.890582845096598
Na 11.572758200135468 6.164744933530423 9.026447081437295
Na 3.004625441738906 8.412456500273494 9.340695895283169
Na 2.818739834191644 4.7628915816652 8.070027782509976
Na 5.741453228724189 6.035224330566243 9.797507955797256
Na 8.532144334609058 6.676349452706636 7.759307715381199
Na 5.138435506323129 2.4502900357729427 9.97353262288909
Na 6.576504286734819 9.676000728539579 9.087919107636385
Na 8.851550144916168 7.175130186355448 11.158179462135175
Na 3.0002407224402403 5.285713918107776 11.699233029062958
Na 5.101908755256011 8.179361947039245 12.332871039226694
Na 6.458533364456507 4.703845768866101 12.721301177799297
