36
Energy = -38.34427513 eV
Na 6.524108854025574 7.057182208984225 1.6983861550388084
Na 6.755720555452307 3.069732613196922 1.2822190428234435
Na 3.738572900527509 5.049834329669154 1.022468999756698
Na 9.222380863005974 9.394674953124985 2.062912073960888
Na 3.379799258938424 8.536674144321827 2.22966526752659
Na 6.322990130610939 4.59152475478195 4.290893154113216
Na 3.808666134804318 2.455892864180239 3.5076624923839756
Na 8.90586825921736 2.067509637240371 4.137426686820336
Na 6.183110753947993 10.36887198500605 3.704512638359909
Na 9.583919095340182 5.263328757164347 2.3860871820246
Na 9.329348510119717 10.685852355000167 5.633668098016059
Na 2.126427589137638 5.759600372126904 4.1113186653455545
Na 8.315930043604704 7.411088577777683 4.816451681321491
Na 11.622856871654964 7.862776573763263 4.262261749034795
Na 2.8898981934400507 10.312804025027516 5.348414681043497
Na 4.7645881525672 7.440793757360374 5.512557640676993
Na 10.78616960530443 4.629767821643539 5.740438402016318
Na 7.738797724639282 5.159785940816456 7.727038876219033
Na 6.053669820345572 1.5744482146454348 6.225442177575522
Na 3.5411500845623363 4.012822729265584 6.8313321349043274
Na 6.046334769574445 11.937795118892083 7.031299511198617
Na 10.589773171646035 8.002854474551807 7.753308085784852
Na 1.7812450268491034 7.229163248966827 7.572290511132282
Na 7.058713290643953 8.807220524519723 7.811123123088626
Na 2.438351594898452 4.499742712197168 10.23309154126116
Na 9.162091439643222 2.0091580283972035 7.95028122439293
Na 11.0878609633531 4.849606382518579 9.300239474111606
Na 8.97756677771482 10.903846242253815 9.447107794737303
Na 3.568044550565523 10.079616145088705 8.762545611136513
Na 5.583336723051968 2.8245182258791126 9.585207282298256
Na 4.904286398565073 6.555920431231555 9.13370471642162
Na 5.9719111668641665 9.393557878867568 11.204707452310226
Na 8.644469391209087 7.180978645558042 10.704734717138003
Na 2.611005258246362 7.872435887982099 11.434791951973155
Na 8.459884662637531 3.6063975852408685 11.30301867377795
Na 5.573644441780002 5.594714881247346 12.293883558763998
