39
Energy = -40.72557969 eV
Na 7.1412121661396935 7.28371528224912 2.6695077665420417
Na 4.378354931692135 11.928007066641024 5.394849370638623
Na 9.634820723394181 6.1583301341213925 0.6248381298199395
Na 4.98086274706713 8.505412279708853 5.049277282828286
Na 4.5643744192956355 11.505347088182877 8.970478066132323
Na 9.473529760122112 9.673396004701335 1.3690870546760723
Na 0.1881574828053518 7.238774010128908 8.185728758480929
Na 3.287693433930579 6.246401635170382 7.024217115065463
Na 6.248606635529702 5.392810514259912 5.5932568051194
Na 6.923454485538664 10.792151546272375 3.423657685353815
Na 9.138768935096778 4.542783921422707 3.691379004221218
Na 7.412294389057256 11.183191539891823 6.90304064095953
Na 2.2800650533416182 9.673117062361797 6.9457878629206595
Na 8.623475184908692 7.9764357684031735 6.064574614824124
Na 11.140455350401838 7.532782115090017 3.571641985611457
Na 6.0869544464301235 8.168230937596435 8.40641445392049
Na 2.9088481237502455 8.480085911198227 10.15225219774959
Na 2.1472165103230694 4.857754711632927 10.06126268727121
Na 10.244548847333668 10.886696609528963 4.58477619096099
Na 10.808637325995667 11.982514145630063 7.709799233596305
Na 11.22220772870601 5.414974360726398 6.269962754708706
Na 8.30941022638882 2.7041789213026095 6.594096929618059
Na 8.392425945748899 5.492618061947276 8.80033197566073
Na 5.278840924626847 5.933375600120516 11.025650537896414
Na 7.580387350550535 12.323628614726712 10.250559766789678
Na 5.829232165086969 9.521133757382037 11.68275632433567
Na 12.107354949300444 8.810105410301473 6.766313982011485
Na 5.264186635952874 3.5916948507281985 8.422659234554857
Na 11.15519678814887 2.932184884558967 8.658364974442993
Na 9.383188790992953 9.226379002891411 9.449441318701393
Na 7.935852466487473 1.9858652827646088 10.09622322984905
Na 10.859538717030283 12.683249356097917 10.99162379890006
Na 8.193150568644846 7.041525144215167 12.00666736878618
Na 11.86378384221448 6.560243805697803 9.33166150785523
Na 9.041416941806656 10.32805082715912 12.878727689535317
Na 10.388860294442951 4.447288605256465 11.650506657465344
Na 12.894193430538529 9.945301340955684 9.99764707835744
Na 11.512267964083517 7.753289923626597 12.472372105572191
Na 12.525809299538693 10.906664623330466 13.434951884967779
