32
Energy = -33.54842563 eV
Na 7.808860876854936 4.24087454189682 1.5534306261211335
Na 6.8327651130875084 7.966231046625635 2.358481047410481
Na 4.926644977804761 5.021151908234676 3.7798106046756415
Na 12.124237340014927 10.0018732942957 4.426345498516709
Na 10.519732829635121 7.290748496767691 2.387431307047869
Na 5.412838227405126 10.820270216669394 4.573391427390253
Na 7.342392681254921 2.3260173841515246 4.5370603059199155
Na 3.9908685415330876 2.1716675357351187 2.362982551682782
Na 10.882480801350784 3.7486900450340985 3.609786108118679
Na 5.846218767915775 7.761038832154867 5.780163330414189
Na 8.393265142090607 5.704019299628741 4.635197987949178
Na 1.344412736636408 4.5350422102969254 3.905064227760629
Na 8.872058191232254 9.44391658995307 4.9688683501033895
Na 2.886158933894396 8.076891143848338 3.8788262081890568
Na 3.356522610324283 2.546581336124351 6.081477693389528
Na 11.694542048347257 6.63497606183031 5.889105285296206
Na 2.9720608298957916 6.102650500717491 6.698675842578165
Na 6.19197468567713 4.276497085393317 7.195461042390539
Na 9.70518631951829 3.7482792332805674 7.244774674329875
Na 0.27543552792568105 4.5718328921508835 7.543170262886321
Na 3.2598299335481986 9.624542282413438 7.555504401153656
Na 8.583897622727331 7.069640949676199 7.805090869001798
Na 6.933166392224151 10.284488531277287 8.059326779568035
Na 10.882983756046013 9.633288323520757 8.00067153933807
Na 5.325421248964139 7.1711464373381535 9.179213314193476
Na 3.539867078255886 4.060607749759659 9.59496868813342
Na 1.8653695873539606 7.284151188343443 10.004813455850538
Na 11.2588498480288 6.301591904436345 9.582151893296992
Na 7.728397725528938 4.802836920495364 10.376733084589038
Na 4.516625648371046 9.85070863053035 11.126743352020382
Na 8.096217629904677 8.58579310300798 11.017342127595377
Na 4.656315904407361 6.367553882171223 12.313535670848065
