33
Energy = -34.67251925 eV
Na 6.055754053113401 7.126824855872249 1.5925564895189654
Na 8.379867288130107 10.14438751073346 2.2801890778775067
Na 8.052112770989144 4.144535559590674 2.8749708267225142
Na 2.5825931411278 7.953800449402284 2.1824377064285834
Na 9.86851876775758 6.908674375766074 1.5616734940072374
Na 5.204314335622024 9.913556075097098 3.984327427729133
Na 4.006190792624116 4.208826709314333 2.7365259614049506
Na 8.086321991742139 7.453518271203744 4.485902625464515
Na 6.363216694716723 4.607163887251593 5.763625367064479
Na 3.873450082055215 6.654091293956255 4.984094755959652
Na 11.357057286552834 9.088927308863868 4.060008234940553
Na 8.479856374368326 10.556114238111949 5.976886114061722
Na 10.988460593435985 5.615028461163995 5.041126062373976
Na 2.2455110254365307 9.337307728552942 6.040953554653587
Na 6.133163871754513 1.5557062427840431 4.6391300821788395
Na 0.7110349857481639 5.7524665855912325 4.5068712863536495
Na 9.164350060514867 2.833592652956325 6.634770686857089
Na 5.883228666652901 8.240862097020972 7.10549262957579
Na 8.522744258011425 6.195373853682779 8.045110496725949
Na 1.4916432071587005 6.322722125834456 7.9620696908556345
Na 5.947978731234025 2.016025866402866 8.291636676266801
Na 5.285688555831572 11.427013512961551 7.55151626832041
Na 11.671939383434223 4.78193832847697 8.548523195242439
Na 2.9905723866258835 3.3596156618729456 6.2919906237057734
Na 11.133189480884786 8.41896541360665 7.628710066956054
Na 4.796328259225764 5.253465386109646 8.782125500015182
Na 8.61127963706279 3.68334587777415 10.401326138316014
Na 3.8633646331863725 8.739451453868714 9.725120287743147
Na 7.975786979082116 9.57976119664011 9.478951054040472
Na 10.215317337571268 7.048991144115997 10.954163114102549
Na 2.8098402657204304 5.814116918178722 11.461549848905111
Na 5.321635928988745 3.2429837576714355 11.679128514832932
Na 6.5848873949397015 6.678044420870604 11.403735362099301
