38
Energy = -40.42055269 eV
Na 7.641095683550684 8.820239743815314 12.398559571686349
Na 6.506595594770103 6.332606641652487 0.8241717220078293
Na 6.531543861617147 10.052965368132254 1.1759516881458094
Na 9.774240891122753 8.505675009920843 0.7758155068600031
Na 3.3387021015216622 4.264009856605215 2.7746934181669607
Na 6.757883296949553 2.73132791787326 1.9520528911957795
Na 4.082244023477944 7.925604250253585 3.388678674822285
Na 9.633617901265183 5.129136975944484 2.600906595429561
Na 7.948602277463045 8.177381567663854 3.662119620604786
Na 9.30682777128029 11.25695685679588 3.348856287821043
Na 6.452982932109258 5.1445751590668465 4.147432378716201
Na 5.740845754493183 10.836119988841102 4.8542114106393015
Na 4.769547678601261 2.140400151323402 5.554903267043325
Na 1.2371896984937283 3.0414302273976968 6.007644571202719
Na 11.38986396843767 8.296087155246376 4.200389759333708
Na 0.7897904760403631 6.503301424357405 4.678207177953862
Na 8.544545203156368 2.5706168894546084 5.338184101055339
Na 3.5775936955143504 5.451409020466063 6.105523713187084
Na 9.533602524672549 6.001075690271987 6.145235137650963
Na 6.161516450902342 7.810093217230709 6.411760471918229
Na 9.15252274045028 9.864982719083677 6.916848593972525
Na 2.9290642096714365 9.021852162025253 6.732150145383099
Na 6.651402196351241 4.430568674389115 7.613044601247146
Na 11.453832912754033 7.543390729122417 8.738973479014293
Na 9.811373593784575 4.106525526177507 9.231225145556042
Na 1.116011955182164 6.04173531596819 8.519897895933752
Na 5.878874619203874 10.17811030712889 8.950181443271576
Na 7.164274773732418 1.5519880665577477 9.2799487821531
Na 8.058680869540709 7.202338451760199 9.245110921744965
Na 3.6245291072364125 3.1268277664523527 9.007207707886034
Na 4.548505274330388 6.707033309980141 9.25930906733858
Na 9.321434197374245 9.88180479805555 10.794107391936508
Na 2.7425762974093044 9.092423381952127 10.676546413674288
Na 6.506883077055662 4.500543516558074 11.313596071484517
Na 9.735090974726921 6.318577476104957 12.114082725883087
Na 6.175485160193154 8.109667880580954 12.128024243332185
Na 3.2534507080247597 5.716975332824061 12.160793486207155
Na 9.20580218822907 2.662268113655529 12.398559571686347
