30
Energy = -31.37536404 eV
Na 6.228179375321815 8.119292821821869 0.5400316247541381
Na 7.7302773221324355 4.710347928301504 0.828075159600768
Na 9.589454167569262 7.642038409074294 1.8937595127431444
Na 4.1369841440389115 5.1319966709055596 1.5704478497352103
Na 7.123085524548379 10.019012066811268 3.696257421386149
Na 6.712389867819322 6.553776458906269 3.490011382455894
Na 9.637500333302901 4.560078798102961 3.940345027366656
Na 3.6585131425952744 8.463851230234782 3.3446209665085815
Na 1.03877508906155 5.919058270627687 3.0789849489324475
Na 6.113471541225412 3.0101816166881634 3.824254366528469
Na 9.424129148674691 7.894331185466946 5.646649254778408
Na 2.619509693797522 2.6307164007592836 3.7881096534775143
Na 3.561066662408939 5.496517089884484 5.411180888865995
Na 4.5474375494994925 11.259830805117115 6.233363911013241
Na 5.606513814184984 8.23407433186976 6.4359415997491976
Na 8.04444151122997 10.623879262181463 7.6754684699626745
Na 8.47060358546257 2.149386605142061 6.731092427672087
Na 7.070439804665641 5.116154052339466 6.576995829789822
Na 4.6995498973436165 2.7373208035912593 7.485661346186918
Na 5.141711785417876 9.49625592711155 9.844167659075953
Na 4.321935972054361 6.0783369336138 8.930135031104939
Na 11.166521325743508 8.6605904855665 8.892002125941072
Na 7.939677744965515 7.391006241929034 8.994738194781695
Na 10.518230618364285 5.157344035678837 7.956416293632306
Na 10.064398233361016 6.285967398676425 11.408579075360826
Na 7.431869717500156 3.9522803946488048 9.96918787339246
Na 8.661257372273397 9.746397396817077 11.30620092833499
Na 4.2897396116079225 3.871427928866937 11.538049744767477
Na 3.0062250492226776 7.346970623289039 11.872536181437837
Na 6.474164669432034 6.769632100801954 12.124789525489271
