37
Energy = -39.56834574 eV
Na 7.325007083966553 7.146679619350391 0.17361523450344207
Na 6.296128335474562 3.5769539348410855 0.5522176372954333
Na 9.85155678491655 4.675698764914824 1.2641209574002523
Na 3.929513013032597 6.349032067229529 1.6584184263160282
Na 9.754990273036489 8.263285689312752 2.8579720802057946
Na 7.18444682295301 5.68112085745377 3.0635686792300354
Na 6.068357969939282 9.284550593445006 3.0862605862873242
Na 8.148113974801182 2.2361663371055904 3.653703068815598
Na 4.439494445872043 3.2162101633951536 3.752866536185385
Na 2.5081670291467684 9.407528181504642 4.491167696015018
Na 10.372561211394265 5.082200341947259 4.966248879359608
Na 1.5585006160638704 5.487044386354043 4.299168357902478
Na 4.563987171778196 6.6604128181427456 5.130006124093171
Na 4.853005338616735 12.413406752632287 5.017462335986245
Na 8.355496559623624 11.22968257583395 5.35987819680216
Na 8.052628011502984 7.727224044628365 5.814886972005523
Na 7.0156107921479185 4.343348853086318 6.127538037811627
Na 5.751099090277047 1.2288052455639205 6.777609766436259
Na 11.044059252160306 9.12384543135901 6.568120901373752
Na 5.353762337837584 9.708959435109392 6.746189743487098
Na 9.520015388279166 2.368278840605825 7.489456086951734
Na 3.383230200139328 4.088712068564596 7.292905091811903
Na 2.4377200696421686 7.72008640856118 7.9071812881788555
Na 10.19170579027742 12.289016639431189 8.220374100884563
Na 2.6566881543302556 11.434720039689067 7.802934952211667
Na 9.663656801496913 6.001038958280434 8.496565852524462
Na 5.909364770163366 6.867101215641312 8.429585927668487
Na 6.474012644858463 12.48814575451146 8.419834330372218
Na 6.621104214102827 3.785287361800375 9.335378745314584
Na 8.362650301298483 9.460977872552803 9.145899596359538
Na 7.369945426907217 0.6812389466832302 10.176014155202187
Na 3.824570529631526 1.8574096833505036 10.097316900801873
Na 4.759374352074495 9.499558985735966 10.317027485472636
Na 9.569330671240994 3.5131365485050132 11.144547158099744
Na 3.7182866542245763 5.601342082309495 10.785498687601862
Na 7.459065032826255 6.694654185191129 11.51409195864786
Na 6.161650609060484 3.3159960404711595 12.573225189477464
