38
Energy = -39.47250011 eV
Na 14.507019040817513 9.271030393387809 9.643498741764725
Na 12.653646712389325 6.3659654779250765 9.255258922335901
Na 12.382413746465982 8.26471548149802 12.130643102699084
Na 14.996470548945723 7.231330127548342 6.648899199478891
Na 9.790885680290591 2.099264885096807 10.980399926728076
Na 11.42466169236662 10.991447177441161 9.994740256285262
Na 9.783147532815576 5.836019547312819 11.675457122344447
Na 9.177507705307564 9.535403772177808 12.252462003284354
Na 11.284785317957853 6.435260620115218 6.057453968894637
Na 6.835108249459989 3.7918470443947916 10.81107401110733
Na 12.404365622669925 9.628377086971318 6.850391080786054
Na 6.481531534645936 7.239843859426586 11.129514748940986
Na 8.21927840699226 12.12420478039682 9.892675720935987
Na 7.02292690723792 8.079865113627708 14.386315764939281
Na 8.53795644421354 4.444667922426491 5.117627838927998
Na 10.11428724119759 4.3274870800818555 8.379966898228023
Na 13.345635346725631 7.7569142203381745 3.5896965878406895
Na 7.552591660931922 2.2513102083389445 7.6714975155840115
Na 9.570939600375711 8.169111361732835 8.869770035510696
Na 8.11597855589298 8.187880825463106 5.532469153727886
Na 6.886770790117521 5.95848495207398 7.937274518040316
Na 3.852674629970426 5.100823714663905 9.816195256019078
Na 10.658923528341465 9.97846007005531 3.6949926887821696
Na 5.641853846156356 10.442103393414635 12.041640160540187
Na 4.557228118277459 3.68420903383547 6.696609696657178
Na 5.472388670816399 6.113155377897786 4.336950627149811
Na 9.43766061473804 11.172702020036816 6.855560485399063
Na 7.086536092663447 8.264614752338925 2.173044568149356
Na 10.128774825533124 6.5785025469004745 2.8207866702696456
Na 6.2611012214145365 9.519131700270197 8.407040644464864
Na 3.2318385448690417 8.498304419700224 10.27582208934875
Na 4.936178283322248 12.969888326150906 9.699996921361194
Na 3.6012636626085146 7.271160220342251 7.028457538834654
Na 4.7702185803221315 9.631983145895513 4.879071917067956
Na 7.577249109238663 11.313843053883648 3.7220758806283505
Na 2.1386024410325533 11.617584223567283 11.137249293359913
Na 6.232041262465908 12.492194322497928 6.645852545836019
Na 3.020676553437308 10.815123476706955 7.612016841903604
