31
Energy = -31.61478044 eV
Na 7.833749346681008 4.467091972982234 3.5672576752945306
Na 1.7365811150413248 3.510163059231069 3.6482809066369906
Na 4.44493001344149 6.09160880286381 2.5184076936022537
Na 10.905222471983269 9.785062964863625 4.247448581970184
Na 4.687086365978973 3.7641205777283107 5.230788915526165
Na 11.102919172733383 6.271982881083467 2.882987185833706
Na 4.812718338905357 9.73551367149913 3.7588480299792897
Na 7.96940860362426 11.759858011226427 3.09566004184786
Na 7.957583413602043 8.193817360672787 2.6434870098181795
Na 2.3339541898961578 6.776978485908116 5.338198703537694
Na 10.61526511748847 3.9259669849190475 5.786504700484933
Na 5.603120750327332 12.716544661384875 5.709435710235005
Na 3.2131953759388727 0.717957138931725 5.743812575178092
Na 12.71683337738039 7.091316596335405 6.150243896371368
Na 9.365145313226007 7.092010973642918 5.817840789862333
Na 6.000110413863792 7.024122980779118 5.441043103527163
Na 7.801475617297595 10.215287064882999 6.146688641823058
Na 7.011560922604552 1.2511062773801218 5.828475399628341
Na 1.6595964906824319 3.673801013971276 7.331099704874394
Na 10.713075466283977 9.405608615874392 8.231398444594028
Na 4.128750766303298 9.378978253650681 7.40716580369736
Na 7.551796230823752 4.32731836488288 7.4158915717958145
Na 1.3343608187263545 7.0841914080719 8.855785519383403
Na 4.381977319734409 5.773482395779942 8.194741904934123
Na 4.812376333084815 2.241168820249664 8.649116532173094
Na 7.293629301955638 7.913069567910339 8.772280682805292
Na 2.867414258583531 4.404084339318468 10.896022049333451
Na 10.404781761964653 5.871663538304821 8.973985060028495
Na 4.185121973657462 7.814735247684923 10.97195348653764
Na 6.66217364233828 5.080614294122715 10.828036607521309
Na 9.420874352309061 8.167562310323337 11.443901707627113
