33
Energy = -34.7856038 eV
Na 4.717096502444975 8.536970003750483 3.4620428259734646
Na 1.7582133324793314 9.904439969312367 2.861261089977596
Na 4.784018162509861 11.669429902883607 2.0503153989795435
Na 5.757125154098766 5.046950659614641 2.716719914556677
Na 9.585473683286438 4.604147663524268 3.4550414728895675
Na 10.039392482219485 1.9923405862834507 5.961401769538736
Na 1.9322906340716173 6.163728125986764 3.5099004999855223
Na 3.691701895809693 2.679414368477705 4.881028918420761
Na 7.278000311743569 10.819785825473637 4.824257748057502
Na 10.961041666145674 7.99533538025074 4.859202844964799
Na 3.7374236660769715 11.63664946842194 5.563258698221789
Na 7.441560406818977 1.6279703575699775 3.280458573907797
Na 7.551569203065434 7.269441532580548 4.906098905924318
Na 1.8057323330125523 8.582112820704625 6.36693959779172
Na 12.731787494820763 4.721338042644792 5.3978504775484675
Na 6.96475849990808 3.791331757627665 5.840828493949438
Na 4.262265655076836 5.993004991610999 5.9686055978351735
Na 1.2259231930865944 4.902214471272996 6.977506793040647
Na 9.752467278939168 5.497493446372819 6.957252712170083
Na 11.814567321673234 3.6384123118987226 8.819209390818788
Na 6.599399310438374 0.5580324409159274 6.685967747040077
Na 5.255956286052499 9.031131003693543 7.14888387157518
Na 12.425003216557077 7.189624471570054 8.207556189041595
Na 4.523319849364726 3.3755985964269977 8.52511364054546
Na 6.337340126175998 11.959829440923233 8.337756699125675
Na 6.6849484653136475 6.172753316670114 8.475249484697043
Na 8.86832033121003 9.052647689197851 7.922505251920663
Na 3.054758725566362 10.554448533559292 9.325642924730968
Na 3.155315768950331 6.9073365483816636 9.437746967729797
Na 8.149997094813502 2.842637426562204 9.19419418313277
Na 6.020093550759361 8.90586773053674 10.628602765122933
Na 9.498739197502871 6.0832392006045115 10.481163816486855
Na 6.178026519562227 4.837969234250156 11.514062053853452
