39
Energy = -40.39507179 eV
Na 8.474897462019053 3.4151897708954984 4.021269634252895
Na 11.640518980552603 4.56402856485987 4.394038738566665
Na 8.403731997161323 1.349341254415991 7.2169446755954585
Na 11.770230021089153 2.0639933739139833 6.595581110282471
Na 12.639124137539559 7.7546956576081865 4.980084975527116
Na 9.186016016617186 6.937263760705244 4.2294041259253845
Na 5.785863450556144 5.998328964732552 3.5066940655843046
Na 12.331040443361214 6.024481380759162 8.219787209547814
Na 9.276441211258655 4.8921082939567935 7.174057159130227
Na 7.574607347868044 3.434634617501083 10.00093418205536
Na 6.045729870338173 3.7000798717379046 6.655191789488082
Na 10.980808366883442 3.1074514390206542 9.768573508146208
Na 3.3694698205465983 5.591375511065589 6.2559798583846975
Na 13.940134652274441 11.031809703742084 5.050477179275192
Na 10.390942656788225 10.280428618980478 4.331069838336821
Na 13.989601716006334 8.99661023085069 7.96066669898935
Na 6.936692816399548 9.301573162421398 3.5226911000242547
Na 9.69851247925076 8.550306372701689 7.484637942744125
Na 6.552755765647276 7.335218381089276 6.742504630813315
Na 8.082308065723598 12.523696024287268 3.0176847166259377
Na 9.811240237275657 6.149686069504026 10.687623896135719
Na 4.821007877591343 5.460011161971291 9.603429871017884
Na 11.602473892172465 9.175551676113324 10.329668788083818
Na 11.648356950661643 11.668409004719555 7.588267517588485
Na 3.833844624944478 8.79383547926902 5.064393855448942
Na 7.052067884962564 8.203794766651695 9.984686352150982
Na 3.4105286007727296 8.36276232359678 8.41275090378814
Na 8.466411052967853 12.061407381915112 6.456229955770283
Na 6.834499716770843 5.7883226061827955 12.53968513933237
Na 5.859267693346821 10.916231671214472 8.254894718053562
Na 5.348501445087529 12.042743259408411 5.02113952493483
Na 9.131637780418133 9.149369073234183 12.592015345161272
Na 9.015172385445645 11.551345366012793 9.837492139009386
Na 3.871064163351109 7.9537022345145925 11.846771042025171
Na 2.53209981876911 11.504554703789037 6.992189369751568
Na 6.281339646810039 11.299135290451693 11.764286870837319
Na 6.2205537373742406 8.841743314802107 14.309683409600591
Na 2.957634140996761 11.245462946767079 10.403268188977705
Na 3.4062809886221332 10.851293105784988 13.832726898863136
