32
Energy = -33.57468655 eV
Na 5.68882781150509 3.344174379923646 3.5795690735938157
Na 3.318746405411232 5.685359895613175 1.882691836292686
Na 6.859625241874749 6.710801601416887 2.7029313461084143
Na 9.086216356209647 4.540193911036387 4.489922225345228
Na 9.911808899387472 8.127233381904565 4.301696139689346
Na 7.556041629588002 10.381289541984668 2.5247902924805947
Na 2.0443564797050597 3.4382121624583464 4.538138635433951
Na 12.121648867495537 5.868928414748167 6.2455566064506804
Na 2.1740798931663514 10.329273729237336 5.300643306030467
Na 4.11362383132238 9.14958910731659 2.687153711890322
Na 4.25335356511493 6.302705153685657 5.103080017231549
Na 7.965187321287927 1.1337230095396411 5.5523538485582025
Na 0.9782266522061581 7.033880540477148 4.386466887077386
Na 6.637044795483799 8.901853577048126 5.475307109174366
Na 5.330238717889208 12.118098722579997 4.772974719599098
Na 10.208272173179944 3.065747187338074 7.67475494558512
Na 2.189595539295648 7.7975966437955595 7.783066643204831
Na 4.513359715509881 10.54459568956807 7.8988093600313585
Na 8.974615933437827 11.527130506802077 5.7650115563528495
Na 4.363689735678247 1.1835486389726475 6.414535776728934
Na 5.608653771142021 6.9862338401024 8.188604425958285
Na 6.626275581523152 3.947653267399743 6.967709005181634
Na 11.319312296281137 9.206052397280148 7.672062635225528
Na 8.975307478052917 6.581361370131798 7.383933225962605
Na 11.510481039264846 6.014091258760422 9.79434476903033
Na 3.207549289248597 4.31664199936968 7.852334332141785
Na 7.870575983585489 9.716135717013692 8.760342043472475
Na 4.6653215868348035 8.226231991955704 10.93297845752475
Na 9.125983847395092 3.492231199913024 10.951967831961364
Na 7.0040426547969705 1.2217958709642467 9.084789621031392
Na 5.6939946852189 4.325007540000287 10.525843105553824
Na 8.204504214115124 6.8831897438705605 10.90619850230564
