31
Energy = -31.67792945 eV
Na 11.51179242211245 7.40705523984933 12.016676643397457
Na 10.290831255845678 10.552501674833492 12.287297625871323
Na 8.5574123029633 5.486307783290614 12.594132737128552
Na 7.306003430158725 8.663572330470213 12.191728750715878
Na 12.8109381755902 6.7915148960750775 8.753082783658316
Na 7.552772250076073 12.434863333652912 12.112926022864494
Na 5.66117704033164 7.920767422916047 9.223137044319698
Na 9.22066191987214 7.308645697059088 9.443348313323767
Na 11.660168975145679 9.92811989223176 9.207488687680401
Na 5.234698757143068 5.433604706069791 11.611593385016834
Na 10.281881645378522 13.115545733510073 9.8422528643826
Na 7.7743429372012836 4.088362553408117 9.505124991896526
Na 11.134864676067146 4.217578075288819 10.65206288243254
Na 7.842924907988208 10.68232309898597 9.14720558181507
Na 4.760080563091954 10.807725094183319 11.118343659701226
Na 7.203124177049844 2.545404563621469 6.599754969476658
Na 10.501931407316626 4.63389766360059 7.178370735282025
Na 4.481131399552446 4.765977120891443 8.10479832187398
Na 10.635190154640002 8.151300541190206 6.19542234424003
Na 4.513504714949142 10.896376834970356 7.751933115015971
Na 10.114548588691182 11.725305691726165 6.694234056084224
Na 7.416561214740153 6.29168658197595 6.564355706626001
Na 5.185430496915299 4.485673408192988 4.649664702307575
Na 7.214670579255304 9.73202603180351 5.793011831898764
Na 3.923483380619622 7.642110764303206 6.298575893107221
Na 9.018942505380355 4.134201913212471 4.15390742031512
Na 8.712117485362235 7.367580033738681 3.379881214505033
Na 10.071061540181285 10.496965977101416 3.589908143329214
Na 4.041097557076518 10.62893848986728 4.41708334155546
Na 5.25711392945831 7.538578552159521 3.1562903352595093
Na 6.8699684423986405 10.410861318057988 2.3833403420027333
