36
Energy = -38.38454845 eV
Na 4.905757039802988 10.707075595133979 1.7031144331440617
Na 3.2812858393788527 7.48317949373341 1.0138267938580041
Na 6.9064303001612135 7.56316624099944 1.7417156255781416
Na 8.392912859675 4.144698088713649 3.3517514031610354
Na 10.283415705894434 7.551899872699385 3.8226122144830628
Na 4.0004251002778295 8.586506373526193 4.094719027777703
Na 7.666222617745886 10.303397526186588 4.122207735012904
Na 4.701799149452419 4.828259272049224 3.225429674620424
Na 6.101584389778125 1.3624377506355498 4.0970148095766765
Na 1.3082051063455848 6.1471843548438105 4.325903870874429
Na 3.8428958511184597 6.200007003900261 6.606925375136498
Na 11.922863615969614 4.159999547871656 4.755640769081368
Na 7.029452017719776 6.948303836266426 5.04664928648646
Na 6.300176673899769 3.7222201516257374 6.37299691523025
Na 11.020109880703643 10.710003818557718 5.3264418291146916
Na 4.392732149556121 11.960209753686595 5.32587210510859
Na 2.7916702544018412 2.9096400207726614 5.940517515742489
Na 9.473553690152107 5.230239376971281 6.74699648374264
Na 5.528809067972279 0.7856475565638182 7.854372000680633
Na 5.581850595474987 9.272821651346446 7.169953060403378
Na 1.9212546413366989 9.207265416520503 7.005985807297537
Na 7.643602199333122 12.038847454865014 7.355509820108639
Na 12.29126373110779 7.189184406728371 7.0042384290348085
Na 9.193329402439435 8.832695663137377 7.512560621065711
Na 0.8604090623194878 5.668950579330974 8.043817977470612
Na 11.880683347086826 3.595519208839531 8.423435647758726
Na 6.75298236832139 6.287136831664972 8.629099851459603
Na 9.269535390178264 1.761326457031811 6.125408567466863
Na 8.240660083138534 3.0683515822997087 9.421212313577561
Na 3.9244131646792857 3.970953329945066 9.350674944400806
Na 4.124106123360085 11.556389625341353 9.064604567177023
Na 3.6110531360685583 7.659748821920032 9.869689960990476
Na 9.972394620126313 6.338278288871054 10.07806460200721
Na 6.967459456159143 9.18403937198453 10.40942003992026
Na 5.510583251762427 1.7485683120531172 11.356441669815935
Na 6.498874743222192 5.410603989502541 11.799930877754072
