31
Energy = -32.26098126 eV
Na 6.17091184917562 7.3166768708998875 12.667977356461112
Na 9.254564478495162 6.396819554675981 1.4836866464732734
Na 3.560983911308562 5.1717677240647015 1.102226448140217
Na 7.456165936800608 9.627514030886045 2.7583271712919784
Na 6.17789336293657 6.23210345057266 3.008508774585143
Na 3.8779345121885984 8.900187728436208 2.34542296793589
Na 8.616808301365118 3.6101046992575863 4.056410929654099
Na 6.847103455023343 3.6877484013930295 0.7068689059262026
Na 2.9263969761686996 5.936842615406224 4.769805046120807
Na 9.056959579723788 7.1883685615519886 5.03470822700454
Na 5.567568954416988 12.012165324865341 4.8949071655058045
Na 6.170377480557841 5.168963821222168 6.118895002029641
Na 4.951755564761195 2.7965104155748 3.818941085629915
Na 5.259041587740746 8.63703499897262 5.4978923349630815
Na 7.267294608308593 13.307224908784153 8.137724761386767
Na 6.917546436521205 1.851073322443236 7.070811814067492
Na 3.467600752507475 3.4238031782930807 7.435660833207917
Na 8.36203366896553 10.501704803052213 6.3456179813384805
Na 3.6110352333872475 7.054311873482098 8.188544426326526
Na 9.521526796445391 4.589775203016948 7.513768284171666
Na 5.209219439835877 10.462060745285473 8.555056259292101
Na 7.3431404056012655 7.6576385295434655 8.155947387917333
Na 10.761641666253684 7.990184439829939 8.22090215549453
Na 6.287602823180546 4.628185988133455 9.380811581406874
Na 5.225586988818952 1.5448266885205766 10.43558943441165
Na 3.293799044171212 4.74209664059767 11.048088147515244
Na 8.727020656024937 2.474496767701406 10.46215190401469
Na 8.37057578858832 10.241713591524423 10.220393637681328
Na 5.632300509390648 7.754785009190299 11.256265133810814
Na 9.119606763527802 6.299918903912721 10.95425028973805
Na 6.493687967342369 4.299076708442766 12.667977356461114
