30
Energy = -31.3487277 eV
Na 5.0077958582675715 7.063553696741203 0.6348056006206456
Na 3.4702546506134735 3.966230237997794 2.2005665956758595
Na 7.25434450899004 4.4683361164761735 1.9278364474808207
Na 5.750308133278848 1.125370789601132 2.52785390693415
Na 8.059849425271066 8.025106953468113 2.8316330484885683
Na 2.00376202717091 7.401775702914554 2.7069607472287776
Na 10.552409608116703 5.350631691279906 3.2043442613426363
Na 4.777021943419519 9.851306454039072 3.0429137602314946
Na 5.070940260166987 6.564598624917045 3.968678192740932
Na 8.78370960314466 2.329772139212254 4.3443052058682845
Na 5.33310001957499 3.0531388865657925 5.250818477257377
Na 8.099753542840723 5.586213847259332 5.43118143681961
Na 10.305280387843453 8.253079465055064 6.072287662758936
Na 2.2817026775482634 5.083661627518481 5.570970858075545
Na 6.852303056062979 9.204469487547042 6.088935312244281
Na 3.273818110943598 8.770179106981493 6.320730122754437
Na 7.637213867175238 3.3623704817903435 8.297516247173311
Na 10.943183434707034 4.962710016718675 7.581186839518439
Na 8.501182107474879 10.401403324434083 9.168781648718136
Na 5.314531787049364 11.714771736891045 8.085593788337828
Na 8.256014136680808 6.961356468093902 8.719032056027178
Na 5.240278776891027 5.971637354295388 7.396508629341152
Na 11.190233744300146 7.915604240091933 9.910382324068541
Na 3.920277001049048 3.101798050454915 8.650616113971767
Na 2.54720349094534 6.453337099340833 9.389774258128407
Na 5.845237662641663 11.055484833503414 11.859589908039512
Na 5.191343903243924 8.671737220544573 9.683928849281976
Na 5.9567677217081245 5.338432698265788 10.97265668628129
Na 9.591059882967334 4.849127856697561 11.124756188333084
Na 8.0014863564583 8.15517147784943 12.047222512803366
