33
Energy = -34.79385372 eV
Na 5.813957930899563 11.78127115746324 2.552803058007494
Na 6.514848823868935 7.977659748719527 1.8124486979351808
Na 9.909220343949753 6.4074584124989205 2.2177764571487413
Na 3.0789664818895845 9.443266799678263 2.7340686107549144
Na 7.671099576464966 1.3292017653263855 5.2386515125542905
Na 10.15107385203287 2.610596654799753 2.5084651420823976
Na 7.0475327095406 4.283671486953484 2.71522049022222
Na 8.94988804045609 10.111368172295842 3.762554868424935
Na 12.769622194679128 4.847867443536765 3.54909011489841
Na 4.268630067988398 6.270945319214366 4.23612513608672
Na 3.2163990590010743 12.128315160809793 5.308823404347325
Na 5.57296731139456 9.59865336544473 5.044041268604311
Na 7.90986454244774 7.007109521305509 4.969630049844452
Na 6.808189640265172 12.644431679408541 5.900586473351434
Na 4.161490181782872 2.5885447288360237 4.65443587986083
Na 11.207427396634316 7.583774432572094 5.52192863747955
Na 2.7689975007172167 4.973094880288999 7.243553259501843
Na 10.043437971536612 4.067157402164239 5.6710276760584755
Na 6.4873625853445285 4.296808754252885 6.354804213815189
Na 5.480888463547701 7.431716013224633 7.489060532030509
Na 4.723234547146036 10.712348272529205 8.439955792560232
Na 4.870420876765568 1.7466874751276857 8.154838897590002
Na 8.462503147168865 2.6573247160753515 8.848020282893374
Na 2.266676857548881 8.591576845444045 6.4515427795152895
Na 8.399735615585088 9.64661766154257 7.528285683129141
Na 9.043574367444357 6.291901804432697 8.438977425680042
Na 5.676557070638825 4.935452139360721 9.637894007817112
Na 2.6031512548744726 3.7280674400116895 10.632694941363743
Na 5.796549821083129 2.3903362758725213 11.746425430410126
Na 2.960194318575908 7.443995435108378 9.970740053457284
Na 8.365309445551697 4.964426919911884 11.76714616952798
Na 6.719470670334876 8.271766452150047 10.62630860870963
Na 4.844442165858306 5.800270496657087 12.835759277354875
