38
Energy = -40.45564296 eV
Na 3.739354186730766 6.316923919355718 1.4208604577693806
Na 7.6905877233105455 5.0923171729085785 1.3810981816366135
Na 10.622181844581046 7.66959716487898 1.3722694599607652
Na 7.021646751192114 8.84581639659506 2.067954469677844
Na 1.165188197959291 3.817245492316028 2.406161905642371
Na 4.715363050397267 3.0200298981201428 3.0151467610562697
Na 11.263756579568845 4.360055566556968 2.8204744142134994
Na 3.8510850000042587 9.193892766570526 4.055682608927434
Na 5.84754075829379 6.1393402207126355 4.030204051078508
Na 6.572536521364197 12.013332975297395 4.2857406869729875
Na 10.025089391904334 10.282976351354417 4.146167161747867
Na 9.29892102266977 6.735893908675077 4.194061528916429
Na 2.186750747779912 5.867061388703084 4.8330336903922735
Na 8.181436094742061 3.1168421454516033 4.583912067697238
Na 12.62398297976891 7.48121151101316 4.556044349082779
Na 2.160674784537048 2.244049612274999 5.728102709962972
Na 7.1497243015693375 9.055503479348904 5.629330177057058
Na 5.75308114995418 0.6219908582487148 5.968800972274814
Na 5.027675414036526 3.847761937149393 6.422483077037764
Na 8.255745579370226 11.624680193159122 7.735650148711187
Na 11.122091856751126 4.811313206881016 6.650678585690654
Na 7.873720555604485 5.846832752145803 7.003667039368866
Na 4.49951210797672 7.290431054229075 7.037496782385742
Na 8.030008254767854 2.561244704100959 8.29627623352037
Na 1.4395394113928042 8.54959809578908 7.281261849312393
Na 10.406207635035809 8.411536811301646 7.42077668040665
Na 2.2709867047647663 4.992255088263091 8.504743364819964
Na 4.554373092619106 10.893363722713874 7.6252003519488
Na 4.460120004527509 1.973820232500883 9.309093766715911
Na 6.001690161400429 11.16032125418539 10.968468378338834
Na 5.817763763548 5.281871800748501 9.564947660243948
Na 7.026478667839557 8.554083526961112 9.040796568989373
Na 9.483257360989963 5.831749480459851 10.120032387333636
Na 3.645107308944537 8.291942572146546 10.320994903894103
Na 7.252884212447387 3.45878586546292 11.995513205751369
Na 9.453161278995497 9.674111815000334 10.873822207958758
Na 3.8291637309831903 4.808920383103565 12.059790985202541
Na 6.741620253268584 7.32130311690778 12.33326860989358
