35
Energy = -35.99147264 eV
Na 11.017021357334393 9.663232763012893 5.244401311816047
Na 10.58697751007663 6.5060791782260115 4.3457498754493855
Na 10.187559579960322 3.1687348146042082 3.393089086959622
Na 12.567349913336866 10.30641747170183 8.64959872728021
Na 12.07508626850779 7.158648955006256 7.6413179743480395
Na 11.383834149533623 3.937273795693577 6.654335460585378
Na 7.968581565075462 11.970098854750425 5.501682471418085
Na 7.661932176383119 8.60897591442963 4.708350369999738
Na 9.60360138119663 1.90674215633119 8.919289976495202
Na 7.301985506433544 5.3248195678238615 3.438154231918373
Na 11.143821714609162 12.750839921744074 6.474673285185467
Na 9.033385134183218 9.766088839865542 8.197786572568328
Na 8.466497093838253 6.419479142763573 7.206712353182127
Na 4.93444136365639 10.719796974706421 4.7134092741060964
Na 4.498895798254818 7.371318431020296 3.558436098132956
Na 7.921713317670203 3.0575618921586734 6.049479632038367
Na 12.097800971787395 13.694878651483439 9.556877172776527
Na 8.506263860709804 13.194084902819593 8.814852588195597
Na 10.22543514390292 5.119527390642358 9.885049695178624
Na 10.96071691024095 8.161241441739065 10.958295194563748
Na 10.241846441843991 11.429783428989637 11.291317685272892
Na 6.637001191964401 3.981616172677527 9.071887715457109
Na 1.780477915267045 9.436876739176125 3.9760184203648348
Na 2.4192504305344618 10.748428887652274 7.186313628371472
Na 5.1750817593476075 5.238987069776031 6.284606354259623
Na 5.548521783627985 8.803479045736488 7.691995368205572
Na 5.303035817892805 12.320364594567268 7.94179869510854
Na 7.213023119475325 7.36413199047124 10.400228329313451
Na 6.611982072674257 10.745503816849165 10.689033331960758
Na 2.4475465016193687 7.32911410291579 6.716318154087228
Na 8.315863390895997 2.9095075531722214 11.936684687493766
Na 8.879138784740615 6.074486684103109 13.124440922518072
Na 8.397741761573927 9.367266396033521 13.293941876541046
Na 5.390099755262545 4.887844282285587 12.212007680760989
Na 3.857816292190853 6.105587417005727 9.46127792420581
