35
Energy = -37.25741875 eV
Na 3.784321657052428 5.6953862099546075 0.8457692381164157
Na 7.119162441471351 4.176532281590451 0.6024795545387305
Na 6.82940476653758 8.00947040293859 1.328294640229079
Na 4.395612233047005 2.5008984444609466 2.5990917857792777
Na 9.520305435436844 5.868820872899769 2.773661519168107
Na 6.243186692570365 11.22067446823775 3.7638652186807198
Na 2.3739158352717404 5.054243642835027 4.285028752096384
Na 3.7512683612346516 8.354361391923831 3.310780182712607
Na 9.73263743779996 9.612409750178353 2.9549162204181347
Na 5.814853455583826 5.422686894460403 3.5777550305541874
Na 7.958156667754399 2.4749989941220067 3.7647731002500398
Na 8.085342776248977 5.1044349855965825 6.075882547249205
Na 10.961971847480168 7.348968621739719 5.760240609368312
Na 7.300018030518016 8.338093968891487 4.862071087742616
Na 3.096402281605614 10.673482898158953 5.748066977084608
Na 5.084202988737425 2.8529874656252927 6.14299674335614
Na 11.043477102519931 3.629454470875873 5.396693231379469
Na 9.492696903020338 10.697940768493043 6.5386088144483026
Na 2.2285915463809314 4.039038588675064 7.6476777655026575
Na 4.562297624965282 7.1999402380367075 6.871635722718151
Na 1.2214050852362253 7.49406415875772 6.749627886226323
Na 8.266515856628095 2.0775285340775813 7.70349507073228
Na 5.996236879904619 10.75285888486239 7.653204406387097
Na 8.134023715884592 7.9207488292230845 8.234355366160528
Na 10.364166681287726 4.958876439513923 8.819345543873572
Na 11.331426857691872 8.532988154016174 9.199630964052464
Na 6.316961624903752 5.083590296816768 9.108622025033545
Na 2.7683305835972196 9.82700168537955 9.146174937660183
Na 8.523916431418678 10.580264906382423 10.260781547214894
Na 2.818203259779567 6.331870664170319 10.14298654333611
Na 4.6324829558745915 2.3443472128389193 9.832985993027934
Na 5.5800331717196645 8.487165066556399 10.751253157620717
Na 8.703427281342039 6.748230452648028 11.483380815683494
Na 8.149017664471952 3.0524196192487327 11.216736194286687
Na 5.361754891918963 5.07894876270974 12.39285983420706
