34
Energy = -34.74116324 eV
Na 12.911120425031392 9.257317054958783 7.852508122212503
Na 11.095632688167168 7.754090056485714 10.395879351611748
Na 11.765913816894384 12.530319422599371 7.008904468305531
Na 11.132761738408528 9.962823432586424 4.984825866872035
Na 10.714945484914104 13.164573494934613 3.7191484507805215
Na 12.716080131728727 6.741617572117643 5.379327174937172
Na 9.403553316716248 10.537335293672747 8.885930354040422
Na 9.734219216856841 7.479402983536224 7.1413135545298365
Na 9.12877801663057 9.779574790971763 12.366988449347781
Na 11.844838307399419 4.70995511978434 2.558591065877204
Na 9.748614470155104 7.440837152411395 3.471551333258211
Na 8.091497518121175 12.837318197029854 11.331087967772604
Na 8.217859232776261 10.709820374788245 3.282107481225898
Na 8.348758788217815 12.570421553218909 6.187621337153151
Na 10.373429383846801 6.871224512324536 13.82144861777022
Na 11.930818454011016 4.837583213238634 8.457449677696752
Na 10.039800308837826 4.274695720551858 5.418505221875756
Na 6.056495122511579 12.168831778443677 8.656971092740212
Na 8.140765983694502 4.7495370286794785 2.3938281181331895
Na 6.892691549462563 9.407697493638683 6.309099197561614
Na 9.622609715970764 4.645350415929922 11.421183462492019
Na 6.190307187027662 7.919041252244737 2.899800759840382
Na 5.784328727488588 10.184484360175732 11.606329560365088
Na 7.047276631740149 6.990752301421241 13.089848459814801
Na 8.241510651413467 4.364670215431903 8.342158187021981
Na 7.356182416018503 7.608780695389049 9.637731648119098
Na 6.970604800892718 5.838946359878852 5.492764228658954
Na 4.112633524884721 9.399531786799399 8.526392064768078
Na 3.9795836675286957 7.618137720631959 5.528417862642025
Na 6.142711397206933 4.216583183133407 11.10541816448602
Na 4.101426578702949 7.2902463789737615 11.421578349359732
Na 4.826393204420456 5.375533660798025 8.130853098805845
Na 1.7788381567272105 6.90811094029781 8.799307867696296
Na 2.6775302507896743 4.194625526282497 10.819351413778085
