39
Energy = -42.15144902 eV
Na 9.263557937852504 4.674935493573517 2.052766672552804
Na 5.669201758514597 4.53765875488873 0.631672882227318
Na 7.001553054465879 8.085466118992942 1.4743741187027517
Na 3.419383783794095 7.290472098819911 2.40620830764141
Na 6.996397948477367 2.0263466080571635 3.265040806668452
Na 8.326968455668624 11.088287082625207 3.9833689587971577
Na 9.216596989483993 7.554429095920203 4.334369123204695
Na 6.255792884046648 5.454547863094773 3.748595230375368
Na 3.1985152770603236 3.6565017643841298 3.4928334160398005
Na 4.708354620133182 11.002750954244085 2.5902243903025908
Na 2.3310321672568652 9.527560462645118 5.259098061102104
Na 3.6209496874736016 6.2672464395129195 5.88973103514942
Na 5.347031328893787 3.068521341783482 6.39141964274548
Na 11.978917712863648 5.3030344737796655 4.7672911173824835
Na 5.768150750669081 8.772258452710124 4.752142846458748
Na 9.20883732434705 12.664138011460434 7.4448098380159085
Na 0.511977117600141 6.130125552346459 4.80166460028015
Na 10.785885677420389 1.77644386889925 4.198324484320215
Na 8.81083922491999 4.094949501163268 5.562560473432695
Na 11.312828015882191 9.845505064589847 6.131582163480123
Na 6.931446307671831 6.399716913653098 7.07219077494585
Na 1.8684053099116322 3.6167983057492976 7.425308944849322
Na 8.023849836754742 9.550555915582953 7.199355822623895
Na 8.181346304199957 0.9031038445825134 6.773086984816607
Na 4.478296588678338 9.03519372052872 8.17398030943057
Na 1.3519171541288688 7.1183589965082685 8.455401846851178
Na 10.419976424410175 6.721837040258555 7.7191721280367664
Na 5.545382130962655 11.958752116437877 6.2518078619636155
Na 11.129755207714947 3.118960618404152 7.83219823239369
Na 4.461968246861868 5.441422488453745 9.096769286632606
Na 7.733635197433509 3.609209126941575 9.128021542699882
Na 4.531702667742433 2.0409459910994836 9.727924298564652
Na 6.693525950476109 11.303414950220215 9.88566858916888
Na 10.175142595498961 9.73451709845191 9.808982203607115
Na 7.1267836132422895 7.748547094177472 10.364208455075424
Na 2.0930335342363113 4.466563589000292 11.229540991379515
Na 3.683867654244914 7.863077426261202 11.471902216685915
Na 9.840537133598446 5.671653628961635 10.97318796483011
Na 5.861102640840512 4.740638346670169 12.097659591998596
