30
Energy = -31.06021511 eV
Na 8.841538806770526 2.946760447064765 12.615123020919658
Na 5.539935252988537 2.309735280271707 11.081038365321952
Na 5.361521532612488 2.9462915527576694 7.488906709206806
Na 8.289036918942973 3.7712368769594358 9.362546954293503
Na 6.553773694346674 5.605745108766503 12.498868209907332
Na 9.851719295055535 6.345435210359143 11.455525647168352
Na 4.066704400120492 5.310279480816072 9.840593617122824
Na 8.265708904639403 4.783481162027006 5.816567741301568
Na 10.810876085391858 5.985707448444905 8.035947223315603
Na 5.529557261075083 3.8742827495174037 3.843769102941427
Na 7.412357007895057 9.129852729169492 11.957698124790683
Na 7.198321228519726 7.150355157681945 9.040272431575676
Na 3.9419159262347634 8.018850653613237 12.12337991625926
Na 11.047136118578711 6.4157636801345195 4.091824451379108
Na 8.679813677427036 4.466899037457431 2.0166617914515195
Na 12.33784274369364 8.743347527998136 6.5822328585664085
Na 10.23059208760506 9.28755077476706 9.373098323096052
Na 5.090507334924842 6.38374111476826 6.326903807760607
Na 8.71348540423268 8.403300493330969 5.9323312727366835
Na 6.75720140524933 7.192341061674911 3.073213910746424
Na 9.599525971135856 7.7872790346858975 1.1169561338410336
Na 3.864892615270307 8.74816437123166 8.720436282584645
Na 11.543781782411076 9.830518104065595 3.321296391620428
Na 5.346901483150137 9.704102762346198 5.196780311191935
Na 7.109549248364695 10.7180966407985 8.37035637140563
Na 4.610323444497862 11.245797329792541 11.072041028360209
Na 10.035781615046746 11.62890005159988 6.14399606056373
Na 8.082096959748707 10.5208742784343 2.9625872712171337
Na 3.996103443162977 12.100751159598332 7.369116360569614
Na 6.794119148758624 12.884388688994617 5.3273473202761865
