36
Energy = -38.2700062 eV
Na 8.558398287731395 10.585400226859871 4.206499540724704
Na 8.732410887694819 10.275089107210905 7.710872224459961
Na 7.972239801419404 4.436163680899959 6.290121586693391
Na 3.202851603294137 9.857119978823324 4.24446253839295
Na 2.6581992944556743 7.012706532689543 6.558792205993908
Na 8.339036766044801 3.233701954473573 9.849247136181171
Na 11.576233536195653 8.236617354495428 9.07357012407321
Na 6.933949419430685 1.708202925425304 4.190602535947768
Na 6.379497927378293 7.845098133962352 5.483076643423999
Na 4.59955689315184 4.179972263811562 5.300294523904823
Na 5.953474759634176 8.733334016939956 2.0585000780605625
Na 4.697217770900983 3.088443759857422 10.855447264990154
Na 1.296558623631461 4.092140659596503 4.568856718606135
Na 8.537902379656483 6.791327338954356 8.758073920532032
Na 5.728508478799546 11.468443613050807 6.133475175321171
Na 11.208551487376772 4.573982475471801 8.06247037866489
Na 5.442391461427895 5.2262862442407645 8.389840895497727
Na 6.713337225593671 6.041072737181417 11.663930152385847
Na 3.94806433642227 2.9347734790667217 2.224953051951313
Na 5.507529169038785 8.653633605222707 9.083626778763142
Na 6.0397487579998295 11.965928947981729 9.59315009045984
Na 3.368922275290739 6.5267358639930935 2.925464441248127
Na 8.554292434658068 9.213471675974597 11.181675544165326
Na 9.602607507045445 1.4486766746797495 6.777932619758393
Na 8.459601281418198 10.817695011457362 0.7154879546499803
Na 2.879928746217303 6.35145149339363 10.232927298016739
Na 3.220349254769948 0.9309740982844333 5.249737161333982
Na 5.89063100544072 1.587417253829123 7.66578772263844
Na 9.402018153401992 7.68382840853906 2.3742371208308595
Na 10.191769824844986 7.519323000966752 5.756096358978584
Na 2.804637538345242 10.41459746268407 7.838704452748318
Na 2.441982594611924 3.2888209919489757 7.9618086106732076
Na 10.338284758734153 4.196724308704917 4.063162978379431
Na 10.394792841915447 5.779675752634062 11.534077160624351
Na 6.860023171198562 5.259936431545642 2.864342671222142
Na 5.662390476312241 12.139123266631733 2.6565850711869694
