36
Energy = -38.17495264 eV
Na 7.80950678861828 2.6658225287536745 0.5586390290882057
Na 7.057159866668453 6.031900489007927 0.9541902500268444
Na 3.4966349284804883 6.763172679883133 1.169147781924752
Na 4.551346843779052 3.307536119477122 1.9916503488177915
Na 6.071200964841429 9.105131435796315 2.737779230383912
Na 10.445585136021997 4.6753231560238655 2.3114499948651503
Na 7.704070271365097 3.22178994391566 4.011427704035426
Na 5.204434344437927 6.020042841278282 4.074311518672112
Na 8.653193881648424 7.000554146773029 4.044249589587856
Na 1.8949328764888262 5.0113277449619185 4.365082724829709
Na 2.6920596700527066 8.52083565956984 4.38646030626485
Na 9.367201697809284 10.244503736975082 5.13941723764432
Na 4.594210315609099 2.950418087123471 5.799414681995753
Na 11.93683010256353 7.437484448140331 5.145343862856607
Na 6.1945435336242065 8.80751048000858 6.290074470485377
Na 4.51068798799973 11.571920825182243 5.253403346165297
Na 10.461574809317861 4.293309847362846 6.120922397349338
Na 7.039841779914517 5.279801496667944 6.924091691947607
Na 1.6855092876780933 3.5035015132112055 7.714580859011951
Na 11.267047630339677 2.5921407520036936 9.188157647725763
Na 8.008215660537973 2.119680333461308 7.739961765214967
Na 4.962661204200034 10.995801823494961 8.920905032905074
Na 9.418280599890524 7.539289727813998 7.539747566170333
Na 12.168145345106954 6.047025193536156 8.92021653544202
Na 1.9772279170432827 10.111738594537702 7.422695399824033
Na 0.3812202967906469 6.94737609866805 7.69179240714406
Na 11.915544967234341 9.728387560166789 8.094781456106558
Na 3.698618028822664 6.50376102123652 7.37903487490752
Na 8.679063216895086 4.876660664721115 10.156441560334894
Na 5.083151402278315 3.829251498458087 9.401108404839134
Na 8.511007518921046 10.724563196860531 8.688415477841463
Na 6.509135511647302 7.742753106558216 9.617365254872077
Na 1.9750439048061814 5.203663661830585 10.715270537226713
Na 9.901186278714663 8.18241080446398 10.96674521664594
Na 2.947931753055153 8.441864149544342 10.383821390724302
Na 5.298361543564254 6.074112499299835 12.254270312889917
