38
Energy = -40.57203075 eV
Na 3.1741903848295783 7.8216207316379585 1.4207335591719943
Na 6.922911140135954 7.494469727312138 1.5464919757871662
Na 5.482974573905014 10.715828737153869 1.6576081824330882
Na 8.246141050398613 4.072317447282608 2.739733564327798
Na 8.548505712401004 12.645670978142908 2.4313397600173174
Na 10.362509336493888 7.029621386107162 3.513911981176335
Na 4.455531804536769 4.913140522310558 2.9765375827541307
Na 8.1516741654728 9.88582188905045 4.303266777092164
Na 11.804486879640764 3.5647178042360914 3.869696222802564
Na 5.766366407722466 1.3799430142862974 3.3266292561112634
Na 3.983895094858615 9.1776831071913 4.480634032774468
Na 6.97689151890202 6.789299471459004 4.826279124384947
Na 1.4006275767300636 6.47266545257488 4.5300095324275516
Na 5.8526444951935055 12.372081157223832 4.723952238683186
Na 9.060160481124447 1.3684292853681936 5.258655270842007
Na 12.61407746383401 6.049363364840686 6.409858396163874
Na 9.558026698218367 4.743933889192306 6.127712911885229
Na 6.33039634594322 3.5349075187536143 5.84706202257948
Na 2.8328335744281654 2.8445849615712726 5.973230860961953
Na 9.653561240240577 8.232223558205073 7.15091658065219
Na 3.8548648446039375 11.724071307078573 7.41907317304889
Na 5.898992125366958 8.984424765730216 7.364622669952436
Na 7.152811197710334 5.823285296296965 8.33732701790916
Na 4.023252778563241 6.052250771869828 6.588150674247075
Na 5.693516896973374 0.4718247813165566 6.892365184822122
Na 1.4107613478442398 5.013662306310543 8.639523490372198
Na 2.036863881516856 8.650878327032155 7.699880861998539
Na 10.371976376133961 5.41667264411301 9.63015541210721
Na 7.833527940357019 11.600998221740937 7.766897255775921
Na 8.29966303495404 2.4790054433837123 8.818100373568083
Na 4.283060073605539 7.122804198979299 9.975765141815618
Na 11.83514574441497 2.6359547983561096 7.566359194914407
Na 7.962902706737955 8.378136258601776 10.557595203552948
Na 6.995615878145149 4.9331755778499735 11.63795693662606
Na 5.058236488676418 10.49181225747157 10.569567808118379
Na 4.6155451910692 3.388882320684593 9.160512112999807
Na 3.163313366117538 4.967676166274044 12.172890212471419
Na 5.417509290948245 7.8421256617576685 13.174962551419844
