35
Energy = -37.28114774 eV
Na 5.890250797234464 7.053350788844913 0.030477109596372568
Na 9.400938769750157 7.74289540264793 0.9623042954301597
Na 8.034988529505263 4.211551497663781 0.9988972727790467
Na 6.659985678773299 10.171823919573354 2.1505587460232407
Na 4.376963143865515 4.201466778376822 2.247906538894377
Na 3.448018383415667 8.056100326655052 2.8352050204785426
Na 6.967565221125785 6.681709293628269 3.077181247754879
Na 10.29742733948746 5.466327386585161 3.8407310636391285
Na 9.455414382971881 9.200972923170495 4.467396252536088
Na 3.6939917815036054 11.465534051066767 4.490291989494696
Na 7.27918871015987 3.1353600778945574 4.449664384131019
Na 1.3894996820432421 5.270179051063018 4.453433521250081
Na 7.329114415748169 12.108252791488814 5.311777082300639
Na 5.845378616177799 9.10762514217497 5.374101004296449
Na 4.50226487291066 5.766229131060731 5.327390021389159
Na 3.715684802394213 2.3725823479723736 5.666271880770215
Na 8.01579047587598 6.424210423265029 6.201952615735569
Na 2.2912191341111026 8.407874560852955 6.390696587475269
Na 11.122691240116419 7.076863684560264 7.502794630470825
Na 5.2065826495092855 7.437070744164421 8.322151909388909
Na 8.367021351626672 9.739422019555722 8.03567048028398
Na 2.477888710483762 5.072446688955111 8.24079224175191
Na 6.055389073443902 3.973246804993894 7.8391113661591145
Na 7.11443154092029 0.821581368112381 7.3681542220564795
Na 9.707411000672977 3.462021393918149 7.309900156774148
Na 4.710828781927437 10.906085178872052 8.249585373348118
Na 11.140843517021532 4.810907443015908 10.535866929929385
Na 4.1637617665929625 1.827210476219289 9.525970020582994
Na 8.229146233015195 6.196182651055234 9.497059589649114
Na 10.260331962269767 8.469312497853391 10.968403385353007
Na 2.740686847989575 8.228690601945766 10.319632170551325
Na 7.902537850936526 2.7209030683048105 10.522603897338287
Na 6.439662033116004 8.89459008492176 11.201394675862293
Na 4.938764181860686 5.211131436590008 11.079072881859279
Na 8.342783547030377 5.822734988564168 12.720046460253391
