31
Energy = -32.33641055 eV
Na 2.7356405446873358 6.5755822494285034 2.717056608973183
Na 5.477249290308689 8.757986410949483 2.205059820059681
Na 0.47978471808018036 4.2950636594612215 3.901849153563214
Na 11.472897845366598 4.676773858122611 5.2447230370826885
Na 8.804135875982217 6.858136032043363 2.85616638080146
Na 6.008741298707939 5.23224103424448 1.2775718591145393
Na 2.1024650682358565 10.211066603619624 3.0423167543378953
Na 8.446029309169845 10.436276684384582 2.44135207720959
Na 4.001972490590409 3.2817017719136485 3.7814085596057128
Na 0.2433360384170145 7.779398270192112 4.995418540336066
Na 11.038958093128645 8.34610177243521 5.855406756446372
Na 5.640360816803456 6.183061837272055 4.6246169597818545
Na 7.90778330517589 3.4373195161113306 4.042286630245073
Na 5.30143785791819 11.708813997799082 4.282231408681726
Na 7.413124332561632 9.189702990727387 5.538295531566726
Na 8.589034742791775 5.988107721505608 6.407387545503105
Na 2.673315373041365 5.468650649520102 6.612854738097202
Na 5.815531498734016 3.474878680306598 7.069228396277513
Na 5.51417613935632 7.20734612680512 7.978751970601147
Na 5.766840979571353 10.652383784382819 8.327734815053075
Na 9.450114922904591 2.7395750853829215 7.5591126665845785
Na 8.975679051765201 8.802310750676611 8.838850189252017
Na 3.543938981153455 8.999892496860433 5.8209704422231106
Na 11.377016812518299 5.9267794158112785 8.638147228055274
Na 7.877582750225564 5.313801940722733 9.625201006961715
Na 4.424817714615474 4.798696367579894 10.230463393337946
Na 6.947090402721489 2.0266956766283757 10.293155642450323
Na 6.403081437827956 8.083085839202203 11.320728635463977
Na 10.185040099987507 3.405392628024656 11.161689049728002
Na 9.837037165248857 6.956628017439589 11.952624138030446
Na 7.091828560604141 4.732591648647606 12.903383582775705
