30
Energy = -31.23615488 eV
Na 5.094606687462713 3.067007602790183 0.9520903003344885
Na 3.291660404091993 6.093651499193848 1.069555753645835
Na 4.59876039991017 9.379927920647352 2.0027525199887406
Na 8.239991001797838 9.864697709261435 2.177527991239468
Na 8.483609421865362 3.700516689803017 1.3071967991399134
Na 6.705998271181837 6.472187772033607 2.450903964663845
Na 2.846652396630098 3.380383030333091 3.61689370730294
Na 10.206272880230076 6.887967669155444 1.9113625861471975
Na 3.6355246560213472 6.646495527513688 4.434681405482065
Na 6.288588878967936 2.9002786230218867 4.199776403695371
Na 9.641878201999877 8.13197392338956 5.21517049778889
Na 6.252911364550174 9.44593168656905 5.050544284452552
Na 6.761306834505744 5.985970814485982 5.9843791191362605
Na 9.592373903027449 4.522506750227776 4.67797643199705
Na 2.9004347983497043 10.063805137104366 5.294439954536014
Na 9.815648078055677 5.815605957045916 8.103363689232252
Na 7.5309187197509075 8.619633297518854 8.193973338354258
Na 10.744658532194126 9.260592787170724 8.950683868669419
Na 5.029440384418243 10.987046395991062 8.356062021192267
Na 7.688242373477344 2.869094064383053 7.594730771445109
Na 4.056377644658235 3.929363937518535 7.152647711611175
Na 3.9803418768272207 7.606269768284363 7.796239301319256
Na 6.371519999371953 5.548242613157982 9.520290337269142
Na 7.921884184211308 10.956609734899988 10.630155758297008
Na 8.8074194365591 7.407625798757935 11.445623248466273
Na 5.251792831883983 8.524989899889853 11.215029978326163
Na 8.673557136258337 3.7185936327053906 11.203375761735492
Na 5.358137427381901 2.493128471368654 10.719215178089392
Na 3.2241955516916976 5.3928250668267115 10.78601390573241
Na 6.021497415364677 5.343277911648802 13.003545103406971
