31
Energy = -32.3174809 eV
Na 7.207889927847856 7.564658501882506 2.2790140269726122
Na 9.538282658852738 1.5020929835937624 3.5250142111232483
Na 4.2839834206787515 6.232834871111233 3.8274451481397715
Na 2.4278668477877687 10.96605042604199 6.539008017091965
Na 4.2774274534566175 2.8877149145084817 4.3826379337582635
Na 7.809385167046939 4.424294182349744 4.330904789140415
Na 1.2133403243666396 8.029707591184701 4.6652769125357
Na 4.384034562388368 9.682861241481675 3.7023901496329024
Na 10.361140964469673 7.549959955243575 4.361781707319771
Na 11.47789922158493 4.3434114216820054 4.6548459370079724
Na 1.2393414826344977 4.7599297748850695 3.1330745340454818
Na 7.910581798445247 10.6221346331974 4.211068977473903
Na 5.086263970863178 12.940644116285846 4.620899234059468
Na 7.042768054305798 7.568389032920123 5.708651358114909
Na 6.956237882571205 1.252925628023467 6.030148766868056
Na 5.675870088328293 4.527198778838609 7.398772334343571
Na 2.041200754151123 4.976507024354921 6.624774664261487
Na 10.264142076601532 2.060350065175479 6.959628700313236
Na 3.9162416238962408 7.870347006489116 6.990562100848121
Na 9.704738380097691 9.163248429715557 7.387144476561159
Na 5.98759840109553 10.795753873032952 7.238850799602597
Na 12.367586199444832 6.5718404105200605 7.351377174589104
Na 9.113122174461148 5.406640461296866 7.562082215522913
Na 3.6059654472066156 9.757024971228102 9.882282177289316
Na 0.8097139239935739 7.943665099285713 8.339358947589876
Na 3.7760384972631194 6.031600809902597 10.00365552913904
Na 7.680590217247324 2.147854234384425 9.319818851136496
Na 6.7709901801744445 7.942508942166376 9.299059426943337
Na 10.953570409020898 3.830478407562175 10.016038301670232
Na 10.370020060631333 7.253140976068972 10.368357162759214
Na 7.461229266369691 5.109292672869574 11.001136871428404
