30
Energy = -31.45655478 eV
Na 5.3841329389068475 4.566146106457513 2.118357343166467
Na 6.319489577581015 8.453319953264888 2.3470509354599196
Na 8.85355126794632 5.7763439918524355 2.9576012577491317
Na 9.868385476635982 9.333003503203118 2.4191351176406046
Na 7.04698728487623 2.3896716075667164 4.835914460679633
Na 3.8208045277869744 10.956942879563455 3.073889981081203
Na 3.128085208567343 7.184545750444257 3.563750963416422
Na 11.651393716584387 7.300932494747581 4.902067494099911
Na 7.307782442730886 11.494091689669876 4.156518156333807
Na 5.981827690352089 5.873769645822928 5.110833015469517
Na 3.4453431854048526 3.294637894459491 5.220391627701312
Na 8.399345497667497 8.304776161815335 5.37003126875219
Na 9.129790101755127 4.868079767474003 6.543650206875651
Na 10.672702872376934 10.717821728864351 5.786069179295474
Na 4.894055338079747 9.180388045546373 5.8342348029937385
Na 10.25804815693948 7.736237722332234 8.392995302805678
Na 4.926351460781933 0.5895923399603529 7.246922976355406
Na 3.1642669366515754 6.308124530239428 7.278818188704813
Na 4.596675299955066 12.462612112333606 6.454505362751302
Na 11.288991001109954 3.939870286894288 9.100517188415662
Na 5.814660084321317 3.8288604658988903 7.835878349361689
Na 2.5277414043375916 3.0265726292630335 8.855295281402677
Na 8.487283384721799 1.5947979371063672 8.258882326586042
Na 7.486402535365394 10.747937639211633 7.759076905906184
Na 6.7388896842686234 7.307198376624007 8.422361811395511
Na 1.3549611261102987 6.281219304918615 10.265028862640914
Na 3.9784903199441066 9.23481424234348 9.296338033461774
Na 5.648739238330497 1.972269571914062 10.65357586354829
Na 4.663157083277084 5.591336217179972 10.693772894723349
Na 8.20977037526223 4.732190621657092 10.294640059854926
