36
Energy = -37.30243773 eV
Na 8.706848575528713 13.84603201922129 12.147542276820287
Na 5.636469026379362 12.926284251835376 5.9393286432572285
Na 7.06459177075374 13.232291180676754 9.126028425117674
Na 6.676876877689409 10.712525737754031 11.495212672642523
Na 3.9269846873985497 9.956131223723078 5.157140630232146
Na 10.23628124962612 10.878096497418062 11.201930612009624
Na 10.682128897227226 13.590210613028816 9.099623955720961
Na 5.442989914066719 10.276404397363395 8.26545238212809
Na 8.803663986191525 11.632266597684081 6.777122061445772
Na 7.146804592277457 10.514752505488534 3.920065483375215
Na 8.508630689002965 8.672359641240684 8.91989408507003
Na 4.047696843554728 8.448370256620844 10.901829896524308
Na 5.536682798782927 8.707685321796399 14.100438710573325
Na 1.7768700213615491 7.215379035040963 4.390665406112341
Na 2.8869118489260766 7.842599869443454 7.703267650531301
Na 6.756951316224928 7.738068856464985 6.115711104116456
Na 5.055892167211131 7.354669333181424 3.021575046688933
Na 8.708599239664295 8.101755670472299 12.582280376490857
Na 10.091884681959252 8.923374442997616 5.436011724666311
Na 5.597119651436105 6.026146467408395 8.96994286031846
Na 11.785024165157274 10.468609451706769 8.076402884707424
Na 4.288040238267213 5.189622064572715 5.738630689202917
Na 5.889809716418718 5.80168467617012 12.344986956852644
Na 8.47452732580094 7.851452892196534 2.43321041203214
Na 8.87352941804656 5.438199054988316 10.437226869535639
Na 11.10656736930081 6.119270645975001 3.851436205634388
Na 11.568770417610185 7.73592586258453 10.412108412657116
Na 6.438444061500296 2.896924520354921 10.590892177552096
Na 9.697613220501232 5.816936148320653 7.081035466304371
Na 12.932359731449761 7.496582224337986 6.878900702723694
Na 6.806490547824744 3.4556311350810356 7.131375205432613
Na 7.5964328091059405 4.9341366754701514 4.136083452080057
Na 12.243123707631698 4.595734390778021 9.147715544216544
Na 9.572669167435524 2.4388458290180095 8.964349314617861
Na 13.230195978686497 4.2311367948101735 5.847148157634965
Na 10.057001867500967 2.759129209376327 5.259820478144333
