34
Energy = -35.48437977 eV
Na 11.364166640605625 2.3120185407871654 11.112787391451766
Na 11.068136674881027 5.822466618174298 10.799918046839839
Na 9.054301245007895 4.132356609797588 13.203560434905729
Na 10.998362757974064 3.792128024742819 7.883753431642302
Na 8.147822987164592 3.1446152717437847 9.89741265653294
Na 10.786671299220743 7.343529486239599 7.208020827201759
Na 10.702887836737712 9.297502557365986 10.13290508558225
Na 8.576914259885754 7.691812917426522 12.61806922133312
Na 10.713552990875733 5.2861998747348515 4.340442873907106
Na 7.849576315800912 6.798722156777228 9.173409794857422
Na 9.383076324035969 11.247512027049098 12.693415628571715
Na 5.87880268245262 5.199507104907764 11.792904933274862
Na 7.851690866075583 4.658929707830117 6.312002055362933
Na 11.931162129201649 9.000230272590274 4.2557863104738045
Na 11.995338539606113 10.889789134635503 7.135789374023308
Na 5.071405189824273 4.151176402563282 8.408274457434889
Na 8.288803146238426 9.852175010606771 7.126480886870836
Na 4.471876588987762 4.014416618723795 4.835092345512729
Na 5.592777593441955 7.392388477105437 6.301076292240348
Na 6.902116790920419 10.170889686324063 10.407400759765647
Na 9.577373802951255 12.5691382082582 9.265602204020308
Na 10.738972803239752 14.052349398975313 6.249699503089774
Na 4.317817197529313 7.787310941937913 9.62945625140937
Na 2.4557305399303337 4.926041057714754 10.565692167465672
Na 9.532605828649432 11.52557044512786 4.162433435611954
Na 1.8129243378839286 5.874612078872436 3.500427432880403
Na 8.378443715058715 7.902195615960514 4.163333233847842
Na 7.180854396009752 4.6445289649869315 2.8055244641164676
Na 4.686781180345619 10.77499335395175 7.573908554978182
Na 7.225489699723705 13.101594687360992 6.475022559102282
Na 2.298029588566024 5.930839123205598 7.030458125617459
Na 4.916569309806857 7.28982932400305 2.737144282490142
Na 5.897799159761536 10.58850359110449 4.259751735612083
Na 2.760078301482474 9.020601865315943 5.072416602306504
