36
Energy = -38.15719568 eV
Na 8.00988509504074 7.211280449662039 1.1815111673164767
Na 6.567074789236065 10.771065429268292 0.9367965851481574
Na 5.462024405495666 4.470334936909263 2.1523952182987083
Na 4.85036870842012 8.394778739196541 2.6023616314077205
Na 9.06344859820126 3.6272553778963 3.0913419777943316
Na 6.598757015578153 0.8657362712691629 3.346225796918078
Na 2.232116871972329 6.329801945787227 1.9740107896815569
Na 10.829809721955113 6.583887990351063 4.005956717513891
Na 8.363522701757018 9.871445968238893 3.9844902848863586
Na 7.453122712107456 6.419446384312345 4.463902298952973
Na 3.360567959461156 2.243295732910864 4.361539219293375
Na 5.292732629818239 11.682952800526298 4.391810757874317
Na 12.002863829981175 3.1707203337006624 5.311787804036387
Na 3.810376600806275 5.794402106452159 5.099150977848106
Na 6.429972416613892 3.2944457317350944 5.546024101500516
Na 2.363577735340223 9.184967125752427 5.294060824753029
Na 9.103015716752518 1.0840641552075023 6.168727247610301
Na 5.724528362485808 8.795436404967804 6.158773607105161
Na 6.4165562346249585 5.746424142213259 7.787133964621461
Na 9.318702996017628 8.235636329421856 7.103508466857043
Na 7.759616287724815 11.412876934359723 7.402176612671106
Na 5.496856182023015 0.21634568447491398 6.733820208226242
Na 4.055239382237979 10.936254208535585 8.176183111459974
Na 0.8820688029978109 9.394314594981665 8.842630568543287
Na 9.513266703183115 4.696545754784139 6.85814099789764
Na 7.369408454994121 2.580044507182322 9.14776020921768
Na 3.268578604528027 7.0912596143184174 8.398744263611896
Na 11.056437946058743 2.4490884783293003 8.951357102666936
Na 3.865717499077149 3.3725857684175593 8.000571709105415
Na 6.388733434862575 11.418555171347245 11.046801391484179
Na 6.544084394428174 8.550163929293904 9.481841014740509
Na 9.585857351322366 9.757576221557061 10.460498321941431
Na 3.6689906200679516 8.935991387916445 11.43982447530944
Na 9.012962146956827 5.9010578105608245 10.311660798420974
Na 5.30641351004689 5.456763269115584 11.107332053967202
Na 7.126328580272515 8.206783311492895 12.83273272376495
