32
Energy = -33.82649858 eV
Na 2.204931252938752 6.506473919121589 2.3310663973360337
Na 5.772644317488658 5.77534234203656 1.1949158942232598
Na 4.736778314497514 9.347127132003969 1.4059503065554901
Na 8.159268108138948 8.247848730636456 2.6906866972997046
Na 4.147611751680677 3.8552712430708995 3.9404019332957128
Na 2.4848271546724283 9.784716739795389 4.201834636091287
Na 6.892664072974271 2.4271008603963233 2.193506842194202
Na 0.7123516106277642 3.594896050688633 4.282567888523546
Na 9.366070601638265 5.08164422780017 1.3889795375384881
Na 4.957367148957303 7.458455208984223 4.176057577440875
Na 10.233266124520243 10.313845366991737 5.890226772051756
Na 7.761491478793235 8.076205794268029 6.264062594453119
Na 7.6169900232000245 5.022819022020787 4.298732756322576
Na 2.821932900612832 3.2477124589748176 7.288726116849515
Na 6.124185590571622 10.795707390712813 4.55505970892399
Na 10.799922354931871 6.643578018130444 5.236140496307219
Na 11.998926152594256 4.7357624581750795 8.711048573521019
Na 6.571155558226824 2.2862738754472565 6.471563719361718
Na 8.807707540106684 4.913965631227909 7.652900810099444
Na 10.519681758674754 8.047432615592225 8.75031577395142
Na 2.043366468157628 6.537288916711703 5.93569357528979
Na 5.324295365934071 5.55664421098212 7.003772687918015
Na 7.843982645171832 10.625750168184439 8.744951823637585
Na 9.369523845175419 2.096841171622423 9.467395909055814
Na 4.452727755816453 9.107932564593092 7.459333635125849
Na 7.010792525415301 7.30925251330479 9.550288978856077
Na 9.40994801408861 5.3469477701509485 11.218572913228053
Na 6.215529020773927 3.7643364160832116 9.968215357815387
Na 8.753677081897518 9.011166624004229 11.92437857858148
Na 3.5776674563515334 6.4511348464276415 9.925784271596639
Na 5.189028445720615 9.638656813504342 11.229490496127497
Na 6.1511475445438935 6.423328883248253 12.678836725320119
