31
Energy = -30.84862867 eV
Na 6.908394796204524 9.110171217830247 2.0614670651239693
Na 5.449732067590941 5.994172750235408 3.2866407375646705
Na 8.89928018433997 6.284086989355898 2.65940796597224
Na 8.038297649429854 4.695062528337485 5.698576534416394
Na 4.21837733127045 9.178135640959054 4.179257463619371
Na 4.828784486011242 5.512737235346608 6.576069593568113
Na 10.27610147291319 9.547632679176084 3.4419805233272616
Na 4.3816348776673335 8.686104998327952 7.729319024572035
Na 7.300075867948783 8.20760188725891 5.4432744864564775
Na 13.066204232325227 9.290285987030215 5.933154343826713
Na 4.187008425802336 11.977141805760406 6.068380102534066
Na 10.64160055814559 6.8895187486037965 5.773092893647184
Na 6.986601402899587 3.659947228236958 8.803237157850008
Na 4.69636779547851 5.941610722405641 10.037788209997371
Na 7.3819357731494595 11.627662436535072 4.516267894760685
Na 3.9363291958381907 11.892248927971272 9.457431984072402
Na 6.952484408433886 11.212765175120403 8.03428606486738
Na 9.89670359138215 10.361893522498121 6.862303703194517
Na 7.911376065314974 7.355477677806694 8.739932854202806
Na 10.266853423623752 4.787267645495649 8.371626297261166
Na 5.657073935587664 9.131876615020541 10.8712422146042
Na 13.639508622019282 5.957114010584079 7.531302168537104
Na 5.890249986272506 3.172837272524352 12.0561218164809
Na 11.55952373385083 8.279561538380012 9.04891862025074
Na 9.198997595315294 4.228825092002644 11.598172971924846
Na 6.752917366466621 12.416225129938441 11.474127687823701
Na 6.769716074426006 6.468517542683646 12.805684741730278
Na 9.323286309503333 10.470987324622442 10.361100840488943
Na 12.510628347786447 5.370945522498244 10.95815984717397
Na 10.040596327603062 7.593329118589893 12.060364878756584
Na 7.762293436114175 9.770141783063316 13.517235320913016
