34
Energy = -35.41286928 eV
Na 10.741940937808875 12.564257507995114 7.847162966549829
Na 8.47180343695197 10.900391895597492 10.401388054241824
Na 13.642133149754356 10.527014158752168 6.879394566339092
Na 8.822233309640332 13.368741605793671 4.800536053277025
Na 6.704363799395396 8.61038852260504 12.55553175004941
Na 10.845250336571741 5.302354881404012 8.164065251857119
Na 4.941568725867225 10.956555001934023 9.037834477095071
Na 9.51375079823029 6.985723133857765 11.059124466883613
Na 7.979386459611184 10.64012159268788 6.94772912193556
Na 10.928819251746155 10.294961361882823 4.830895512305231
Na 7.247236436456564 13.738008063236487 8.213715691463317
Na 7.393499895756502 4.980771210439533 13.068509520479646
Na 4.4330846532629575 6.802752140640766 14.543102383016821
Na 10.822247804903379 8.9499327401405 8.419477602100025
Na 6.749685592265636 7.9214556256469555 9.071357212156396
Na 12.551004055824631 7.259074838356522 5.679502808120736
Na 3.306435644478902 9.090415057248237 11.81286983631418
Na 10.052624239370308 3.330309131682008 11.059622830278991
Na 9.730445168468526 2.066421233783199 7.484293994646489
Na 5.383394755302582 12.423190595343632 5.361918896357171
Na 11.646243575857143 3.8065263605773523 4.895232825992284
Na 7.337905901916364 4.38798158247039 9.227061281196937
Na 3.1716101447124134 7.4582135552187285 8.590474220644001
Na 8.580757932407474 7.241057940307155 6.158975403999269
Na 4.602761433577882 5.845449352223591 11.286629461672517
Na 5.132336504321463 8.889289406910162 5.900133908319471
Na 7.844571219889541 10.031863529297196 3.4140890070854595
Na 6.103953282394348 1.9327748977442505 6.95359460658607
Na 4.560874904433799 9.95984302730137 2.6055702172882
Na 10.052332702754812 6.805211349298148 3.0867950701332436
Na 3.6195821406113713 3.6347234972797273 8.895055128919275
Na 6.395190666101924 6.764845908755052 3.221913780738106
Na 5.320514322674899 5.411383600837663 6.428016162888553
Na 8.20324489603586 3.9340812201137276 4.818724026815206
