33
Energy = -34.67585333 eV
Na 12.348276005358219 6.771320097928537 1.3223248606878646
Na 8.4057514198743 5.979234596319203 1.2457362073792053
Na 10.633145344354668 4.651640771946801 3.7333842158961263
Na 9.784822001756904 8.61273634442174 3.1637545169191843
Na 4.060050727349202 5.20562201919597 3.1418728836809606
Na 1.681202152876292 8.192242423211649 3.8393315727247286
Na 6.020919583749274 8.695855725717774 2.6793748435938327
Na 7.287683822515503 2.9673421861358342 3.4046827788155047
Na 7.41936409816365 9.686009168428589 5.865361316616281
Na 2.6639225687825174 2.1081733012311865 4.750825481102642
Na 3.747341590881806 10.804177912806821 5.438649846132492
Na 12.961640778743023 7.385477126820758 4.674581004803807
Na 9.981487639730569 7.015078164192795 6.420372105270973
Na 1.4509523753529487 5.27044886237039 5.889349042028994
Na 7.391866999760298 6.141914020290703 4.482008574109295
Na 4.386926973871253 7.514179491120695 5.737316091952382
Na 5.124952263269 3.874028596563711 6.2843573421710985
Na 1.4211694599340594 8.709834470643235 7.495467809641835
Na 8.737454598874448 3.519171641953026 6.7826749125881
Na 12.250333409431812 4.472748502971983 7.055734869751474
Na 6.892232922070618 6.550987729277495 7.940777058742272
Na 4.895319446097005 9.501822822172665 8.707680879705453
Na 12.44992290199471 7.814670188202168 8.574431951871421
Na 3.480678719035001 6.08628846431575 8.756122523089797
Na 8.938583677822207 9.109294487738849 9.161209758115763
Na 11.018623574930325 10.313135132208512 6.230453424600098
Na 2.342101767591913 2.836616527299491 8.466127440242103
Na 0.13705105296377743 5.755200268078456 9.73708561686396
Na 9.716138068509702 5.454588268213255 9.690986315312687
Na 6.058162920322504 3.639080843095139 9.715543486126247
Na 2.2056764925756958 8.245491051400938 11.110141850529045
Na 5.7977378648381634 7.007834399414763 11.277488211516106
Na 2.827870497389337 4.62711811508146 11.744154928188978
