30
Energy = -30.37748432 eV
Na 10.285983935568302 5.2368775452480625 9.355582978023516
Na 12.394045874346492 7.759767777199498 8.508805211086433
Na 9.739042380610325 8.323185029425984 10.784199161777542
Na 12.046191283687032 9.542548662496122 5.368379446813603
Na 9.379293176864604 11.494859278344046 12.057736019314264
Na 8.675428687478876 3.7791423766255794 6.603142051689887
Na 7.287318405203796 9.053415214828394 13.26842873665054
Na 7.738385944432639 5.75357887305337 11.976268866891862
Na 7.643321394147213 3.0851478866693927 9.883167902907752
Na 4.688979753465596 8.100399360297006 11.05734120562751
Na 9.340760360741015 9.346133395471098 7.494162726862455
Na 8.961463008726978 4.983399003112716 3.1981112987661025
Na 4.528775688223783 4.784622817489044 10.756721631953846
Na 7.178558114087551 6.68696896867643 8.63009177487257
Na 11.830381860906074 10.927244210855067 9.574788889596752
Na 6.88536398627077 10.312260930193004 9.83738863706494
Na 5.014053003249539 3.824247946656353 7.48928756934512
Na 8.80953804130335 13.029514863376964 9.090901977141463
Na 3.819422078580241 7.029722760321395 7.6868450389873715
Na 6.884089329426901 0.8550360208172066 7.2953939613354954
Na 3.5917949204717696 10.433415473752056 8.616817609748152
Na 8.497502933204983 14.833477774418443 6.089846671901828
Na 10.769274893259572 6.329094991969283 5.873302468921608
Na 11.259255515505942 12.633139170803902 6.6095129011130105
Na 6.279867542076691 6.157555174894137 5.207359320886268
Na 6.069890500198182 9.326100939680224 6.281401780734956
Na 5.901548120524961 12.600096908216525 7.2537049452779305
Na 6.251268149658146 2.8264482344689994 4.334000827864419
Na 8.680371533634004 8.399137995960318 3.959843138310227
Na 8.348569810445962 11.60695438313872 4.857105312278006
