31
Energy = -32.56963515 eV
Na 5.639985579013182 8.942430271579132 1.5546865905615068
Na 10.434679644344277 4.680233002035926 1.1249452099759287
Na 7.160784050499803 5.525598427114684 2.131115498239938
Na 9.466443249738088 8.300375495367046 1.5171338576332394
Na 5.109897258415988 2.9368648228949676 4.397677522408975
Na 4.345123818240004 6.645811458750609 4.0579089599291915
Na 8.958916967080818 2.890816448581519 3.97448543285377
Na 7.814550648449853 11.491602674335343 3.1793830115569732
Na 7.602133692684033 8.353389027175359 4.385163399759247
Na 4.650994655001612 10.38016230915055 4.847050459404023
Na 10.461645980697341 6.185771373596378 4.355284952758957
Na 7.265658359275614 5.244134877683417 5.788820214825436
Na 2.1548833379765577 9.002690351995989 2.8082504681850113
Na 4.004886030366148 4.8723416233685475 7.232114815070999
Na 10.677461963082171 9.81557524317042 4.769570286420422
Na 9.383414606392739 7.690263589110807 7.632473802411765
Na 2.997200246033123 1.6722281311205713 7.612545852755565
Na 2.211079460387348 7.950718943643386 6.829412948219279
Na 9.826780620120998 3.9894592952307106 7.875350026310384
Na 7.685068541931847 10.89365941714126 6.887585143876365
Na 6.576401968579398 2.1906186555204377 7.689350697562592
Na 4.088268750171248 10.418549035073148 9.036462898091596
Na 6.87320718015523 5.402536318518516 9.271412850943417
Na 5.675128048285612 8.006150011143305 7.311763571792563
Na 1.2536029100237478 4.626842895936634 9.182552652956055
Na 9.706532894150712 5.965106276592194 11.074444200593366
Na 4.368877253469072 3.270215374691184 10.566735038517052
Na 3.6904145586951325 7.040508650266826 10.286684153263153
Na 8.056428571732184 2.75826750804558 11.073215361037972
Na 7.065864746767476 8.71106649902227 10.470316414082529
Na 6.319174605013557 5.671502188919043 12.601593904778323
