46
Energy = -49.14123871 eV
Na 2.1185176741608123 5.665373833349877 11.575278992374034
Na 5.770558707492861 5.63957686556709 13.085085628278888
Na 4.473898016426521 7.8081070695741746 10.57699976827155
Na 1.9842571585564905 7.45331209600822 7.872039022231593
Na 2.0924269911000475 4.384144397205425 4.999611343421089
Na 1.7842876526047067 3.8267067171828373 8.499406465447082
Na 4.900550862650884 3.80379110659711 10.198978863385758
Na 3.163045020048217 10.811098254200049 9.0487449926232
Na 0.5998681608226151 7.5236106597902275 4.611976264078097
Na 8.358540970477803 8.321874022499886 12.743138398526593
Na 8.93869519228797 5.1075522024671045 14.48057748289742
Na 6.911017647938653 10.468477403174864 9.968920857346085
Na 4.775159746188673 5.432749250427228 7.191005819659356
Na 2.844170105866726 10.388409129353022 5.3330155135716915
Na 5.456392922277924 8.735173903088787 7.258724828323348
Na 7.4884858626749 6.539166189475991 9.54069325707121
Na 4.57023939156526 2.0150809187308045 6.877074374041599
Na 7.792642999989017 3.488446669265369 7.64994165241942
Na 5.685990695206119 4.010233501924304 3.8909611535168533
Na 8.282309700708316 3.4250578651781836 11.420284751722386
Na 9.910394978909947 11.70803056492398 11.758190714652933
Na 5.777632212747314 12.277977332689348 6.861462480569336
Na 4.083829036758894 7.223563781292923 4.040612028580114
Na 7.685528983689766 6.5068965302080235 5.317996879411401
Na 6.29879641749011 9.871737083119143 4.096013036323308
Na 10.711229243934904 5.945433866351005 11.46194704638619
Na 7.739495363773072 1.2704245304503408 4.7763085513057515
Na 4.81623620616018 12.883441530944346 3.348284256109135
Na 10.1236843175315 8.998961020167178 9.67747292226292
Na 12.330789393974799 9.182730898511906 12.363453776336941
Na 11.227170437208624 3.3450057101478854 9.040574090059078
Na 10.311637534772286 6.250342053369466 7.507084562178731
Na 7.484757814855611 7.261230823936706 1.9088151025759537
Na 9.3098789101456 12.714963061448321 8.222928479825761
Na 8.836868370838001 9.722356876014548 6.576567561030273
Na 10.624392484956113 3.185429656165207 5.402155198218427
Na 13.334293306210498 7.409525665293517 9.417881807419569
Na 8.941443444504543 3.8490939846904237 2.3967794585400775
Na 7.171643542497693 11.148329939648608 1.1574127786794042
Na 10.94631878839782 6.425181783023305 3.8234043824558746
Na 12.656730931153962 11.18166514135401 9.115759881389446
Na 8.313388612073437 12.877115999470387 4.440891885690096
Na 13.411892301579789 5.215964519857866 6.452788730843423
Na 12.292761249088857 8.856778380543508 6.175739654913226
Na 11.641431593372815 12.235737008470894 5.634191409128176
Na 9.921196686316007 9.810274038963088 3.2824829632211268
