47
Energy = -49.06000036 eV
Na 13.35697847155449 10.307760942660266 5.610029393224635
Na 12.347937027338437 7.332377922464522 3.9751672109663563
Na 13.065785869902632 9.836320859464747 9.02590983672313
Na 10.760256644650726 10.362124838373212 2.945864661140762
Na 13.27594684936593 6.9143507875443815 7.251223150324144
Na 13.18165367511464 4.159044304133282 5.256366741028234
Na 10.905300989721878 12.214659761811001 7.597505644782974
Na 11.76587831623401 13.271120860294285 4.41541148338864
Na 9.837216068066171 7.390579399933644 1.4758542798439045
Na 13.058838499115142 9.758205748550306 12.487752994405062
Na 10.745103625013204 4.260406175545911 2.795300808255211
Na 13.295337262727806 6.7588698896002 10.798992861729506
Na 10.200751878296648 10.913493694547636 10.790642159281521
Na 11.759538659489767 4.145995490854709 9.291555793706605
Na 10.202681327956777 7.36050729847371 9.29735288655257
Na 10.148527702550098 9.049768430642626 6.239395671815806
Na 11.266164845126948 1.7698595606590108 6.924879399584955
Na 10.02761832989587 5.331007569835323 6.238652526200494
Na 7.672881578585035 10.842031712595746 8.236586726323162
Na 7.634969753225372 8.941733812969952 3.6111784597813217
Na 10.224855983954523 7.872102503175386 12.891487610924159
Na 8.367168668865597 12.301459611260649 5.102589242417312
Na 7.5842138229401925 5.480105766971111 3.532801867692666
Na 5.640795071264473 13.679744422281246 6.862933549820774
Na 7.263933571149094 11.53742009528071 12.26145093042722
Na 8.522191876872853 2.261470478120759 4.81932696163952
Na 7.248345452594917 7.255224880429315 6.925060627888259
Na 7.2939116490369775 8.264286581238007 10.753972295160315
Na 7.139536376862486 8.809714288240361 14.362754647945588
Na 8.444162917276897 3.0909488757820793 8.539451828878104
Na 5.261328688669019 10.426324363322495 5.420747862385922
Na 8.8239758790226 4.900066877030359 11.519984360105843
Na 8.39385156729953 5.5875664948972705 14.952029823847854
Na 4.744570646328486 7.001970673071232 4.380396882725712
Na 4.810302338383886 11.97062535014646 9.951140723264533
Na 5.857037289462592 3.8481866613223135 6.198359260240704
Na 4.508454868920038 8.621664271729308 8.452070186898135
Na 5.9260443185705896 5.181197998471607 9.511478882973844
Na 4.383992018389393 9.341347944574254 12.426124307729564
Na 2.7154643811243813 11.730733469659492 7.232221781890263
Na 5.575989748467026 5.881833328449698 12.996872235696255
Na 2.083096402879792 8.458391460899543 5.7601507365661675
Na 3.1684465292799247 5.426868743938639 7.380250300352622
Na 1.8987030128913411 9.954592168688343 10.24625791602324
Na 2.9666186462105855 6.38897426812858 10.8958732153764
Na 13.356978471554493 10.182373334852802 7.465910641600949
Na 0.46918197982370285 7.056729503555735 8.657087892636946
