42
Energy = -45.10086022 eV
Na 6.054312602407252 8.901277479272162 13.184696995042716
Na 9.056004326559796 6.924539250916694 0.2934804865416326
Na 5.794603940337814 5.383796256181846 0.9722263354028867
Na 8.738807547821494 10.547878699809536 1.2296233874792541
Na 3.412741080630882 8.112220097305192 2.5625000709691896
Na 11.531555855645731 4.501284473023294 2.284611021672969
Na 5.348133197169928 11.122473545825585 2.6021894397375553
Na 6.97885761196849 8.125638794143194 2.970179541727656
Na 8.36655732250492 4.957902744371585 3.3602085007836813
Na 10.517607678683117 7.863025860230669 3.58224618402291
Na 2.735382024294266 4.209519341874173 2.7357165882459733
Na 5.977792323772904 2.300280446031202 3.399280065924803
Na 5.212341742005151 5.600684973128669 4.525864189870452
Na 9.47616563949098 1.8810147606319634 4.241049095185011
Na 1.7127787033064945 6.686531695394096 5.368761649162805
Na 2.060255821586341 10.503667905696403 5.361697006466386
Na 8.330626346093869 10.63543562729243 4.913086133565573
Na 4.988351737239941 9.053644504305078 6.042693681977126
Na 5.3177140011861415 12.52694186005958 5.868518792104457
Na 7.752617314160668 7.114079124574283 6.773909616933289
Na 10.932584775917974 4.949637795713543 5.798387283626697
Na 6.6621723258508325 0.43492628544664585 6.75294867099245
Na 1.3729701593813808 4.501739777665791 8.408667811854452
Na 10.20463374861993 1.7057963261172553 7.65300271282856
Na 3.5689811715477426 2.594586332219109 6.023252803742006
Na 4.420444563714043 5.784217513853626 7.780550082866159
Na 7.4284423475496855 3.6805565848351094 6.832404108690895
Na 4.653361012587563 2.5156549795389007 9.420981986242156
Na 7.571391633972188 10.735019404733036 8.355815095854773
Na 3.937217669192923 11.324229078855266 8.858598239563795
Na 10.663580458441158 8.533886479514699 7.3647529186606375
Na 3.4298289388477263 5.809380854945889 11.25491610868748
Na 8.042751374724444 2.055861329012704 10.452888712909697
Na 2.0046628303927383 8.289101752892494 8.547423758374908
Na 10.138828726313845 5.010575103604285 9.232167642838629
Na 6.441653477375821 10.871946484281 11.777087668347702
Na 6.82866652022329 5.2549384785422095 10.194597347428415
Na 5.34925436498231 8.382689149624582 9.796005614113232
Na 5.816613781545439 3.547824273517115 13.069279405514703
Na 8.83586549240628 8.192243959811202 10.721900418573295
Na 9.110728305300821 4.747694902967187 12.769573908577874
Na 6.25085476219484 7.154350970191948 13.184696995042716
