40
Energy = -42.85013331 eV
Na 3.405200036897075 10.531713189321636 6.875157237927355
Na 5.745347609487792 1.8965361928092397 8.622787016651367
Na 5.457207594588262 3.841114710626819 5.480246683792832
Na 9.559808778531421 10.208808385998141 9.389145078591488
Na 9.200034353790876 9.291168070964147 5.897299657373557
Na 5.3071316364234855 6.2146692606193055 2.5009309420690924
Na 2.6709589644787206 8.81234416841926 3.510784204145299
Na 1.9106765993595833 1.7222478251677504 9.601614632160201
Na 8.317256802021678 3.955719825805533 3.1602565754597745
Na 7.503721341885572 6.449252442618454 5.428826621769982
Na 3.0121832528487347 4.423931371873284 7.892590429916491
Na 4.141810907746224 7.1122248681552325 6.146600273726392
Na 0.8006296520940824 7.206161970556987 6.958210958496118
Na 7.520776682870667 7.34758104234257 11.283215322346742
Na 7.142282313377594 0.8580669236827905 4.978115358615261
Na 4.550511759984741 12.26208498039481 3.6889646725239893
Na 5.64404717376649 9.597254660527641 1.1372921828596496
Na 3.0104419498259576 1.4426892365582429 5.949656606577109
Na 6.413920514257367 8.99098612580256 8.175738623551055
Na 12.239470326230443 3.275974748371117 7.161087391289397
Na 10.93398696835199 5.967212189248997 4.926685028564949
Na 11.099969660110874 2.2846246094427554 4.916431522975646
Na 0.7203245866376307 5.138698318341784 10.243354801874048
Na 8.728240335690968 3.3398019301445965 7.027231871100161
Na 9.386847086654166 6.731871805632602 8.310262513071796
Na 6.210482032463891 5.435724692809464 8.612274332297984
Na 3.4522877966396894 7.687226104308154 9.624077696480601
Na 11.018797828095927 12.078070349912565 6.377988488271533
Na 2.131152263359108 4.912109803155758 4.277092549979978
Na 4.539311525069703 2.4657680112842737 2.6105762989089407
Na 11.84900155304869 9.76608364728393 3.8862543115546195
Na 8.400679047899386 11.459382928285933 3.259277766914738
Na 6.0003062086025505 9.391897366490733 4.498585343304899
Na 11.93929834975431 4.395199064113349 8.198636134588686
Na 11.22733889319537 6.979662997115718 11.071782476754446
Na 7.0428426480919 12.138413016879152 6.6688783527139375
Na 4.3374042446249845 4.177512245503353 11.250991686057969
Na 8.860313461174655 3.9792902041713547 10.527260970577244
Na 12.239470326230443 8.507201404942231 7.500111412245138
Na 8.654638388272497 7.7207677560709715 2.3707744176730987
