49
Energy = -51.44746492 eV
Na 15.267485592888924 10.956772105167422 9.186238811422232
Na 13.196854865249055 9.17843254761945 11.411087531297163
Na 14.00815828009197 7.871177099801036 8.122808229973943
Na 12.896668292907696 10.802086049790564 6.585925177701453
Na 11.891539764065284 12.033836927525961 9.588637779960628
Na 12.327820002966847 5.833251883236278 10.451766257121
Na 12.81820136200958 4.979178512825363 6.849130527643716
Na 10.59037640388342 7.5159620253268065 12.965488837543736
Na 10.409568165037062 10.963243894403332 12.513641486528046
Na 11.58985698759367 2.7658822073941787 9.149193213477448
Na 11.002715191297764 7.963797784083506 6.055058863713039
Na 10.15147074768177 8.77566826920653 9.614011296810801
Na 9.320300603404283 4.0898644672632285 11.417823511364919
Na 9.444004926259494 11.227733042659594 7.171302996159903
Na 10.828787642769358 10.846965414383137 3.943311017819612
Na 7.265248681356051 9.359152081763431 13.010140667610772
Na 8.693812434377747 13.039466022267273 10.156052001117423
Na 10.02377673384702 4.8838760978388205 4.691006405994695
Na 9.418191161395294 5.644591460873424 8.187772701370086
Na 8.054870131309029 5.720321044822264 14.151916979770462
Na 7.705361488012814 12.804462755415717 13.566462937749801
Na 8.858194379291882 2.2658763770570642 7.263709550125698
Na 7.155269360757797 6.748862391843396 10.769944946198988
Na 9.571343356766178 7.807142811223501 2.816123134930473
Na 6.897342230368352 9.747472118974207 9.168266590780124
Na 8.712612175818764 10.805996818959278 1.1833071827520827
Na 6.349545965057257 3.5974603116572834 9.389268107449789
Na 7.803182257751239 2.3612395198284393 3.8943704633275025
Na 7.553219105278697 7.724810135141399 14.151916979770462
Na 6.635844294046953 4.854919975319556 6.1485459138928595
Na 5.392504639334838 12.147361909303036 11.157744599987083
Na 4.867692134861036 7.332406333103875 8.018196460668353
Na 7.44936495218438 11.872776783987803 4.336773522001966
Na 4.909454742088869 6.743369666362908 13.915219974613509
Na 6.202058422377044 12.811615568801704 7.562781796789367
Na 6.9332857833819235 5.551651708934141 2.676725570632783
Na 3.875011384202464 8.954554900301138 11.668571492230175
Na 7.5264631733158165 8.294400297668368 5.880618667559391
Na 5.511057586065776 1.4340585796177574 6.7072648224523554
Na 5.9370565475114425 9.029877788541485 2.695283400615071
Na 3.3452743029613345 10.741523893541043 8.77596348321806
Na 4.328407547139182 3.1287153019242417 3.901030336547964
Na 3.8425118281929027 5.301406077692517 10.83960939265118
Na 3.2563117952616487 4.250139198116675 7.430847746760949
Na 4.602095906939336 10.39442061887412 5.560418499156649
Na 1.5699798696172045 7.544218273394644 9.505201994228564
Na 4.018785863883112 6.52639951016485 4.504897069639098
Na 1.8325899541018609 8.52018581159157 6.31418160726622
Na 2.4250329274522677 9.25375109194223 3.0212268798654534
