40
Energy = -42.14791728 eV
Na 10.841377149044057 8.1284119874992 12.853040906938805
Na 13.480971991885044 6.545186785334324 7.678402206313994
Na 12.88922331331919 9.098384071079131 10.02079011561553
Na 11.533116921248066 12.465607593472892 8.951228800342358
Na 11.825505699219196 11.584718347116333 12.436640132259912
Na 12.382039935109958 9.926494587256427 6.52464088022661
Na 11.275212914251325 6.895484956857538 4.8959150193325955
Na 10.643169769999831 4.171871692202165 7.3137651113968305
Na 11.49555536443563 5.5551718533027525 10.53377110997364
Na 8.433546907764331 4.730145305424791 4.585970814679194
Na 8.225101564280221 13.615243553529435 9.43397645779521
Na 7.526274126482477 9.394795851234447 13.462823171535941
Na 9.881456161696601 7.697602300500636 8.02217514937449
Na 9.171412195539528 10.240287873946352 10.439452823036447
Na 8.849705293728722 11.139885271317878 6.913699991271364
Na 10.127874932355732 10.294746201318404 3.686760386075769
Na 8.667974881893212 12.820884820206222 12.87648163017628
Na 9.567471371654586 7.093727976531813 1.9363753498454725
Na 8.69093978550211 3.1935460064259193 10.239712991409851
Na 8.07359946978764 6.6438140515235915 11.203270606548601
Na 6.376113420162978 8.911046511967267 8.64992871186053
Na 4.741152359390917 7.918885262226652 11.785856057153886
Na 7.4900371669326935 8.197068490097589 5.026928289442535
Na 7.705928939416331 1.9985874353277886 6.949340368147364
Na 5.626623768844477 11.625684825632563 11.315813656579916
Na 7.385528669597649 9.753059164762536 1.4736278677656827
Na 7.053929946471714 5.442878170595891 7.829630260712695
Na 5.262594852200514 4.372476713452399 10.86508917276606
Na 5.345399644324911 12.319420302605854 7.7658589242424725
Na 6.383766419884891 11.582782122761282 4.368367187310465
Na 6.170154533783458 5.896608876166192 2.100476077531967
Na 5.867080446719563 0.9659182038358146 9.782146343753563
Na 2.924675357332393 10.164782889107709 9.605024911450089
Na 5.454160159611009 2.743843570176832 4.125133083041394
Na 3.863321384289239 9.422761032510783 6.238888195445046
Na 4.3341157554499965 8.89962423641998 2.8940755990159452
Na 4.897207178837182 13.615243553529435 6.386026932133981
Na 4.584236039410746 6.047527616086105 5.284239482637901
Na 3.501665257779973 6.631194115027748 8.628144241063776
Na 4.2383826080485365 3.187259415089783 7.578615102089032
