40
Energy = -42.92002805 eV
Na 11.911492037455947 3.3533105016514955 5.327580531159282
Na 2.8778207838158236 9.149567023243781 10.967783790073264
Na 2.3739988473012916 7.676079669759106 1.7477713876622545
Na 6.060461510331854 4.165854535958258 4.7260979212814656
Na 6.126710698658802 9.948748282969934 5.9345222578560035
Na 6.335888067495885 9.235196377988663 9.658331784231473
Na 8.734683709436062 11.480339099313646 8.016309453596655
Na 9.96650457074626 8.992075194775085 10.558297856523474
Na 9.637155817122794 7.469496000290704 1.3953218678409456
Na 9.104928809247504 8.189918569487014 7.300653362357105
Na 9.041790948317978 4.836513179167477 6.437800594364529
Na 11.763393598509074 6.121207253050337 8.334701769219924
Na 6.385570374146147 3.718548909695057 11.95004912787359
Na 9.572234577379186 10.128980033359834 4.391889443391941
Na 0.3201557393496582 9.718502028896761 8.499477957834909
Na 8.21196443928985 1.5558622473164865 5.421755301858233
Na 6.306450650689236 3.084280510430878 8.331044555839734
Na 9.162533773136275 4.116949241813291 2.8044230491050053
Na 5.967187830904445 1.8865877689590738 2.295966708362344
Na 3.8514344183542564 11.511323601768368 8.307035326188606
Na 4.244962703577454 1.4590253643278102 5.636393656627881
Na 4.437523867244015 6.017156857721846 10.291377395126151
Na 3.2465810558723396 8.211330684046427 7.627337364429993
Na 6.135624585833799 6.514856175803248 7.333823401542346
Na 3.0577273483862157 4.630887960264987 6.807965777517166
Na 7.7786501872158516 7.17041817080164 4.173657321258857
Na 12.031917498855895 9.79963086039565 7.372876739881043
Na 0.8943125075652735 6.2658862659889 9.256207861668852
Na 11.409822970384733 6.961199072095288 4.662784252442264
Na 2.6281422336361002 10.111643080501747 4.67662736857842
Na 5.965691340765192 5.642206271027131 1.4644988416888898
Na 0.8108659745048467 6.960469187549754 5.217295588530814
Na 6.720105018968278 7.44549069995691 12.66646495536571
Na 2.970217189355791 2.860739204966372 9.768407727164066
Na 5.825692467319279 9.3088156655519 2.254707506086469
Na 8.406573887836075 5.800160111615271 9.995091286784888
Na 4.249484358805515 7.084863430884208 4.42994397578743
Na 2.897031874535545 4.119337097165128 3.104785350148034
Na 12.690852886070806 4.725301777043496 2.181842211234385
Na 10.01571844487746 2.701101635696543 8.800956974815273
