43
Energy = -45.15001253 eV
Na 4.705667168884862 4.510386631348282 12.964674942081666
Na 7.3981798259924005 6.5104662218494616 12.310348736786388
Na 7.793147375463336 2.8585631021728495 12.811279919104717
Na 4.1729578438475805 8.023112833303303 11.968205964924996
Na 6.39495805073357 4.10414396773134 9.792903999895845
Na 3.1157084053215547 5.279030759692622 10.048434047141788
Na 10.243326462171842 8.35644709974675 11.97835461818142
Na 7.067999537940315 9.970911046709515 12.054733774262502
Na 9.617959970572532 2.5541006691203854 9.705036761468289
Na 10.564104025980974 4.815126464507853 12.339558684842649
Na 13.197386124342513 10.203292098267049 11.636033255779356
Na 6.103931087242839 7.584706391784652 8.925357929135094
Na 10.021100167399563 11.81670312086829 11.829815395645166
Na 4.135736789423072 10.7631321670236 9.931750587069581
Na 13.457237485446933 6.73526243518926 11.939909017958376
Na 11.296991375573255 2.6289566460193265 6.663878685308372
Na 2.660636633965072 8.037779909174573 8.21819836982021
Na 9.337938972011155 6.214864196461284 9.12743571048638
Na 4.556992604109696 4.982279845242503 6.949702100558322
Na 8.011172462282067 4.012208982417711 6.750076875399554
Na 12.51347091578889 4.612841774918244 9.26832781286628
Na 4.620860338658325 7.922495407171448 5.232701447317673
Na 9.09875080615934 9.727153156920863 8.903150281717945
Na 12.322066252036823 8.198480342717227 8.828653354587175
Na 7.154707316561253 12.527501691946513 9.749232369146075
Na 6.282207511913689 5.158036941209789 3.9268799994021295
Na 11.510334296244922 6.237278263753454 6.118378241185049
Na 6.3723811098139596 10.566690011375432 6.803258547509845
Na 10.145454180460806 14.398816943950346 9.487720011913314
Na 4.412435175613765 13.482798237597432 7.843978341935786
Na 8.15152156034962 7.51466151007495 5.8307660554505
Na 12.13852575293035 11.679241953463729 8.647560250309098
Na 9.65333546237747 4.468175252699451 3.641289140355665
Na 2.849488438952937 10.886970755265242 6.137030184078448
Na 13.007818815758482 3.9246094263969864 4.05024961069072
Na 7.31895880468538 15.34071026894339 7.568019902043722
Na 11.26863699061832 9.717376351777911 5.806166546713065
Na 9.347942147099747 12.490379710710455 6.643084151220142
Na 4.950388271073265 10.825432831756638 3.307600229206618
Na 10.31899799281914 7.883501737871075 2.983133882207608
Na 6.891956347405797 8.084689300979004 2.1568397753891024
Na 6.648754982576107 13.477441469931643 4.700132919435684
Na 8.60995120276882 10.82941338749796 3.7013156003399343
