47
Energy = -50.74543432 eV
Na 5.7278661733396525 5.958863663461002 4.722040952310631
Na 13.320676663293064 10.749973051253752 6.067761279241028
Na 8.28401038726796 7.932136657191557 6.84008887401332
Na 5.707022548415787 2.4614897078722935 6.515499884770715
Na 11.350147430219954 5.361667364302765 2.7234184189959563
Na 3.7878423398016743 10.273614525578253 9.761813412264196
Na 10.064040745119888 10.602357032901654 5.202690804725687
Na 1.5902429589022127 3.6553534149758917 10.71158562283572
Na 8.494261849987117 2.4308350276653554 9.014742920976442
Na 5.9749113294787195 13.276488591859518 8.86355471336414
Na 8.982852035451103 7.598423530858741 3.5172746671599384
Na 5.438330626624379 12.111926129044248 2.393704883915829
Na 10.76743951334726 9.707918421088197 8.60862081606444
Na 12.216428301803601 9.196834378147505 2.777987322046946
Na 10.736571163451943 13.147009899685417 7.297849559280483
Na 6.8614172816671655 1.0910437990905066 12.234720862680854
Na 2.7220073231885 3.151566079146794 4.705543319621825
Na 4.2624375911516745 3.444630288817218 13.318124560317248
Na 7.631753401888588 5.094143234553837 1.4238438214272786
Na 3.3339249259336987 4.799666731452996 7.705851273985943
Na 7.099547297147811 8.367186267955148 10.24907502050984
Na 5.967939281040647 2.559566618899957 3.001029751178285
Na 1.265893859647637 7.184798181879263 9.020272938013127
Na 4.574152321159336 8.274813040587842 7.250522360488543
Na 4.17267324562712 6.465771080590158 10.978034668256678
Na 8.52724829113971 0.787255118022958 5.740310344304632
Na 7.393694523949057 11.265368267689633 7.950208648448672
Na 3.7630485283388984 5.637947819686189 1.9798210239122167
Na 9.928321819490002 5.9888656369735545 9.116317888397724
Na 6.642679700027803 9.889567665135653 4.626757498744509
Na 6.6203593463530375 5.3858739514734735 8.321345807167965
Na 9.935544494092658 7.944246240840345 0.23958660659557382
Na 3.292251159718125 0.33600539038365446 11.470798619915326
Na 3.3656491202520593 9.123430177332668 3.6208207935519314
Na 8.893187426672384 10.999225890797652 1.9054640183690734
Na 11.70215741945518 7.3277215402782945 5.9137281262736145
Na 4.982567023674849 2.879150327692118 10.043510037956322
Na 9.120971519312807 4.398316425327159 5.586688438910506
Na 6.225418057767016 8.503523163322843 1.35885736049395
Na 7.799077614655789 13.276488591859517 4.893074451368086
Na 0.13316701440563952 3.714468362879593 7.3876204376544
Na 1.4474530381443929 9.933339002142507 6.7170363231142804
Na 1.69483349499489 6.590337971530407 5.180715791635145
Na 9.462969485712524 2.2804330068300627 2.5958992190414563
Na 2.57678071987937 1.1529583760327595 7.972088179583271
Na 7.362288203049958 4.862184579338448 11.798139143769706
Na 4.337565504729013 11.90870803166455 6.217182633119727
