49
Energy = -52.36347756 eV
Na 2.155809438320495 5.889577497669985 10.24261784650716
Na 4.656021927208547 3.394139754434459 9.596415422161552
Na 4.697837848851156 5.5604543152194905 12.803897303539259
Na 2.4425221978015537 8.580132478464845 7.861525339635418
Na 2.9359269467779767 5.173548626621611 6.634585875964929
Na 4.977248534740335 1.8582969475858004 6.362135500309681
Na 4.001362120878118 4.8600615698526095 2.8644743395579404
Na 2.7779743975969997 7.957210662449284 4.145938107278387
Na 7.379588763462077 3.1457131631234563 12.14329669385457
Na 4.106024279562844 8.863123903826695 11.415180305803267
Na 3.2008429473914424 11.367944252016118 5.969162969779675
Na 7.735504272248553 6.720002592407661 11.648160416614758
Na 7.717203734399113 5.651952372884771 15.002149226658597
Na 8.078121148285927 4.5701428532197665 8.715369154186643
Na 2.434547041153158 11.683664132957267 9.606524371454942
Na 6.350907751152778 8.919538172765058 14.26614552121325
Na 5.349170035380719 6.77720427632593 8.959995655148099
Na 10.442772996543956 2.515710037194726 10.077589315293725
Na 6.2231610657149625 4.9833470238386 5.618959720793804
Na 6.493041704375977 2.3376366947419474 3.088809701836004
Na 8.669248747240177 2.276263502285789 6.069874234797605
Na 7.233674948925186 1.0024943756522093 9.110188759134148
Na 4.227444028045887 7.681150617061554 0.6024916227324129
Na 5.088955324569351 12.095707182667887 12.175796873382932
Na 8.028472382446061 10.37850549836501 11.548546817781316
Na 5.747858858750675 8.68304340106204 6.002072996475266
Na 6.839049666575977 5.044924386142297 0.5425911775308078
Na 11.500667211741025 4.338646590518583 7.059617774587058
Na 10.506164186465357 4.5475824531530495 13.220724900696414
Na 8.523081155621004 8.408372464110965 8.57414177161595
Na 4.8330312700110545 10.503674870834573 2.7751244922532456
Na 10.086353701481885 8.192845809645904 13.692122813492368
Na 8.985040461152096 12.056307486726029 8.316547922068823
Na 9.230104278662244 6.491564948491116 5.6762980519532285
Na 6.721389267941428 7.451391052460138 2.97985839841233
Na 11.03078504648072 6.216071792130939 10.16057229482555
Na 9.367928591828738 4.313322507475548 3.0764052887982754
Na 6.656612617106409 12.245028595421951 5.435443325717539
Na 5.661047971970808 10.758929749713744 8.765615546343467
Na 9.19329841820226 9.848027200824987 5.432196147401572
Na 11.32798740586648 9.878899434001383 10.281584854666514
Na 12.416012449546846 6.278033422801072 4.082182894824709
Na 8.42511306070774 10.945482957818067 2.2596748406042586
Na 9.960639552034351 7.662825876210457 1.9319985378848943
Na 12.115768818394168 8.055649175616255 7.165980845700848
Na 10.130967271980051 13.167260565226572 4.71491080947894
Na 12.334235619245625 11.553504580432937 7.073179625367591
Na 12.178803561455265 9.993503060994192 3.711017904071045
Na 13.642124263526885 13.188899854194442 4.235682219991486
