40
Energy = -42.8624819 eV
Na 5.121336805906971 7.4384483027914925 0.5757978808099409
Na 8.030131100154446 9.410089835682339 13.636800376214719
Na 5.128645844765033 11.126703927532914 0.7975085967071621
Na 2.215635996299952 5.4105229189199635 2.1962018821257074
Na 5.591508494748098 3.4138148352305255 1.8699675957216262
Na 2.8743453812992388 9.171147367957506 3.125742681691641
Na 8.377412654675242 6.035240995604158 2.189193773121621
Na 6.952617210039275 9.470404847830608 3.178258159252385
Na 9.275918824157348 2.300052795670693 2.8021659681433575
Na 8.012295278398211 10.65062970315863 6.4198165672756815
Na 5.02054227833101 6.379795124360748 3.7404586774085757
Na 4.762497135382925 12.029853577870677 4.627602602724983
Na 3.517356463603805 3.305029712110272 5.0008690199572055
Na 10.663346483949505 8.509940749851626 4.014008720036733
Na 6.541264727815727 0.6534345785482827 4.6350853736818385
Na 1.8805939510427188 6.643570052013433 5.77103350936503
Na 7.22144637863621 3.8721919716246904 4.960675326344611
Na 9.429912384458326 1.8453721264316747 6.802773588861227
Na 10.710954849110985 4.862231190860471 5.005408709700679
Na 7.933327821775422 7.222520158134357 5.525593845713581
Na 4.805514174606423 8.928514449953067 6.047482879779272
Na 10.500406404665448 8.004932270695493 7.913907240818697
Na 1.8519248412418736 10.435846033577398 6.618501623922702
Na 5.016490058571928 5.636300180028555 7.082247028576743
Na 8.4391553486835 4.9821964267263805 8.038213662443257
Na 11.715078735841121 4.623424548490644 8.687175153515089
Na 5.850223986517956 2.2488150777503915 8.039775012148098
Na 13.331101856184103 6.763865144974292 6.131775127408903
Na 6.9052579918332535 8.129325022690134 8.714694605465526
Na 8.563263352042613 10.394170581101408 10.426451883045416
Na 5.09153260745997 11.170721188150507 8.733464502535131
Na 2.5400851193669634 4.228860251127146 9.041805526411503
Na 3.201463859591374 7.907128592377686 9.236790404652409
Na 8.333263355975081 3.0245610036639485 10.8037111089599
Na 9.11505656948598 6.714000650149822 11.13845859559801
Na 5.7066216368772045 5.34420232526004 10.362135757734974
Na 4.612054016736155 2.518039152490019 11.810570401722526
Na 5.743686537063812 8.493054891242194 12.023944943835474
Na 3.0094528073660842 5.815897722185642 12.40493451907115
Na 6.418446243989469 4.896319283830923 13.636800376214719
