42
Energy = -43.81575561 eV
Na 9.19798459320522 10.987195994955837 2.5073916075872633
Na 12.408066419363065 9.672144306555651 3.7040953168945148
Na 12.730895000841944 2.694825846327525 5.116936401227307
Na 14.987744753718925 8.01162837034955 5.944383260173185
Na 6.295928333432695 9.0091061531495 3.1208579123292144
Na 12.522709438728347 6.138130510578813 4.235810177535595
Na 9.415029586372668 7.7437373775895635 3.9653097164160376
Na 6.540546572537962 5.827074531605686 4.613770797913227
Na 3.61361863964069 11.078835606572474 4.0087924407084845
Na 6.868015688828154 12.132359136777351 4.930002177433055
Na 10.123148484616546 11.15598798630389 5.942710177644085
Na 10.529144341162429 2.8860486423759513 7.7277822019339375
Na 13.44238474391335 10.846496653707025 6.890177365612194
Na 3.9921334057571025 7.928009414539879 5.568448225847439
Na 13.445856120547019 5.174123005076356 7.43503951486808
Na 9.62092685137953 4.351633996394413 4.758688120906531
Na 13.847846866673473 8.144579579388164 9.312390650759502
Na 11.118459983383945 7.954243437844713 7.053618967088925
Na 7.39365210337578 8.913695498822415 6.551157410771858
Na 7.001398522482582 2.796172929474407 6.443644368615841
Na 1.2422508161118757 10.051463071658922 6.397536002933599
Na 11.05024177299653 5.743175822881302 9.841698129820191
Na 4.617497936582486 11.078391840041814 7.3757760713847995
Na 7.86121913558505 12.109526606510547 8.332407031721267
Na 5.159653064696301 7.740892990500451 8.956169598416295
Na 4.304980653751055 4.715416477516663 7.36298988948082
Na 8.066679904371119 5.721721864854288 8.007989294841298
Na 11.440921365982884 8.621536955521734 11.785406893386192
Na 8.627601123585753 3.025536865179709 10.43754576274078
Na 1.64769197914683 6.926225362116536 7.95509849040662
Na 8.423368711575728 8.616831301584813 9.98561323375543
Na 11.15465852471738 11.112140453487854 9.295777150434253
Na 5.580745698357968 10.84457617725198 10.65852577727849
Na 8.847782735011073 5.77724263365273 12.420324497571352
Na 2.303038722500754 9.956643147979799 9.725435459474857
Na 2.662083248176098 6.444588516663327 11.304350721105125
Na 5.6138955464090605 4.556399051481311 10.63814215952045
Na 8.791623097900645 11.812805282880431 11.696940385872123
Na 8.842088775072463 8.870439139855913 13.830534296117499
Na 3.122154892342548 9.551740227440725 13.037079602899537
Na 5.937507520818026 7.605956807448762 12.393845030832244
Na 6.112606153786976 10.842962759186056 14.11797094981692
