49
Energy = -52.54691063 eV
Na 11.064569679775007 2.8014628703804134 10.041058503864425
Na 9.035031426239874 3.2232205472186295 7.046922761933708
Na 11.861754763061697 5.051221388044676 12.842527071611354
Na 10.449598942979812 6.148070546706556 9.78463261013617
Na 5.51832814335441 1.7417372885488016 7.7469619366621245
Na 12.012002308918868 8.504315051858175 11.820929803212225
Na 8.062245813028353 0.9439330494204738 10.032282036342806
Na 11.50139927646145 6.065326331086947 6.403714987840493
Na 13.366341338866025 8.523474091589799 8.349220303674892
Na 7.981665587263783 6.670643404668591 7.067617726988869
Na 8.72595240268995 3.2013188294547996 12.874070308964104
Na 13.153953210697729 8.881658323574724 4.615353898618192
Na 7.306930162697283 4.481750812178888 10.02768867728737
Na 11.342870371421212 11.699675987560044 3.0278050251775963
Na 8.835004920163131 6.995144761037198 12.87556080941958
Na 6.29310264765208 3.976148437351375 4.877016440052797
Na 2.9424458973607015 2.968201396541439 5.458774112492945
Na 12.31289029634865 11.630209143174309 10.123084889252173
Na 10.050928982324836 9.357120291190729 8.66118132017347
Na 9.164449197835433 5.650998841595421 3.6008856526889934
Na 4.99402386047352 2.342926141287463 11.446317792728488
Na 9.669822938740857 9.228607873611333 5.0387433037541465
Na 12.669251534028662 5.645355510764794 3.0680705530555064
Na 11.866058775064685 11.746839281520016 6.5945366073520555
Na 5.872537015701432 5.2369891028426245 13.531350558324801
Na 10.792879053833376 8.38620165213691 1.7668429492830777
Na 4.760448633355649 5.172404319940701 7.696688784302002
Na 5.043501742058587 5.233281157881634 1.9162791358451732
Na 6.730159333311852 8.042042307575038 10.05493648306662
Na 2.3727504504377466 3.0961165757513838 9.06445620651299
Na 8.706225302906256 12.953518926928984 5.11300157284488
Na 6.376318687033938 7.8911627925545265 4.276411338535913
Na 8.892523221513 10.523604252430301 11.801565277648367
Na 7.162698721542197 10.596155935771797 7.28944874400311
Na 9.187950241599069 12.937829577286104 8.912074940505587
Na 3.6059792611982133 5.939113389454212 10.984860596559107
Na 7.51948192906171 7.472559393740934 0.838371725203102
Na 3.140053452591068 6.3408403075625825 4.615542817188278
Na 5.522816415770846 8.907125827673841 13.090663487260178
Na 7.84860061969639 10.713462065260275 2.2177182474330963
Na 4.506651063092133 8.516597389125629 7.263763489686138
Na 5.832063840225103 11.820227569499027 10.464460061655393
Na 4.224008807076265 9.03500077574839 1.9773485251946163
Na 1.5697504165550193 6.759078996786929 7.9159314984586615
Na 5.201956751611031 11.537527734238198 4.560487180768699
Na 6.085087299459975 13.970927412416083 7.42195032923807
Na 3.086571571712051 9.342780839427778 10.383175110087443
Na 2.1057745210591916 9.633980810308554 5.124898639318211
Na 3.320462658186104 11.816348130184387 7.763148302771158
