43
Energy = -46.30780883 eV
Na 5.350913606572551 9.893657000257571 1.2270354575654736
Na 6.734524308097119 6.277805436847213 0.8558579294668027
Na 4.428769435721033 2.9812987586118127 1.0362524818155592
Na 3.149000598246973 6.6630795404405605 2.1063332483843316
Na 2.9908990871428145 9.799352320186287 4.342214884612007
Na 8.93487172039205 9.41727760843063 2.5904509580922106
Na 8.116943202061632 2.7699378134194066 2.022146834587137
Na 9.065721323259988 5.865032709289883 3.7073422990947513
Na 6.448082850204336 11.418677445628312 4.7548699262654495
Na 5.998212969182255 7.916856805852861 3.830006381917695
Na 2.1646867577622717 3.558581940694562 4.070339640933341
Na 8.547040032524308 8.716875425944705 5.996430191144079
Na 5.422218412664275 0.9988937003295689 4.141865494287941
Na 5.625996724859906 4.417018246182053 3.7219921997432164
Na 0.22440861776170715 7.324343598842699 4.954095791677444
Na 11.762962077118802 3.906743918059629 5.102284876002366
Na 0.1522687553795492 10.85668514857989 6.185233584780785
Na 8.256271378523687 2.6924484712949193 5.735420901841775
Na 11.838597580839707 7.9380019187371715 5.177508851508575
Na 3.361457757855498 6.360352153017858 5.660567015909805
Na 10.333660091230094 11.514762717038046 5.691834106517294
Na 6.685268886568287 5.760272348578415 6.488168850301698
Na 14.02538807215356 2.653005005536954 7.529632407509305
Na 5.1921900995310954 8.966656038688054 7.058522717950199
Na 4.4536901399577244 3.0311105603856046 6.966524012699839
Na 9.884779385025924 5.738383748654508 7.3055238646659015
Na 3.5580304184593188 11.837071052040088 7.523613736893877
Na 13.046878509579031 5.889823957104883 8.373905682454843
Na 6.687701905176458 0.6449446501240645 8.276126118386772
Na 7.554332307880562 11.17068220610638 8.445153796158525
Na 1.8209883549949668 8.517601792793721 8.221367035270882
Na 1.3162581793886663 4.763894675775379 8.026341816252163
Na 10.842776269448335 9.053894368669864 8.704058496284338
Na 10.616014782539047 2.602449608228319 8.585047179430786
Na 4.39210455352851 6.0929474029147395 9.000994190783972
Na 7.555608687006194 7.588102573255176 9.223096080875688
Na 7.3545088913805845 3.8838801844552484 9.439194872539638
Na 4.640736944383614 9.3599106410728 10.534135683893595
Na 10.16554511976688 5.899090373274103 10.890220917368442
Na 3.9653621281532874 3.074697071133176 10.577708770077948
Na 8.597560429225766 9.200533156633687 11.856255800193729
Na 2.248138242224562 6.3691243630989245 11.51623734573187
Na 6.035276160660582 6.160887298224147 12.09473332256088
