41
Energy = -43.40109401 eV
Na 1.068508083511545 5.659596275381291 9.190817300237299
Na 2.079527283329064 8.92748667688406 10.37566128985718
Na 1.635910979972446 11.372406119675308 7.82544461782292
Na 0.7926970142933084 8.120863060979966 6.837272587804104
Na 4.262886005547578 5.441507296266116 10.9791564681549
Na 5.495395846403615 8.76101739330861 11.965294898617312
Na 0.5238313044301326 4.577996395767257 5.91966054585801
Na 7.170942707483061 4.8714778422653495 12.689121699852466
Na 4.490094259182844 13.377632268204792 6.559221467217298
Na 4.969556464538924 11.216580858828015 9.399858238306448
Na 3.798017846810411 3.745767045246376 7.809161119667396
Na 4.344317726634952 7.562157447197705 8.19381874218027
Na 9.063449248740195 8.094419966805935 12.830628146423077
Na 3.9076108369292855 9.918385060849083 5.585834474780898
Na 7.818491636685066 13.022640066955974 7.910795989127939
Na 3.52194877007002 6.149396432904798 4.95865305014469
Na 6.941682032176715 3.1210876686878466 9.678980924811235
Na 7.559250267292097 6.995395305909552 9.83121077364552
Na 8.40528555146579 10.721175653705252 10.624932449342877
Na 3.2855909246724297 2.4856043369775107 4.569830466731199
Na 7.313277748026849 9.498625365281779 7.293449661386882
Na 11.282132172273995 8.337576427915016 10.218363053543115
Na 6.853674269030557 11.665233858997562 4.53462518256571
Na 6.797725839577448 5.411105903805977 6.762865495220223
Na 10.712476760499449 10.851892222090488 7.696433657515919
Na 10.182966101627137 4.833725094825955 10.556447486277849
Na 6.497670427582033 1.8146625103590315 6.340134860998621
Na 6.53572802546841 7.888559288336216 4.1410254208216415
Na 10.049852795391617 13.148793133590813 5.049117068902172
Na 9.77002880577651 3.363171338286984 7.294847653541427
Na 6.240535978977796 4.129191589196119 3.5311606605163552
Na 9.989193322752355 7.170371177131636 7.213212928793017
Na 13.792415754970088 8.865509004077415 7.494951261976355
Na 9.72095234301967 9.55839797130863 4.395365531433772
Na 12.887040332015767 5.407862104292858 8.041871697952292
Na 9.423361336350222 5.643406863474905 4.0773425749020245
Na 9.24551343655024 2.0984839377914932 4.035498944803015
Na 13.023749967078855 10.982235578660472 4.774184821500911
Na 12.501466918558311 3.8934531477398147 4.868596065400704
Na 12.617204574013597 7.417998425108062 4.538107301963573
Na 15.557593858830336 6.2300769577084125 5.730133482815797
