48
Energy = -51.63135046 eV
Na 6.137212926775031 6.86521030293409 15.070023503150914
Na 5.198823031616494 9.629717507908552 2.1887813765574355
Na 9.719920989903176 5.346680858667434 1.4406971105917565
Na 8.913542384953669 8.985990833143426 1.796508902915442
Na 6.679655192845754 3.3602861883308135 1.5261098800659858
Na 3.405338598850673 6.407696720455314 2.469173002452624
Na 12.446483231274836 7.674501614966349 2.435810895660112
Na 10.133931221330123 1.6885903935770674 2.4386396233053222
Na 6.811407060206578 6.489942228546991 3.2700944315351212
Na 3.585848181896935 1.0589563086381393 6.219840522623347
Na 7.471182433190416 12.20438079819588 3.4520801705741095
Na 12.333839618616885 4.2787397833517335 4.260601990023759
Na 4.383383538564623 7.346148448322614 5.927289046583452
Na 4.5745742503614695 11.044874242239253 5.541097177258496
Na 10.004342490192203 6.845991703184065 4.64031014855083
Na 11.02282953663467 10.229492176179427 4.626232674866274
Na 8.681637145682478 3.769141762508276 4.640963940079507
Na 7.079195485926273 0.6948407295170989 4.283222669394957
Na 1.7571119221502776 4.40394736081554 5.16233120867402
Na 7.493208444608465 9.224751826160931 5.090535734691627
Na 5.1743475181723495 3.7918818891524246 4.6989556383887905
Na 13.174154729297905 7.341370360337713 6.153964297778176
Na 1.1035553746227005 8.313218000389531 5.413819135561159
Na 10.812148108572858 1.4934041095831352 6.1863203837465575
Na 7.416592235153456 2.2645397076377742 7.5461846601471185
Na 13.718095044340208 5.6123900934945725 6.921585968935166
Na 12.562118460672123 10.417680729466099 8.04742306294393
Na 4.25498460242931 3.855313874513695 8.020017092352672
Na 9.872349573049542 8.35919080635351 7.606813176514073
Na 7.241645445959602 5.94041901127786 7.0708940154527
Na 0.6739341444946383 2.8420623419460176 8.157495465887346
Na 6.564694068156443 9.49013005493746 8.42497361177575
Na 8.86510270439675 11.85347250148772 7.085246927396654
Na 1.7657187210090752 6.25867624858186 8.26709047247118
Na 10.28415268226917 4.626171639583088 7.936231658021038
Na 13.64427745711361 3.991677930233134 7.654093689553767
Na 3.03177052059241 9.63473788506483 8.559520691835717
Na 9.624189410712217 10.230155300395504 10.449615373974696
Na 14.40064202751555 8.648895359751522 8.65571165420707
Na 12.278140548294743 7.093674969885792 9.739568964435394
Na 6.475151646024944 3.733523878311432 10.776469321445743
Na 4.898609928444712 6.703248336937303 9.767107470746442
Na 14.412558189753577 5.35850460974492 10.51289855014278
Na 8.482250501360483 6.809558199057594 10.40177226543896
Na 2.7401548421133617 4.194598444681235 11.240555114891999
Na 5.551851753235819 9.301401433707253 11.784760332490887
Na 1.955569783438095 7.87443628212766 11.51864584107655
Na 13.644277457113608 8.468670984182578 12.075712521653859
