44
Energy = -47.55646292 eV
Na 6.331896699288073 9.024385548955122 2.2854521578902665
Na 4.702769340297564 5.877207400017305 0.8184062481596568
Na 1.0954742369194441 5.979263082169634 1.7016874366147094
Na 10.215490484975547 9.519833586413254 2.0410227363070423
Na 2.8328640239362244 8.995912090719258 0.8402863033362336
Na 7.496411769199101 11.535618742587465 4.654754444427054
Na 8.22446302089248 6.498131182564134 1.024452038670771
Na 10.404252488112308 5.030921271193867 3.136122659688186
Na 10.976359268844144 10.982912629461635 5.421022657463066
Na 3.4294294749970735 3.6746629212082196 3.319848853738681
Na 5.806652892150695 8.763255806679487 5.837705037793491
Na 3.6184102148411332 10.899876141974714 4.026591336436428
Na 6.9247282857916534 3.0790337280641493 1.9559379500014067
Na 12.465618903888604 7.791275234949415 4.449095018218635
Na 3.5930831276136095 7.236602775305726 3.7890056942117285
Na 0.5458884925247879 9.082234391951536 3.612128131826277
Na 6.8966367216499735 5.38823953363589 4.364031354909327
Na 9.066593750217876 8.10010255192631 4.821765655909724
Na 7.623584813233906 0.07841369955340945 7.776508306598716
Na 0.9893226825567372 5.869349881899045 5.5435456022706
Na 9.216553744331467 2.029355219288807 4.937418359501951
Na 5.606784151383675 1.778316892705689 5.30031468255161
Na 10.779030000754373 5.030704670318281 6.5194893363358535
Na 2.3457193277069024 2.784805420650815 6.656522984380516
Na 2.3396600131259704 8.856814621497962 6.926410083227119
Na 7.7086085062265495 3.528699256269843 7.6022507772368515
Na 4.673922839249126 11.628629316335346 7.679688426715717
Na 4.56472585902911 5.454487899428903 6.9099298909368585
Na 11.04110283210654 8.339626817313304 7.98178085950278
Na 8.171362578232294 10.513073685176053 8.10602782865989
Na 7.908765989802504 6.853356268934274 7.809584414081218
Na 4.850438847629487 2.266846939727418 9.059712785807122
Na 10.759920910190324 1.8483456367002011 8.624176489516847
Na 5.187470461602253 8.42179066257659 9.162703417666057
Na 2.4919178476297867 10.01998536560745 10.38957596450629
Na 2.516063734485249 6.153807278812482 9.555449369509915
Na 8.020478896959151 2.1089193028314424 10.913704445244687
Na 10.0140677478838 5.136727133236223 10.075040531592654
Na 5.94357193339778 11.161008391618294 11.11701836153351
Na 6.140928552115968 5.244173964287448 10.535032923801817
Na 8.242934391355922 8.186377587953722 11.146564948605842
Na 11.213523892915745 2.5881798301467542 12.17458647171757
Na 4.718793500247043 7.929529261150015 12.479575052820644
Na 8.622987971336304 5.048471597830283 13.23733719170275
