45
Energy = -48.54338251 eV
Na 6.479912901967358 2.464694923454142 10.278406838415524
Na 2.1630017884490735 3.1613742895651162 5.636765319407008
Na 8.667471602253185 7.645285144082502 8.377535495074099
Na 5.809714314538314 5.852928771800815 9.354900117921451
Na 4.14743350088889 9.184862261552066 5.0382203681272495
Na 4.329067822333799 5.67257564122285 0.4922665230540638
Na 5.143754125447977 4.4238683154415535 3.57242917506453
Na 6.3349017727898325 7.997481445407818 2.6156349858462495
Na 2.4033356531822108 10.557006492692722 7.889100471001457
Na 13.071081571867328 6.512991821100399 5.119257101782713
Na 6.294219189981948 6.562060353647972 5.880560074383434
Na 5.320416832883153 3.385655031270908 6.901014763480499
Na 10.487790414130508 2.2905446313605453 9.580601330416776
Na 11.35225360341935 3.0902795491174446 6.076218430342852
Na 6.058617421763896 2.142189807869996 1.1211986691769498
Na 2.289961124404783 6.251834370464799 3.391525742158931
Na 7.935131512349791 9.724582893663742 5.442516809080853
Na 8.437361486903793 11.536789886085403 12.431669777904625
Na 6.934867116491344 8.48482010886632 11.598197449918217
Na 5.240661593325056 11.666755170493254 10.526698166111004
Na 2.5049397926243637 12.271614706695996 4.550559188159421
Na 9.571715412818882 6.156434412850902 5.153206651789175
Na 2.9915853472798895 3.794242501267348 9.676368354717262
Na 2.598404728830236 2.823861663660923 1.8102527817970069
Na 5.433882298668043 12.307357151846634 6.79349948769937
Na 8.113405025616887 5.22581326137668 1.6363351691454096
Na 8.501342547085882 4.191172152482248 7.725460551917945
Na 2.9046980732859384 6.550098873178925 7.11683503200655
Na 5.724762701946039 11.578551191178173 3.0324247980793744
Na 11.664577621162854 5.809119554142577 8.565370215757525
Na 5.249488342487311 5.125898065335563 12.60774938616411
Na 11.40583611212342 4.536415603078607 2.672399520701706
Na 3.8731416512753776 0.5765488334233314 8.010893550747591
Na 8.417635726001013 11.15247961180599 8.887070646082256
Na 0.7359551985183033 9.204291157906367 4.725855564941572
Na 5.540475363048488 9.12755061274979 8.217348876590451
Na 8.911598601235028 5.317780117631835 11.195874206496933
Na 10.40517881812478 8.327682862398447 2.838316084620434
Na 7.833113041074593 0.8011133840930161 7.210363758037893
Na 8.20297358634255 2.808339452342085 4.243294868687246
Na 11.320635211940994 9.164940733701739 6.774043234495407
Na 4.967702299199669 0.9229873248334677 4.340795039250083
Na 2.926770305056346 9.417905010216066 1.7936058132881387
Na 10.539956903882286 8.878577768793804 10.99131884386175
Na 3.2849928079172974 7.846365950766807 10.631763633212609
