46
Energy = -49.43528503 eV
Na 10.491855923202706 7.9904631598588445 6.223017293080001
Na 7.558872257760753 7.6987444966065235 4.368848050944195
Na 5.303021932212656 4.664363742527498 5.97539304080995
Na 12.815622943086167 8.21594130833423 8.963208093434693
Na 9.096789923539374 4.645131923822483 5.564134106864316
Na 9.976555008798941 2.4600163750604853 2.86528954962796
Na 5.031157623116916 6.348429408521108 13.210233741576817
Na 7.613704625244199 11.259702634604748 10.662705204970068
Na 5.754477610947694 8.023602127605164 10.293267409419563
Na 11.423823586523241 6.93141099623308 12.066442748951388
Na 7.818331362245604 2.907087648267325 8.40395475911013
Na 5.08092759310212 4.433588112018019 10.01591371380366
Na 1.266752073480703 9.205821523834125 7.167896055709039
Na 2.0250331353887705 8.996941682350498 3.4097989683182552
Na 3.8210597753235547 11.497542150811633 5.751475621901143
Na 7.337844653535082 6.470407512641397 7.815454301897609
Na 8.108014380840658 8.473677001065823 13.1774344400279
Na 7.198441838822666 7.453020809637653 0.7295488976803238
Na 8.149748604365335 5.379150796385187 11.339324939648145
Na 10.818860359013497 5.016722714313067 8.762757035706773
Na 10.297492742083529 6.142577582668568 2.5533159362406623
Na 10.734813892211253 1.8497705112041978 6.551961898173919
Na 3.6937209915474387 2.9131093669985884 3.41251236279256
Na 3.6543434289995496 8.159424815972761 0.03215087787636281
Na 11.11430739862458 10.506298236526487 11.672708432852891
Na 8.588247536347417 4.010957018492728 13.25025347362039
Na 7.02441734059215 4.446954800815802 2.7658319203670803
Na 2.3048517863774594 8.177988394763334 11.260347404223756
Na 4.938390248375243 4.746238619310458 13.210233741576817
Na 2.801512814268876 1.9362268583815592 0.2392594685374835
Na 6.241623707400564 1.5217048539876323 1.184572366213915
Na 7.018153189499888 1.619711750739537 4.982594790175352
Na 4.8714822410957614 10.079761523508918 12.97145614002382
Na 4.5135747933168195 8.209084632220247 6.1735376348821305
Na 12.51309898764389 4.992345202693166 5.584245098799753
Na 1.6496266581239423 5.343876904613506 1.2812394619172944
Na 4.430581292612448 6.53856398310563 2.9368893869995634
Na 7.253044491941011 10.18561070966365 7.061870528516036
Na 9.361362357507408 8.361176503321666 9.699624913154006
Na 2.8317259498845297 2.8758834244211817 7.581918114034378
Na 5.488234725538058 9.96517407224517 2.7745184054725556
Na 1.787314599459911 4.513422293527348 11.18611593333792
Na 4.039510791651367 10.688238042139071 9.147895081546242
Na 1.7351835245099918 5.717663661840577 5.104073552135075
Na 2.7865109489218987 6.344186440409475 8.411633668739212
Na 10.685110412597204 11.131415733612693 8.187335555856055
