49
Energy = -52.21092246 eV
Na 12.621664882467229 11.73807733313975 6.257683158716561
Na 12.55805169251135 8.155820061676652 6.805367922305329
Na 13.51904178125783 6.933832670660476 3.64695515617677
Na 11.86751208013588 15.165948271780652 6.042249228080236
Na 13.564049432027913 6.185328873130543 10.27157166202357
Na 10.763928937130204 9.453030003473078 4.095031578101644
Na 12.854301258669329 4.742170660809861 6.889638699789122
Na 12.490736483279209 9.893280916217698 9.798377260450579
Na 10.38923676212334 13.012556567032481 3.534008247736125
Na 11.354397508934865 13.35475212648578 9.119035146662872
Na 11.498813014820257 8.112109118036393 12.788358514378553
Na 11.622870395742709 3.0434578528345066 9.72433201412313
Na 10.740481027744822 7.361457244404616 1.3102077156622418
Na 10.369795828256748 5.8133123148581705 4.626880975597008
Na 10.871606308112154 11.754306849849613 12.238247384647103
Na 10.4834437616493 6.5885108306866815 9.094039435975077
Na 8.79061865456034 10.56017728001916 1.210824165767121
Na 8.029956625330318 7.4476369327907035 6.71234641248762
Na 9.53319314038094 10.41108726439178 7.669339262297288
Na 8.6940292485473 13.728994442128188 6.716923809644102
Na 10.121238098569771 4.817114896693828 12.30152218826604
Na 8.899241779424514 10.242682476174984 14.551681963439334
Na 8.998353585099316 3.8472603723756444 7.30700936012246
Na 8.722571823452967 8.986261937616261 10.986196956281809
Na 7.606553635843177 10.977743422602474 4.509970935406387
Na 7.593758264209212 7.6556416405761905 3.0031803333040545
Na 5.108933506146604 9.929397796264633 2.1675667768833664
Na 7.785205737891812 7.028256291166068 13.897588224701197
Na 6.957101063454005 4.440735030052206 4.432111644188725
Na 5.081174232319385 5.4258195439007455 7.316314294516438
Na 7.2498722243251095 5.676667346190911 10.227703199391897
Na 8.014660075408717 2.193744512455276 10.308156949382106
Na 4.2082380502998165 6.360621257354274 2.787399757472977
Na 5.779018407007808 10.09342496391964 12.769547508631263
Na 7.709419400735587 12.317781565971798 10.277570745411703
Na 5.500362141216052 8.734646997017796 9.336308821410272
Na 5.689693354605242 11.660891979665932 7.25632332537228
Na 4.915731816190784 8.55977137131344 5.491017907860802
Na 6.7082623103417065 3.7105085848013166 13.320294877058075
Na 5.798700338683379 2.0224616069567363 7.236095095022769
Na 3.6117089401296796 3.3497075293837733 4.549223010560113
Na 4.584682692317748 6.593232605282453 12.400079709724354
Na 1.9787791410649909 6.3971991154607455 5.8235428535953
Na 2.4109834873700593 9.257063558204043 11.514492906015045
Na 4.509475915840494 3.3719895396677457 10.467974501214158
Na 2.454998818150748 9.684198994134682 7.896586486721357
Na 4.09077105428387 12.135564406631717 10.28826356024765
Na 2.4491942540528373 6.372098134006469 9.477890092325023
Na 2.2027501783015677 3.182261910739426 7.753403577811236
