41
Energy = -43.61037291 eV
Na 8.114207542271362 1.0072819665873773 10.639181247761584
Na 10.060191085463089 2.763671063340948 7.975540869461504
Na 6.49327828179066 2.6462449696098713 8.013846174295052
Na 7.849750974318273 4.138046558600622 4.970577016078941
Na 4.325949451911046 3.8116810043741083 5.249495832754077
Na 11.221834257262227 5.426136984669406 5.686936715191258
Na 9.289359279209709 4.244766371368105 11.080079586272932
Na 5.3358160750122074 5.605350569356862 2.3349678008469548
Na 11.815114344712423 6.2926466490363735 9.29236040501027
Na 8.929109630907762 6.621874650254405 2.591430499104527
Na 5.600725293737867 3.8167878350626747 11.300868119005468
Na 8.442230297535207 5.966532218952202 8.045290176725421
Na 7.033764854696416 8.288191053781924 0.04954350769410921
Na 4.889396596178929 5.79481202750815 8.069195045601305
Na 12.338043440106986 7.819073730961306 3.2755837766514944
Na 12.602619641846456 9.992679222581886 10.59291576612269
Na 12.956835048890254 8.759579578953105 6.829791367765965
Na 10.320331127996987 9.422241992775627 0.7407950923041768
Na 6.332402250907106 7.363021891746338 5.128727924126262
Na 2.9541150925669926 7.1290161594900905 5.252236727929939
Na 2.9922897945610445 6.54465025581338 10.807492530954079
Na 4.417034238231791 9.042704275110085 2.4726278016088354
Na 10.168687341551728 7.584993239998323 12.199979188357007
Na 4.51161864023262 6.523665562455138 13.952691214129748
Na 9.558393015044253 8.448840478270753 5.543191221066468
Na 11.299163656364048 11.12221182145607 4.167500080143466
Na 7.738037776003407 10.262307070383361 3.098765716182766
Na 6.783236916781278 7.057704217750027 11.103814881531292
Na 7.799693138850969 5.347849233014354 14.136845547675216
Na 3.37003703500991 9.132075219475068 8.329434520433363
Na 12.11293757792669 12.074173868186689 7.574111322704922
Na 4.615425013363394 9.84264871980944 11.713814343365454
Na 6.739656820292265 9.08069577750004 8.202036149665787
Na 10.022845410462633 9.317991759022872 8.791731075457623
Na 5.06799093547299 10.795291914635161 5.555702951842882
Na 8.51027758560472 11.771457219918396 6.480776345110108
Na 7.1383301687982295 8.838964431121829 14.359756507741134
Na 9.4339475175217 12.996902986313595 9.813015747279957
Na 8.22205017308718 10.360844771065304 11.428646900812728
Na 6.403067764655573 13.047258811449737 12.4475690877927
Na 5.778670197941414 12.24135891440519 9.048416211882955
