45
Energy = -46.9689589 eV
Na 13.302416650530308 8.300305054051854 6.417627187611511
Na 14.547337900855602 5.412611918838842 8.099029939364994
Na 12.534350538051331 3.576146806517385 10.24214809637282
Na 11.924228364155262 11.224752173311582 5.100019063036106
Na 13.45790527581514 7.989400424834118 9.967095688609982
Na 11.758040404500875 10.62843665484112 8.498952352090782
Na 11.260928324442798 2.5839327942108876 7.03472188936033
Na 10.634701397088763 13.706623930431121 7.617285662314199
Na 12.995173577448078 4.972564833616348 5.080198089423871
Na 11.59280087420034 9.898132691011014 11.967988495589468
Na 9.559539202529026 12.378536495405248 10.681626414881602
Na 11.491816976839091 7.693299565048313 3.414923923845524
Na 8.878696312525882 13.123942409613045 4.895949519723789
Na 10.814874825361851 6.314011841087663 11.715665568284741
Na 9.507005607552461 8.69284342843457 6.193894224838475
Na 10.873108103845187 6.001683710880298 8.107289778508001
Na 9.132632228968205 3.2932252001405655 9.94517944236937
Na 8.59998691416155 8.777663367889993 13.16177871897709
Na 9.045384276860238 8.675330067996782 9.65304120248625
Na 9.467435672068538 10.442723020847632 2.724870198296295
Na 7.787946910616125 11.41445869522028 7.7560662148881105
Na 9.497248138993731 5.0434101451578375 5.010618229506352
Na 7.918563791091982 7.400800599559516 3.227165188352858
Na 6.927954867971227 13.33278471629116 2.1792192634511887
Na 5.254530282108488 12.378515026513119 5.239122323430885
Na 7.08239971078317 5.791876754134318 7.82938676168995
Na 7.7169073285652985 2.512117638667321 6.744137297238266
Na 7.362244406453677 5.943022633702753 11.421528900432785
Na 6.027440899373442 8.801546282095119 6.087240438250163
Na 6.5153773935179 10.913263733293189 11.048550328803838
Na 5.75117305352869 2.874725398656309 10.192725226572374
Na 6.003325688878615 4.781431206793114 4.5543550288858485
Na 4.2665380718697765 7.370031837882897 3.1725598420495453
Na 5.955765191621021 10.1481291878094 2.6354331141262115
Na 4.966129992533901 7.836758264915634 9.594003048156639
Na 4.216955259098223 11.289843793729503 8.267636849858093
Na 5.208867018131082 8.220479047758456 13.220186555158302
Na 3.405772332067284 6.3927083940988 6.358153251907002
Na 4.1671497158758015 5.027514636014942 12.46521327546833
Na 4.328382653446231 3.152603947071459 7.055513772871576
Na 2.606060063485693 9.854533434303715 5.2072599839289015
Na 3.1063614845678855 10.458209167908567 11.359595403936131
Na 2.4926232024207695 4.973249684984687 9.318855554091288
Na 1.6708177084297942 8.650547324512386 8.406907158275827
Na 1.6990067437338405 7.380496347455679 11.699753936946516
