49
Energy = -51.3618583 eV
Na 10.270753307732406 3.5313289311762306 4.207248955271725
Na 12.079713740034604 5.695337745936457 6.404094112441661
Na 11.753039788898056 6.487155665275399 3.03202878645688
Na 13.643926404451381 8.656529719378012 5.014386987977981
Na 10.195998189822436 4.203832192535019 0.711437678394139
Na 14.269788419854686 8.02737874056476 8.410288321709457
Na 10.502765383875 2.8215308010147533 7.536600330574731
Na 7.2300153809285295 3.774910345532994 6.110872468635073
Na 10.364195443844984 9.643107060809308 3.82507780718894
Na 8.749329995788596 7.43405593735284 1.5108682117625378
Na 12.52648756565163 5.525966658108938 9.947332986678664
Na 12.42636128820899 11.796960767732795 5.857795695545578
Na 8.603465532801145 6.832246273213328 5.0087269274489845
Na 10.854266903078894 8.825054585272733 7.438227138528079
Na 13.14964901216717 11.243307221308722 9.225672345216648
Na 7.223452536181311 4.416781529266638 2.601457907351974
Na 11.87715854143234 8.717868073607262 11.234279924556665
Na 10.612837551745722 2.9606523572210444 10.959627791629673
Na 7.321520611096545 2.80770576332974 9.333093798496689
Na 9.190015420444608 12.743935893227933 4.909314911069606
Na 7.139961490109217 10.27562116898764 2.791056210705562
Na 9.15066679404274 5.9092038812932906 8.517082204150448
Na 5.36606190216978 7.41199953956041 2.0421576080113497
Na 5.896224509994135 7.090623588355518 7.238367532870349
Na 4.4758383370265244 5.163147142742859 4.500620684640256
Na 9.860579323111198 12.073396003132812 8.292844474592735
Na 5.915010655463277 13.117943959517747 4.117610874423145
Na 4.131683098344393 4.075158081914974 7.974358766220797
Na 9.76135245611179 6.268494789748268 12.064466795103062
Na 6.374126534882872 6.187941623955545 10.678675526291377
Na 7.768879733158742 3.475234849215786 12.734904659933422
Na 4.270605390203993 9.081831071192662 4.773829752497864
Na 10.5767594838894 11.982989162158622 11.667091282654257
Na 8.350856624177476 9.058196286351805 9.889633008748785
Na 4.409135208945903 3.364790654311785 11.288467431260992
Na 7.474330587783223 9.989775574574505 6.319922306007534
Na 3.7050036350972317 12.181428137361488 6.4296169409966035
Na 8.648487996828665 14.582562612698753 10.325906459269321
Na 6.676129706233754 13.246720098217684 7.794049545925546
Na 6.967673708366337 6.68003322554143 14.15460280785117
Na 2.1413722002285196 6.4899562844897885 6.4365717991880835
Na 8.851429704957024 9.505612949129583 13.366095376919027
Na 3.1134426889214484 7.235234849272782 9.737593441711363
Na 4.941856556264369 3.7933148070100287 14.742363497689391
Na 3.4889712244412685 6.443409235936255 13.014280297648748
Na 1.8207174797114751 9.690659523973903 7.500600665766531
Na 5.2758556406930115 9.266604168289984 12.402890848346066
Na 6.911588632708816 11.936086092413227 11.429237337075524
Na 4.985918087339267 10.211003212693262 9.020987151442128
