46
Energy = -49.06124616 eV
Na 5.754618315407808 6.204754958201639 12.8305023557532
Na 7.91380220499268 9.011975357897224 0.9865033481787949
Na 4.194875588783875 9.433829228583823 1.5983248612809922
Na 8.790016805583184 4.796264698587389 1.6108134250260355
Na 2.654798645149948 5.937760005125024 2.2424062402860336
Na 6.476338989656099 12.3784320397788 2.239822507870291
Na 5.283250567882432 3.1366776916779777 2.096245285255274
Na 0.928830043594564 9.19387764247302 3.4365836876251445
Na 6.259304052405398 6.457248897480598 2.960265741002603
Na 9.742050601854539 11.309731776851704 3.7549107347226007
Na 1.805621594295861 2.6357359356205112 4.136801695929874
Na 11.234977644752993 4.752209290774769 5.179048625524488
Na 9.738617073829284 7.661261644492713 3.8880203784415457
Na 10.866708521966022 1.3945631904330265 6.527152023877433
Na 6.823035675863348 9.662333728376046 4.24277260214635
Na 3.6977953890530486 11.50528840130181 4.586558115616091
Na 3.793506589583873 7.987106841285197 4.814900851109568
Na 1.0361802738291825 6.019762635767322 5.714856630098507
Na 4.366390454065964 4.530589602698016 5.1516952876819575
Na 4.665583071035125 1.1173417169855966 5.956334941405486
Na 7.820829517578463 3.13766611188098 4.905736167991583
Na 12.416850398928872 9.0788676065442 5.504109030581349
Na 6.947456416484784 12.518811570799075 6.2319868704165495
Na 9.18102220607133 9.722150116748649 7.101570679917871
Na 11.057452999480384 6.928592640813226 7.941426402515463
Na 7.374181478242381 6.472807655684487 6.2022304873951315
Na 2.300788704651156 3.3080318744342345 7.885953354272539
Na 9.314906007763955 3.9460855506435113 8.15721303035278
Na 5.610237513002645 9.427738853923659 7.438192691515634
Na 12.796914601539775 3.8147346060956906 8.588051595618833
Na 5.924296552982324 3.6220880296057425 8.102007923089698
Na 7.805100065201855 0.6399639794214027 8.367933019731176
Na 1.8908324145454394 9.338019975758137 7.411661673324348
Na 4.155503100034047 12.160986887298112 8.76397065706657
Na 3.954297476131992 6.465658422238703 7.930689022813705
Na 9.922760889014933 8.66997693320014 10.905445543135636
Na 4.637325136423219 1.0208103575075615 9.99300795798424
Na 10.725051147759755 1.4643035409810115 10.356147728269065
Na 7.275395377945307 6.861923482401891 9.532955528981232
Na 10.509771615079128 5.080432668990266 11.199257503169308
Na 7.105519860711157 10.754100156296506 10.211925276949467
Na 1.0733954380568174 6.444645641000039 9.741340325270535
Na 7.503846234334803 2.8974120801539467 11.243967121011396
Na 3.9906017656143757 8.760864474098907 10.627663164780198
Na 4.270264572545021 4.877899612559053 11.046469251395957
Na 7.4644817254354265 6.514067205674348 12.830502355753199
