48
Energy = -51.6796932 eV
Na 3.8171238137665284 9.933382994629666 7.6315257999364094
Na 9.512190843972892 6.703589438759659 3.943833481492974
Na 5.799093793838043 13.701948542528832 6.586909475401976
Na 1.0506682492027013 5.438231414255715 4.937321063509169
Na 5.701629226048499 2.483916498394401 6.851700576778196
Na 9.10141278883189 9.33191391244597 10.55732890610013
Na 7.037020054721703 7.198818792870496 1.378201822214163
Na 7.596856478215544 11.997234651565154 1.7810133135904618
Na 4.630210278150563 0.879452480086097 9.804674385690284
Na 5.653347281795891 4.625109890615062 9.544942677604254
Na 3.368764121354942 3.72899968605318 11.811583313290592
Na 8.08175563554035 13.701948542528832 5.309540174523799
Na 11.988458237045803 5.773658248294606 6.3859480202800745
Na 5.35193216787618 3.4898809565478333 1.0470977408840134
Na 12.112375704989283 7.246825027052172 9.64904076578773
Na 10.108774452126072 3.1273570343183885 4.723490442799149
Na 8.848770614883112 4.004338534723038 1.4768819527601427
Na 5.139568930284201 13.553883124431618 7.704868977579291
Na 8.269215075455874 4.953149991293223 7.124340281355756
Na 6.518359863734267 7.715418406330346 8.602933576582666
Na 2.515205635752815 8.882012740480027 4.549743598699935
Na 9.106159123131931 5.7143085558363405 10.46556953240612
Na 7.023214204600336 1.2721343091708364 3.721478124670439
Na 8.836847020668435 0.7623169977852764 6.937320453970142
Na 7.954741339451133 2.2614686786239266 10.117380583011967
Na 9.646434271807468 8.21288421708934 7.226126941487893
Na 11.138749059614241 3.289648219054292 8.690409743569662
Na 0.2581040911613362 5.135844116756527 10.315062604008041
Na 5.160610063124185 11.653133708211477 4.64501338322596
Na 10.236029738039818 9.361891795876174 1.4698115760088997
Na 3.703517818046925 6.276251870835268 2.5521390902216834
Na 7.322165807219952 10.971109789548368 7.634909290876816
Na 12.106326197255576 9.259614965423186 4.662050164778991
Na 6.223567136000124 6.966431194443844 12.191242501080348
Na 2.4987395897189257 0.4585429011954061 6.879706714577661
Na 5.4168399541929775 10.368332120734776 10.777713588196972
Na 4.184030515121737 6.0928246371591905 6.484434331684672
Na 8.711272063134215 10.272557218008382 4.450193717219531
Na 4.634178658278822 9.754920920874047 1.7082759043334446
Na 6.5910173400108185 4.748636924214738 4.103786427765633
Na 3.5003041912840844 2.944681971223024 4.224481158976971
Na 3.264883220785487 7.2389854404696345 10.19728405224972
Na 10.961167203656139 12.507541503817148 3.357977506621338
Na 0.8796040356807537 7.664763761649959 7.714047168398247
Na 1.0673958417828353 1.5049370053802371 10.224610941240048
Na 6.178289573071017 8.210760368356675 4.884476048931418
Na 2.415872571983917 3.7349603846128203 8.020688616159692
Na 10.84338378830938 11.676534404084213 7.007067152186438
