44
Energy = -47.28695768 eV
Na 5.613681471896645 7.810076079847899 0.49330974094203195
Na 4.25225637782966 5.562475344124009 2.851364366841528
Na 9.209877858297467 7.099691570154219 0.004300760449557041
Na 1.4300327894704383 7.560178284666415 2.994131529522812
Na 7.3352095717268995 4.262113794862785 1.284948698551739
Na 10.693694379938059 9.610021487980378 2.1157347392348633
Na 7.398194413404165 10.654542030235083 2.282924240836388
Na 4.698992796283562 8.967612855013744 3.7966048061902034
Na 11.325366864014299 6.142356937023534 3.1763882768661116
Na 10.000566548653717 11.956244194042785 4.671197568197489
Na 7.242446381669632 1.1816073525392055 7.482616664811823
Na 5.593243667126016 2.8884346885656798 4.504924270504041
Na 2.719817278150128 6.838652944001015 6.095981160274899
Na 7.855330520120453 7.0891674922593175 3.1269258249109257
Na 2.117141184505821 10.500399423430299 5.783172185257661
Na 8.885642430014622 3.706810959877629 4.61564955324826
Na 12.482784672981662 9.284364252815093 4.989115541590234
Na 1.819101300585929 3.6810919778385345 4.800717189675907
Na 8.01748445355948 9.431052100383498 5.571163039568118
Na 5.668998272098535 12.061137252541002 5.460656822872311
Na 4.896174078079654 9.191506158848059 7.400382323959783
Na 3.444146031834769 0.2956720574000585 5.7581702232653695
Na 10.975964668451018 3.313344897771122 7.475018527785261
Na 6.089545445582516 6.140519994066285 5.909931759487288
Na 3.6436479641541024 12.042425257273507 8.8251198510494
Na 10.808707187344588 9.459720578418631 8.089654739401539
Na 1.9186881075728326 8.788654814118948 9.17807905683873
Na 4.046797825553564 3.269241723661338 7.604334940147908
Na 9.797239124150108 6.594101559025573 6.26238489245826
Na 0.7527835125799817 1.4887600998948747 7.782635004187672
Na 13.046695433321695 6.265849602190164 6.830532607326885
Na 3.872493174591924 12.277099033784733 9.300829816860109
Na 7.480098652128315 11.355380609516102 8.698634457162807
Na 0.8471973277245561 5.0077747125440375 8.307293401105936
Na 9.399324434766207 2.5391485109354424 10.612690412679088
Na 7.685958452919869 4.388868377010145 8.268872912949266
Na 7.6859964097472755 7.769367535357729 8.792348475989964
Na 4.460518298161482 6.136644021330818 9.50897306920544
Na 5.33688265641729 9.371561853290565 10.969501047316657
Na 9.166275608487318 9.201601921752305 11.484166641790315
Na 10.739775283871637 6.078829372082054 9.804945615556965
Na 2.2778968844581593 2.6895879601042267 10.684665558532592
Na 5.851326925429572 2.6006633572023983 10.744223543524429
Na 7.463077977882647 5.786631588499446 11.651858838609506
