48
Energy = -51.70641686 eV
Na 10.383386533621616 11.645847800664821 4.838513858344342
Na 6.6595493249899285 7.06766372713388 12.32301901437407
Na 7.9742271345709215 9.964232809837531 2.6567494223036516
Na 2.479633531711377 3.105667534561738 10.879147970114342
Na 7.976826983897883 4.796848519998663 9.610746765264054
Na 9.62168461958775 6.262556192189269 6.838287316081283
Na 13.023094685394287 9.348214347347506 8.015429803553316
Na 2.585098828169909 11.605335416501994 9.454231885063397
Na 6.1177896424024825 10.073464106587945 9.485179122551344
Na 10.554509565278703 3.150945272287958 0.7968329820797784
Na 9.005179874985192 11.939645934749963 8.296422246020633
Na 4.721912168165169 1.8610218195072603 4.480275198429434
Na 7.224488426652568 3.707246588394229 5.946868940136047
Na 7.51987417491995 0.3490735441580793 6.870287452771144
Na 0.36693762230187627 9.304448792045992 11.434103066428658
Na 13.023094685394287 5.732683862589117 5.921550759768437
Na 5.7486717825994775 7.071357847878042 1.0931822595423915
Na 2.2833236790798477 7.164942479942647 2.0812600062632076
Na 10.941212509791786 8.153881055976612 4.191260969268674
Na 12.9714668725665 6.260864172476182 2.0988917040063724
Na 11.688763181381875 9.84036190072068 1.4317583839541295
Na 4.522478832552634 5.381785089957418 4.1045284484605595
Na 7.222360264029971 3.780141330384569 2.048140380700728
Na 2.006412668689604 10.704979055480543 5.354328344703345
Na 11.586171592599777 5.648017977158651 9.498796155178303
Na 6.060505305941717 6.751032779987911 7.173461962061943
Na 1.477079390604738 7.037688993785797 5.583684690101567
Na 11.635680188366727 9.168174605969906 7.4967361982447756
Na 4.502152288473937 5.866762565194408 10.045008942613887
Na 10.482943680698863 4.374481219669852 3.9392000641603304
Na 4.814171075946963 8.849954313868245 4.271618060723031
Na 5.838582970600389 3.3301856905678022 12.259972176870157
Na 2.554637840455202 6.071867945381769 12.953718140064417
Na 9.588357646069007 6.6943950028739785 1.035055975226222
Na 3.708106557222168 9.070813993895577 11.728434949906884
Na 7.671973394848634 6.720761422001283 3.978617236015037
Na 8.529074861156111 1.4381690655651465 10.289423161018357
Na 9.064374633802295 1.1851500324047346 3.6945767259323974
Na 3.7367261201722823 3.9211232096587123 1.0397090139413174
Na 9.000735355363394 8.285142253629685 9.715452224648951
Na 3.3405267616328596 8.656455513266696 7.934766092375
Na 1.0196510049406287 6.36313121933636 9.562099281823166
Na 1.4753520873797281 3.8173218433467255 3.83392419011914
Na 8.111236991561606 9.394037463972788 6.242279274596948
Na 5.419313231197519 2.3823447721056485 8.772477689505225
Na 5.529639218410148 11.650750826305453 6.324257659644234
Na 3.1466123538251427 4.285739889063035 7.109316653663642
Na 10.343384253753191 2.806182621917541 7.3093116036809525
