41
Energy = -44.22612334 eV
Na 5.405865680951673 5.719397273700977 0.24325500362691013
Na 8.039043054549932 7.9832692174588376 1.8311916904102323
Na 4.283269916840847 9.128264154503245 1.34999191115302
Na 8.577429498070721 4.52269597720529 2.765795058755146
Na 5.571119184089565 2.8734499880179922 2.5116527212935447
Na 2.0573936006305447 6.151439380991299 2.0798209195959076
Na 11.636580820218176 2.705287525478531 4.353895445840862
Na 11.340402517348954 6.446551045827941 4.2052393027920125
Na 2.605286500002178 3.24311926938119 4.226231329272562
Na 5.035270968316881 6.458755133723721 3.517797175434024
Na 4.079993877757417 12.477183313381724 3.762453762494344
Na 8.049319682522551 7.098550132336796 5.160156583711337
Na 6.292911088730171 10.009457628842032 4.223036451999145
Na 8.320047256747253 1.4991779555778015 4.861957154239568
Na 9.967262174020945 10.026744555186058 4.808770417883188
Na 2.6128040421822076 9.213948647463807 4.62913816948721
Na 9.446753784701311 4.3307556805382825 6.480330456303136
Na 12.80786634059727 4.537403695578318 7.24960903742709
Na 1.9926620500896346 5.92440187754186 6.164360699756233
Na 5.061178108324773 0.8020499887389727 5.730737336313133
Na 7.604666120197174 12.792941449818114 6.14090180278036
Na 5.801950330179118 4.218402039966461 5.974129239541487
Na 10.632001900578013 1.5164427095972963 7.822564325380581
Na 4.949973434780748 7.780165289255797 6.712560228337352
Na 4.465071293842358 11.201961548243217 7.298891175954601
Na 2.9387507609758354 2.5738670324510387 7.900248468142108
Na 10.870181471817629 7.651102906648617 7.619619211899576
Na 7.742510106615262 9.627825851400454 7.5451180579456585
Na 10.547774096828316 11.326679334542012 8.289319622690964
Na 2.18938860233176 8.392431604186317 8.766646336035471
Na 7.574325719812492 6.2902072128009285 8.542764287032124
Na 0.9821629034551738 4.922925311872728 9.742858589073235
Na 4.324951480501325 5.442884734165089 9.096627463801415
Na 6.955770349392398 2.6371193292092463 8.920675177057515
Na 7.2604684113152835 12.052587218325103 9.838746475291387
Na 5.461417996827682 8.80653207886637 10.269847711479914
Na 10.20221479619875 4.665332624650836 10.014849732411296
Na 9.113985049807848 8.59644962489657 10.706442313346091
Na 3.875060235391364 3.0043206545288625 11.425656465519369
Na 3.1751570181014133 6.594140505751613 12.10930904951713
Na 6.793179271427986 5.397199994419762 11.750225136045403
