44
Energy = -47.35716618 eV
Na 7.283970380472043 6.979027673439853 0.3339152906884854
Na 7.796904586231263 3.824961966894114 1.936144821166678
Na 10.724259916365268 5.94419427936524 1.3768757411198842
Na 4.190331793249012 4.487087801251832 1.9980897211450828
Na 9.386516334091358 8.786590124790905 2.8575889714705456
Na 4.036955655420092 8.10946175182004 1.225557987370061
Na 5.537867821047012 1.05265453979332 2.9722601223129708
Na 6.1857249104496175 7.101397639675906 3.659720524803621
Na 12.929325022946525 8.798317330176749 3.0182424266272676
Na 9.157936291514964 5.554037128026971 4.902094998132605
Na 3.3498719151646026 12.390306179407895 6.056744061586317
Na 9.003999892587334 1.983945410239264 4.78598980486989
Na 2.360678047879576 9.778672658907247 3.850348850223272
Na 12.706202393777424 5.332701987471989 4.043832315012057
Na 5.9268510089105035 3.7428712081355933 4.907449028031655
Na 6.060257856502573 10.75790097714869 3.5938525446072482
Na 11.711345981803163 7.973874399297125 6.277059979035738
Na 2.566825893273496 2.515862580165329 5.030410032969284
Na 2.979883091934982 6.194797995695713 5.152127445998934
Na 8.165936873369793 8.991840296868236 6.074201551519202
Na 10.677531682190935 11.199359916002965 5.08079805833174
Na 4.618498468018428 9.244256234531713 6.380074171470614
Na 7.84469663324984 3.2325741459502497 7.952217219641672
Na 6.241449786393304 6.310696902825475 7.035138094288803
Na 6.890348040724353 11.959980166232492 7.185891040422654
Na 4.135971428414672 3.8113546513386978 7.903374076785762
Na 5.409541182693145 0.7432483614040557 6.727888923205483
Na 0.7256630576746911 4.838088265533793 8.029940080999385
Na 1.9264533644930741 1.5045493916873975 8.9525091768644
Na 1.056052394587318 8.874810687149356 7.091305857582531
Na 11.407595753487179 4.19977359860704 7.38375510777664
Na 9.202747379621016 6.661536461459966 8.462883696473533
Na 3.465881028797279 7.100339349226731 8.865525089194083
Na 5.496071562121 1.8256497191680627 10.424355426624995
Na 9.788834358057692 4.22788072117593 10.859005590797416
Na 12.195703474034742 7.092676414650779 9.93085571857744
Na 10.060780597257038 10.125229982017796 8.83215917414264
Na 6.582597756868717 9.02929842926057 9.424021844483365
Na 6.315099860402442 5.406329978709783 10.545791785168941
Na 3.390066170775393 10.657172322946561 9.405579108473395
Na 2.6457725477203726 4.444210150459094 11.072661335361774
Na 0.5646153004446035 7.505841054581585 10.622180904895371
Na 8.981875999658957 7.776736891070388 11.767791457769277
Na 4.359756221468547 7.973151991581784 12.057040558122814
