44
Energy = -47.24843451 eV
Na 8.167263890689242 5.571386702547503 0.629830026825466
Na 6.145787388830693 10.713711042525563 2.0201584795623897
Na 8.87837685034283 2.8420060157272333 2.6908696449805083
Na 5.054464247018258 3.5367337196140505 0.8972293799947861
Na 5.113271505082843 7.34232728762306 0.7251965011828806
Na 10.91247677617511 5.997238535459476 3.1771543565297784
Na 7.95717014685995 7.839497900066836 3.2281305420376745
Na 2.5807925843729196 9.938072092603047 1.9098181239297207
Na 7.456465571653625 10.544904886070999 5.582724539290399
Na 11.994446594266844 2.9984394096042553 4.753974776525701
Na 5.826268242782918 5.117523964623877 3.7029305911682617
Na 2.3472055384685966 6.276034865885935 2.774089772915889
Na 3.8626297296809438 11.840170066156455 4.962759398403869
Na 10.962306657841982 9.643730123839678 3.894587671260075
Na 3.3216205624978423 1.8296135619865317 7.37535296850548
Na 2.9401253525401954 2.922408368800776 3.8649058310602595
Na 6.140737840994206 1.810550228564202 4.849712079055828
Na 4.649845421623122 8.449403411084722 4.150621829772019
Na 13.081645767383636 7.344834231257501 6.076235524028714
Na 1.4173874757389917 9.049694758431508 5.555147689577979
Na 9.50901207022519 1.3742412888483189 6.629000711546106
Na 8.73613599913334 4.505536533055243 5.65104982272991
Na 3.2435922360826472 5.654268425121753 6.489118339073829
Na 9.790231251031235 7.6622330803089955 6.4921040622519355
Na 6.558353840039527 6.974129092031805 6.592650271619154
Na 6.508691157254027 0.033976323532906735 7.979225381062119
Na 4.344738640136763 9.438485465262348 7.465708247575862
Na 10.999379731187226 10.721350539340165 7.332282208605258
Na 1.8165803473395248 11.551136795576129 8.23684858734648
Na 6.159155058874694 3.687451578376604 8.092188511902384
Na 11.372635917135458 4.494368921075877 7.97785628921423
Na 5.571213697649391 12.528774924184106 8.208706826778636
Na 5.1464713536755875 1.4105930237826674 10.847888408152421
Na 8.676199463788032 2.2850086122037365 10.118619886630226
Na 1.74422220529321 8.04117250284846 9.380322660009123
Na 2.924024787965163 4.322261652062268 10.080392981836908
Na 7.800597799697888 9.511228959250992 9.068189997226733
Na 5.132996099437637 6.894086350706912 9.666536624191263
Na 8.557704018231354 5.914184128373155 9.553078250209794
Na 11.534229957908156 7.937205528471252 9.503343168451224
Na 4.213469808466469 10.22374431315449 10.861183949984088
Na 6.271414754573188 4.44317826294935 11.975544199939204
Na 3.47478165780037 6.9032887460989585 12.625651126547893
Na 7.093689067778903 7.869622846461853 12.340888826059086
