40
Energy = -41.4771809 eV
Na 9.309539092538992 3.5708578934924673 14.159735678219324
Na 11.045110290070681 4.589939081806608 11.396509876217811
Na 9.385440422849722 7.014488528147495 13.207182060129329
Na 7.667673388203838 3.1791113319793056 11.087818823146002
Na 12.960175007268294 5.282292775256694 8.756604999894217
Na 6.3747806002036915 5.2332879972286745 13.759415717364577
Na 15.103908894755474 5.929390057927878 6.127153779804061
Na 11.132799302714034 8.171109513778461 10.259414633553648
Na 9.814165064564289 3.758581192519703 8.225036975887225
Na 9.340993828460338 10.266464717467795 12.285264287885592
Na 13.61677319318745 8.678487550952303 7.929944565362837
Na 7.984895034734784 6.618225182831899 9.959324497607211
Na 11.853915919879537 4.666309652590647 5.366487746561791
Na 10.522041535700048 12.098747457498193 9.456861318748256
Na 6.197099352189813 8.461189977069546 12.726929006307161
Na 9.066283422549478 13.660435337120443 12.22798549032893
Na 6.233260663360366 3.9900900853079566 8.215739315931945
Na 10.117133068415635 7.241919618815281 7.031813597303107
Na 4.663324436381632 5.785514623816383 10.89373266201684
Na 12.71185109059619 8.078202106834162 4.603083182053995
Na 8.442657151515519 9.505170688291926 4.535096715153425
Na 6.254758547208835 11.630964777150659 11.52313009986254
Na 8.02804315620841 9.889656447268553 8.72324538273712
Na 11.132751658649996 10.580933118417068 6.415371759277808
Na 7.475482821294122 14.217406804676376 9.308702425342876
Na 3.098503805372594 6.570482586642149 7.971197738224174
Na 10.031728444695311 6.628677691299708 3.051419757902318
Na 4.789389938670126 9.072957063566369 9.634088427161512
Na 6.462923451249009 7.3806606046250485 6.841052383098817
Na 8.302458753847487 12.532926678469526 6.436838080409432
Na 8.308838480332565 4.592562248074879 5.353573389384717
Na 4.594681983818848 4.637680081630586 5.363364404809159
Na 4.706344509451457 12.380926618123464 8.525106538088277
Na 8.21174747849308 8.677360414979661 1.036008657617228
Na 3.3113731009811658 7.74093270647176 4.692049939417393
Na 5.411297770405449 10.573909918357261 5.723349547955318
Na 6.4961290532052 6.575876735319954 3.248202650829832
Na 2.248240949337061 10.11068875450042 7.317420493441233
Na 5.252014014311579 9.680661842240834 2.362094169473121
Na 2.3694550381982715 10.922381513368252 3.8436008796843075
