44
Energy = -45.80292979 eV
Na 7.398708008376132 5.014985059463588 15.046778456639704
Na 6.003993653509075 7.783000753172137 13.298625246086807
Na 9.473014373737803 7.418961574414864 13.520041317655922
Na 5.355765878089433 10.48690755327413 11.190040491557314
Na 5.242457605752393 4.41652237911143 12.279509218296637
Na 8.096485246780654 10.729047819473426 13.550071061609549
Na 8.659776224160122 4.511893424686656 11.795702138757537
Na 4.513642630672209 7.185120970495563 10.290105170031488
Na 3.0301475571889482 9.999413701122311 8.746116274584688
Na 11.09353136399458 9.978977310481271 11.681400490382327
Na 7.9284234474730875 8.20082966805629 10.333059871746128
Na 3.332441998662045 3.7973504762409283 9.5677831957845
Na 6.724717198736624 10.510175102671148 7.625973293441732
Na 1.7113120932744197 6.6410488542080826 8.44453010426723
Na 6.638167739460685 4.667444370280233 8.811641441153037
Na 8.40432966100017 12.045221463311337 10.342998749447734
Na 11.069046445046693 6.543398333266314 10.507394832205378
Na 1.2590601931300192 8.579140706868657 5.6802378369157
Na 3.798345335925375 10.883179995777201 5.4960357987852495
Na 4.820612267632363 7.631497388283337 6.8447669589673295
Na 13.294062778721793 11.6713312184762 9.699110489117098
Na 7.602219843749725 13.944305664909482 7.451816465615898
Na 10.855211077677628 13.433569483569388 8.17797018372602
Na 15.797493952651422 10.292927541302586 7.640918384026314
Na 10.34047552100676 9.56950504091203 8.228548691243939
Na 4.594203924073414 2.755296697985185 6.496887850464807
Na 8.234496437740495 7.054316621992428 7.018568156919496
Na 6.5102021834689685 12.74922639319765 4.489095860599186
Na 2.675642893827562 5.336434516933433 5.196870646289631
Na 9.619367729455526 11.849998926598925 5.233747048784959
Na 10.016634740714698 3.4263923247974852 8.916351657001353
Na 13.659331562389593 8.204442355335772 9.311717773980693
Na 3.939475485823715 7.9986803736493535 3.3665508127784762
Na 7.248776664526174 9.066107192118167 4.196383552469208
Na 11.549890652003418 6.016628457160368 7.193375284298079
Na 7.938696386328579 2.826233754274167 6.045541867907378
Na 12.768353815840351 11.111690547121613 6.144468642730876
Na 6.066822369707191 5.454163526113667 4.421525771062222
Na 10.713888351088835 8.586787219106451 4.686855543047112
Na 4.9582918567301135 10.95073076639708 2.1383902009972875
Na 9.407929674335817 5.42298479690651 4.061344479119007
Na 14.102137008898742 7.951800151476484 5.756993724929948
Na 11.345922531386176 2.761204171548914 5.750007363761249
Na 12.749827811553793 5.4425683711371855 3.9921389262010227
