47
Energy = -50.07937852 eV
Na 2.3598676411085093 9.322143832089374 6.404007064519582
Na 6.9165908049895375 14.891218490503157 7.490789476696909
Na 3.6168411679908203 10.289050831373157 9.882132166578211
Na 7.005834782533998 10.004084029287537 12.096001729787071
Na 3.6698770327842216 10.944318662524678 3.476590961569134
Na 4.739117519463055 12.12660232360964 6.947840925426891
Na 5.877213389191651 13.057635619089695 10.36486402169658
Na 5.666605696751738 14.02699986613903 4.071917047595325
Na 4.320553938207102 13.181191097365511 0.8297383523279508
Na 9.122412259635894 12.31055199647576 9.311929756915495
Na 2.1852371404834794 5.205813063864973 6.509226312764376
Na 8.036244276154035 6.371875254878855 12.500565269286344
Na 8.243574452018443 12.15021792996403 5.6583497042437605
Na 1.5277327045368658 7.487519213959932 9.346523574639756
Na 5.628778202194333 3.72486088540737 12.048970566904373
Na 6.9473770084565425 9.753897667035927 8.669856173455033
Na 3.5778790703539656 7.136316362770606 3.6486574134948673
Na 10.046702253516527 8.670886719037817 10.529916218951223
Na 4.867829340201898 7.0698490675390895 11.072518686575302
Na 2.5778388312932465 4.165573595337643 10.15686590023125
Na 4.748518612481682 7.251824595899207 7.633908957560676
Na 6.3177895811286096 9.165027264246431 5.175250297960579
Na 6.885758039770487 11.173780017868394 2.135767981888444
Na 3.256344241183147 2.665318709949435 4.052021056317746
Na 5.470422200176085 3.901177328468707 8.43834464711713
Na 7.980808794150501 6.306217492566809 8.900245988151022
Na 5.069654432309858 4.325944153696578 1.5489585166114173
Na 2.76836090310465 1.729055389295531 7.439763607034699
Na 6.920431899551581 7.315034299474597 2.182816752964339
Na 10.114868888435055 9.403186319939332 7.040440902843607
Na 9.679576141532939 9.514577874695949 3.397846706042522
Na 8.85022045984039 6.516992790721802 5.254089767906783
Na 5.744810893187566 4.885041967177996 5.0971984556623
Na 8.55634625596408 3.348401780226027 6.765527247302597
Na 5.476182481531494 0.7405280497239126 9.775643393835264
Na 11.382808957772232 6.024528361769797 7.789437952714777
Na 11.08234216819854 5.08865225199283 11.066425037789344
Na 8.523543951639098 2.817587543653623 10.394374949798832
Na 5.948020759856247 0.9769308907609646 6.010659822550693
Na 6.123436953232039 0.8357934484586161 2.5314319532066594
Na 11.478566467646528 2.408242551856723 8.307515070010899
Na 8.24001799606336 3.6136428436064385 3.0382867880048097
Na 10.411611515566978 6.209661658584745 1.9143875349823276
Na 12.310516756073396 7.485539512445462 4.677075526252121
Na 11.39866005109776 3.871439890436182 4.729177258181591
Na 9.298893610353366 0.5827929838129665 4.653209163301696
Na 8.66485681188697 14.891218490503157 8.155622485187576
