45
Energy = -46.62788239 eV
Na 4.605121678449755 2.6346958907102604 7.440301446459826
Na 6.165875076738457 2.451856630196426 4.365198922578676
Na 6.27241063607308 2.988869738617474 10.365449054630602
Na 8.196014615278282 2.161915534871204 7.3181510372333305
Na 4.002589438683677 5.341814078911133 5.481408008869524
Na 6.306623650056193 5.458894669131952 2.658812156022833
Na 8.805006099721341 4.85242235980684 5.0217742528130795
Na 5.436850245210302 7.840811161963176 0.5028163954223437
Na 3.7398716954404083 5.588505422584447 9.004036759796465
Na 3.583975843359633 8.177064822950944 3.4558741374016577
Na 6.540453929350593 7.732692115646419 5.446983409389793
Na 3.2945930476690872 8.443742006096267 7.014015366383306
Na 7.579652118184483 3.2855968770351764 13.438464871443381
Na 9.220109636128772 7.785961799097419 3.004839593901236
Na 9.018724793229284 9.837902818923807 5.978183012434659
Na 10.725026399491805 4.471476816074921 7.864679191454719
Na 9.06580096440753 5.405487580401859 11.07085870712172
Na 3.3755065798342985 8.60356700393036 10.605596728180164
Na 7.1183030052758225 5.51505753575622 8.011348207387444
Na 4.443632992023923 11.078805005138088 5.126655665030654
Na 6.720477161611891 10.14017657430569 2.6016205782079598
Na 4.561584413965321 14.233369571497375 6.390013931285519
Na 9.82599983912938 2.0756936376915696 10.475290629707672
Na 12.434407695637159 10.036094145780998 4.297496386765751
Na 9.90048586948358 7.768632190034661 8.631255045383353
Na 6.569638379954829 9.00184411500756 8.79452758965133
Na 11.555723167569505 6.945871260982629 5.573216386752521
Na 7.301845062003295 13.030906097093895 4.46795198116719
Na 5.646845400702724 9.14550721441063 13.371817760501683
Na 10.477293538999062 12.877906830770032 6.257343814987889
Na 3.2421460700545928 11.583668825010111 12.261149991130743
Na 5.734376334847841 6.11171777849432 11.714303558313874
Na 12.402682767299773 4.453664168929901 10.969437597255192
Na 14.853203578739421 8.21411237390999 5.8102307954395265
Na 3.988417615070913 11.614890431225419 8.730775539276758
Na 9.914665080657613 11.554838531155204 2.7609274258565244
Na 7.960170026121363 6.711010163126516 14.40020603802218
Na 6.641411994411803 11.725632234093538 11.167644742690298
Na 7.242312622165465 12.638154123808059 7.847976934747925
Na 12.621774026945875 10.193954491274079 7.741610529781989
Na 9.836217822862839 11.317677406665444 9.525714295047596
Na 13.3958063594373 6.825942356185352 8.604934944971044
Na 12.153615604592076 9.2503164464673 11.009602271405868
Na 11.293630353344726 6.855495788647356 13.316246311845465
Na 8.709519580843825 8.921359273606896 11.746492050467728
