41
Energy = -43.68439035 eV
Na 6.725960576100707 5.951057053110821 0.9906796957705998
Na 7.000675052140324 2.1115147257554465 0.9435191110349376
Na 6.779580135311783 9.675042456398694 1.5399431942161925
Na 8.85913707273129 7.307253779872801 3.483069331207316
Na 9.951305146311327 4.3260899588420285 0.9299354719787314
Na 4.402458045133303 3.733789503607916 2.6675782959275414
Na 9.82312107379185 1.2841289039899815 2.8739047312865678
Na 6.099527021868709 1.1255850063123278 4.632616128109794
Na 9.187047381252542 10.854455687323302 4.389893058427134
Na 3.9138682592386944 7.2312323029209535 2.666929064187259
Na 7.8090643512906235 3.9275821710408225 3.7949627054658275
Na 6.029968321462772 12.712653743980606 3.744872288528205
Na 5.752284839564428 9.39683385835712 4.734842297394234
Na 3.3129850384781716 10.733095336689123 2.591475237796633
Na 3.114576199440128 3.5258495111004975 5.866174615986966
Na 11.598697793547903 7.859038294440267 5.934324107897907
Na 7.030792884835029 11.885591783630302 7.164629707036061
Na 11.373894674485271 4.412286085335991 4.21848014980621
Na 3.2336202824621005 11.309587273717744 6.157200440841319
Na 2.436051717922383 7.6544150875854475 5.914749397909712
Na 10.595377201623599 10.864454377566272 7.916525755782856
Na 5.735972933528341 6.037498215491737 5.590537277950878
Na 0.48160291092138485 5.103991211312677 8.121602449671137
Na 8.27778169986474 8.607422843885423 6.875736012944093
Na 9.106938193653965 5.3260266181266 6.6823837235345325
Na 9.50175967891279 1.942290877381486 6.448915890958135
Na 4.930162184309177 9.063451462283295 8.228853556729057
Na 1.6533505098205943 8.365600153333123 9.49389466075878
Na 6.238564667380245 3.0415918315658654 7.68475984654568
Na 3.7940177981620877 5.672282027444689 8.586764847780396
Na 12.244828777335272 4.52163163020511 7.7702598128856115
Na 2.8878452711230262 2.414057266652563 9.259659158075108
Na 7.015851624887727 6.358893680699224 9.189933135890035
Na 10.644808072049571 7.314445938429252 9.502318470161777
Na 7.891833092642725 9.639339837943849 10.285511711483641
Na 1.932673418035781 5.208245177238387 11.519070181986658
Na 9.246480424145027 3.7531893360643735 9.918870985828145
Na 4.687964129938919 7.639874516675245 11.6103518863755
Na 5.568884752132457 4.006111773921059 11.31755166174729
Na 1.486895457577647 8.3470815855766 13.104782531051415
Na 8.307277855402456 6.420923635008217 12.317423931865935
