40
Energy = -43.26719298 eV
Na 7.44820040762943 5.010304693066887 1.265591086425235
Na 4.53990508577694 2.7712017258937394 1.4507101219668923
Na 3.9731200555857242 6.735143231184551 1.7200997800563422
Na 7.019240669291174 8.058736799260434 3.421389570295879
Na 10.502502250440173 6.661307647458577 2.054156172416984
Na 7.942636784421589 2.080203308075448 3.4294303920283338
Na 7.668051214161679 11.580449911821056 4.68253787512599
Na 4.083624319161405 10.325837761473412 3.554914080875275
Na 5.543206458969095 4.588593448490103 4.106534301844032
Na 4.453918961497755 1.3964784090364333 5.005263099309136
Na 10.523240394991173 9.70179611565768 3.6334488212276006
Na 11.481765587103736 3.524323132974193 3.1934795754602536
Na 0.7999071627022984 8.090299574823213 3.6004507209134995
Na 1.9742267304663894 4.421626987022113 3.8296941473657657
Na 3.6256855995000876 7.232943319120606 5.189297801542005
Na 6.44552918106501 6.3339800523642005 6.84244015862664
Na 10.656487749186144 2.677819691595554 6.602593690890673
Na 5.64103472626095 9.592411148147358 6.6750522800137
Na 8.929156947741312 5.267910862415398 4.771575404065313
Na 4.779292634219827 12.849558138228552 6.610989731189403
Na 7.133766382353647 2.833576992121916 6.9169712883692736
Na 3.587134827298987 4.121030211408327 7.179992147309789
Na 11.50689549487099 10.870289210084612 6.787758588266086
Na 2.1055470966890346 10.027962746427145 6.68631904230537
Na 0.7446306979655178 6.361805979550322 6.971335399491297
Na 9.51402576230298 5.479849234289997 8.420469757335782
Na 3.650965740983283 7.432312226206489 8.875431297341832
Na 8.094479928104326 11.557172086452074 8.327557298246496
Na 11.909770950142939 6.7951432443875985 5.73479722609025
Na 8.97670582456846 8.557785764741658 6.4812689132238
Na 4.949161144903067 1.5770503603306656 9.444971964243713
Na 6.131333001549528 4.851072332734072 9.746121174282976
Na 2.771473434850282 4.441513605236889 10.657698995183932
Na 4.626153009696322 10.758750490839452 9.810479689715555
Na 8.623395271390729 2.4244823240438187 10.20196323696183
Na 10.7852006233454 8.584786206094599 9.556223558069354
Na 7.243949615355855 8.294796781430199 9.72896326870577
Na 8.687780919181359 5.82007278557099 11.947444768523221
Na 5.054425741781602 7.043947703818629 12.23833546116313
Na 5.933908691919748 3.327110835546115 12.707685192957
