47
Energy = -50.53536663 eV
Na 10.78997263448274 3.1364688446783924 3.343312779376389
Na 2.4355110181021407 9.294979823457899 4.264711660305573
Na 10.928334446246566 7.04355750511634 3.5067998514413774
Na 10.021298058553867 7.495651953934585 8.922855470281208
Na 4.645986542260833 3.479463707072712 3.5358414832606044
Na 1.049108795075356 6.765511111916806 11.03765725222455
Na 2.916725707253705 7.066473693169998 12.752694886888019
Na 10.012548491399436 4.970718276188758 6.351146612723361
Na 1.3012482013895597 8.33005316436279 7.644346887228138
Na 7.576889992728232 2.4316502691865205 1.314757199987109
Na 3.653185803270673 2.563972860548143 7.145187580280444
Na 7.204884356716057 10.233880655607624 8.605088983417378
Na 4.091255905770481 11.567181476867646 7.251661290471953
Na 7.80447482722216 12.994124980012076 6.619627789149281
Na 8.034913288567026 8.540879078389754 2.028848443972724
Na 3.940437259491804 9.076440649755861 10.27336165187007
Na 4.466042942054961 9.317486669033466 1.1397151417888642
Na 13.107751777415906 8.755780014164928 10.040448068344574
Na 13.477911361008966 6.711568414208091 4.716353265085082
Na 0.7985077204379872 3.3752532673473494 4.311806139146462
Na 12.695072168121706 5.24815681861115 8.668150612546965
Na 7.76340182974527 1.8788220738377976 4.8549691920466485
Na 2.089640943423739 6.206633407347805 2.0852099172022442
Na 4.872140110283584 8.250875004320834 6.929909277494842
Na 7.431881620262042 1.4426888625412206 8.22983571017194
Na 5.2715050156457215 7.198452849804315 3.7331890397939134
Na 6.082868367853439 10.66526138212466 4.298366904463503
Na 10.885882319810023 1.778656482855752 7.094359511917255
Na 7.902290645574755 5.141729300188414 3.485713318734432
Na 10.596365995803783 11.04949186342525 8.413291398318053
Na 6.813957322764092 6.812808379833476 9.69311401162374
Na 3.5471083121113183 5.701890232089386 8.930884108047556
Na 6.400553486310401 4.806356236739133 6.758305585388023
Na 5.810335775573191 3.421992993877379 10.585315734188486
Na 2.1465778617026188 3.2120701295857006 10.774251500381476
Na 7.983463741083754 5.579658568001313 12.752694886888019
Na 5.750842432477344 5.7611847183230696 0.5847557212915742
Na 2.79401304980667 5.759133303748308 5.553787149363285
Na 0.2981936503008364 4.62127355668225 7.731876798453541
Na 12.230264936927211 8.397840002684216 6.517792392215975
Na 9.695798843601471 5.314220541719936 0.5920620501924367
Na 9.400284770350654 4.0257825673365994 9.761708944648682
Na 9.851934871616502 10.656425273617383 4.726223219879298
Na 8.213176203908352 7.943579673620311 5.876682978896526
Na 4.359677538648602 6.086320793951501 12.339753079245893
Na 8.867454395121177 9.065576355556706 11.68021069081811
Na 11.43300174644637 6.3555296717221434 11.986040913266166
