41
Energy = -44.23560865 eV
Na 5.2052159343943645 5.914909543151677 13.037959531568463
Na 5.634381626340901 9.113120234995327 1.2994184316723207
Na 9.040508814581996 7.330827989401152 1.5561940636208242
Na 2.6187303128434607 7.555258508611802 2.5251673126975906
Na 7.181523533664313 3.295605611416478 1.657078086990299
Na 3.277267039672094 3.9257910485283443 2.4621020798438225
Na 6.042560218632427 6.234028335731637 3.110333615191927
Na 9.143975928534525 4.703489735244971 4.363633753398374
Na 8.565652753836671 8.48837495078987 4.7385705036463905
Na 5.050364415192471 9.317953899479823 4.955186833212495
Na 11.87231529209214 6.93009107409814 4.742055986280433
Na 6.631977868661219 6.201568437363811 6.367013437829829
Na 8.14846223652855 11.105958065427025 2.4907733280362496
Na 0.24206680426662436 5.498814127188618 4.48088901262303
Na 5.759191641112975 2.9849140838908723 4.959106200261963
Na 8.925196948649557 1.1701778091569472 5.352447413751382
Na 1.589718736836971 8.805529836717943 6.165449095227516
Na 2.2611618895310497 2.610756512711663 5.913678183049433
Na 7.288470807101893 9.140482065170916 7.957425638401318
Na 11.31457524382069 10.23202976436777 3.5276097691157156
Na 3.439827967249977 5.843146685287962 5.428544332137177
Na 7.569116723602012 11.914834232528289 5.966827983110897
Na 8.077034591224155 3.5339995992612248 7.712107862519607
Na 10.563074110535311 10.18367306198584 7.2464125278819
Na 11.487263112897237 3.478452662003543 6.96147239703516
Na 9.959662711442423 6.651003600065107 7.655202746894963
Na 1.2309222647753222 5.735576145293968 8.225480256418695
Na 6.037536405579923 0.7417402354357617 7.78106961534265
Na 4.404001143047506 11.174711081375523 8.176103199145217
Na 9.418436657802001 8.557599557729207 10.727832003178747
Na 4.467206588158919 3.962000664407029 8.359167226071042
Na 4.1687475218016 7.672684683404572 8.265266940979826
Na 1.8662876299083149 9.065218525183747 10.241812229258212
Na 6.982900326225589 6.1582475560369065 9.760186411814178
Na 7.99295061158481 11.94535893931932 9.65680125617055
Na 10.033978705911029 4.482758799033983 10.575032433114993
Na 9.647913881255594 0.9319092221103418 9.06233946210441
Na 3.8333373036910285 5.96164658290123 11.379012989844695
Na 6.729708103995955 2.8546257326487443 10.960291247517668
Na 5.618458920673068 9.248711796656485 11.190725341368202
Na 7.482093868568616 6.146196200111918 13.037959531568463
