44
Energy = -47.48500428 eV
Na 8.308213058548285 3.2902277845222927 0.7132555058048511
Na 11.895746544889418 3.72513455797783 1.1138287600949635
Na 6.096100441241568 6.728132114602533 0.4989158891783391
Na 9.894657528445183 6.522262083538917 1.7658094042527324
Na 4.1373715728718174 3.6229614501624074 2.053503701494225
Na 4.307965251710896 10.315605121614933 2.2380005718907516
Na 7.052682049583521 5.052955921119384 3.3249301537947833
Na 7.388465465227079 8.783670809963576 3.243783379070035
Na 12.739039635419612 5.775626917565025 3.9991264339717736
Na 10.07750666287178 3.0869510463752614 4.0317000928761155
Na 3.8757498616731536 7.079220406725889 3.4043595844402295
Na 10.85495409057224 9.621739282693081 4.374398355770046
Na 6.538495007009685 1.5638119877349643 4.200527201334932
Na 7.735381848594707 12.094240217360294 4.784890287767867
Na 9.677089265090661 6.501251420879037 5.310124306204292
Na 2.6221733608870212 1.6968247261571792 5.000111182671424
Na 1.0731113463311117 5.208587166120818 4.953399525227093
Na 4.441176548525913 4.240965634591074 5.565701924542473
Na 1.3712700682704753 9.2166771837606 4.9919743092698825
Na 6.287950153533364 6.963708099675796 6.0380898704578625
Na 7.79272859418727 3.8206766666074916 6.607442785098469
Na 4.814129190327806 10.13768355483003 5.760171484685367
Na 3.064760699103053 7.118350085199117 7.108291532574316
Na 0.021345349222495705 7.532815308310152 8.515520512802832
Na 9.062578835906605 0.8036197380190931 7.159816095022914
Na 2.6160353458058085 10.275610049673418 8.689705885582391
Na 8.579668395081251 6.4611887591500965 8.713602159179086
Na 10.283682399153147 11.814117730055683 7.512537500457672
Na 5.702690524201788 8.570493877877507 9.109784984793112
Na 0.7946043956938796 9.372050023375644 11.54907163037329
Na 11.571601218525089 8.116591745560756 7.895245015250923
Na 8.297046314559832 9.392909850820399 6.826679401644608
Na 11.156323302119057 4.226356496843627 7.716966024233505
Na 5.384835706649629 1.5950473720472853 7.9946472317753825
Na 5.417253755942218 5.046635731273802 8.879993869319794
Na 2.1443676007163877 3.8314715258930376 8.362065267999201
Na 6.507905120501306 11.900552466795432 8.58899252742969
Na 8.23543359787979 3.16920202085496 10.14559311474407
Na 4.38403773771199 10.045668767136233 11.886605554240537
Na 10.756216236535437 6.13036370306987 11.178170530558486
Na 2.967839237667203 6.738931362249578 10.752550104266264
Na 8.917208983645894 9.494842683831983 10.440401854683905
Na 6.841059599498412 6.459700632764918 11.818615374164509
Na 4.5818216415782045 3.1248394581304124 11.451372662515704
