47
Energy = -50.66108928 eV
Na 6.624962741620629 6.6240029719678715 0.564558746079862
Na 3.069382836655447 7.38934269707299 0.9101010525041254
Na 7.484761795707285 3.022589625819439 0.38721623371211866
Na 4.258276016053086 3.8741909052713908 1.9132179545379153
Na 10.069984857910976 5.558000663920187 1.3892457800089473
Na 5.615197041316096 10.008516501289684 2.1031718243703237
Na 1.5922686659008038 5.741714995817175 3.9091529480732574
Na 8.463796713922141 8.26678402903857 3.356045143132575
Na 13.177464614082218 4.854384670199737 3.284762266979059
Na 7.399001469775614 4.5698542983610935 3.396059198675895
Na 4.867874669670222 6.990028287100376 3.70867348183859
Na 1.1405101818307717 4.126236321646763 7.094777591061567
Na 6.830455468977793 1.2578410001192397 3.5323490789071883
Na 10.327929471817297 5.054155696121656 5.240615013805058
Na 10.38171865027221 2.336029279844208 2.847061072022722
Na 4.357866166863924 12.619633807823554 4.257778816027234
Na 5.750392585857775 9.859556316600713 5.8779815696066136
Na 2.436093258646914 9.41058123934774 3.947578065206052
Na 8.223259818086952 11.913646404074273 4.769779252098381
Na 12.917088418788062 2.4507168687912606 5.690824503377673
Na 9.957876673830045 8.737495132409936 6.553162287215048
Na 0.13648883237290133 7.928095675910726 6.45101733306967
Na 4.4011437222267045 3.890148374503308 5.598359370156043
Na 7.078414044984013 6.515123729256932 6.161662930783329
Na 7.591332728806313 2.9056564752358316 6.8744586324144255
Na 5.786612345465776 13.130917215046095 7.383136544851829
Na 13.177464614082218 5.983108874991079 9.143311200405595
Na 9.987577778495767 0.46321775301578744 5.731403656619115
Na 8.771600920990561 11.621046981908172 8.51333479404388
Na 2.3650090943190807 11.133487438066124 7.018222608627246
Na 10.919766881101609 2.530891785411187 8.528561234349676
Na 3.5024872249574077 7.395512541809766 7.232270410347769
Na 12.722879474921951 5.62097612269627 7.7007073138254984
Na 4.128570717703672 2.276053807876727 8.914933478369791
Na 9.268868956117327 5.697396361256079 8.618836078664147
Na 5.640381262253535 5.272159209568804 9.062604423117982
Na 1.3305312953492354 8.723384748729613 9.74693814637127
Na 2.1540705679221728 5.211343326985571 10.281257572471322
Na 7.055799636099943 8.550327009893918 8.921063390849895
Na 7.938066236007052 2.933982583530318 10.566482501163058
Na 4.518295790419733 10.781211822777793 9.653692762834245
Na 10.4875519579073 8.623560974110314 10.231516588981734
Na 11.187660500293154 5.042827177056238 11.251076617768762
Na 4.467431792483209 7.747995469865522 11.424024817408588
Na 4.928326686067582 4.098133148189886 12.240887460504217
Na 7.849727600471431 6.490270207194743 11.836093180430272
Na 7.442474286406684 10.314222822698476 11.726388422552835
