42
Energy = -43.81422118 eV
Na 3.101010878495945 13.217029360705467 7.0993839709031965
Na 4.202897770240804 10.128205352616492 11.485708540210258
Na 1.8802272823964652 10.53849325960028 8.961985887079408
Na 5.989619585820752 7.254212965259447 11.924449655931038
Na 8.21780561697464 5.709139998938927 14.084215424337696
Na 3.3651400406037917 7.361396389946822 9.548636133635656
Na 0.9755965539726217 7.679906940414387 7.026605233177127
Na 4.709168798687361 4.230865336686613 10.025915598447096
Na 5.254456600350442 12.848043528937957 9.776389890405074
Na 5.019344444570851 12.490337042635842 4.336370004615609
Na 8.839013798659282 13.37771607624095 10.15580335708147
Na 9.474104848574544 8.466321408959494 12.591148024371567
Na 2.2368644675423677 4.549135853960797 7.58084462885594
Na 7.612747537361131 10.037661017824023 9.924952545790779
Na 5.0150000826571395 9.957809081666248 7.54779519265593
Na 2.457901127072104 10.152122321568516 5.087570833323474
Na 8.013341549865837 4.634667679463014 10.754578448760213
Na 6.602696811795483 6.792042323056573 8.217526082409881
Na 4.09353080534224 6.946018117550985 5.776401482299673
Na 5.37677289978774 3.639047860281433 6.452867666164393
Na 10.986649086320622 10.677520465247786 10.606369110454064
Na 9.80212946549745 7.327316748405598 9.158092127847224
Na 7.390916014867955 12.511702083976827 7.060091513467231
Na 5.937539735770161 9.198337961111157 3.9542312265749637
Na 7.005709888526806 1.716324015728647 9.068799476788586
Na 10.583037816804309 2.2961819673548804 9.595775135794295
Na 10.718900092690026 11.970933443589356 7.457190793551223
Na 8.74709600756054 9.195752760177303 6.379986663135978
Na 11.082178580255773 5.169259187265444 11.972261371067638
Na 7.220876341422649 5.997347161867277 4.635487248238424
Na 13.026971261187732 7.803535493247464 10.888700567823033
Na 8.431201787570528 11.690505773186914 3.8577566446376683
Na 8.72649570220536 4.021591166522526 7.161654379222021
Na 12.499708020745723 5.0333872737583345 8.718149207693445
Na 11.576933063553152 10.714950532964805 4.4561098845007745
Na 9.227071178995159 8.255624498243556 2.886147131414565
Na 12.451627611606227 8.811174059897528 7.347686045549216
Na 10.570214112250898 6.292092630311007 5.534383217193995
Na 15.255067439035384 7.014058178063854 8.485275765122603
Na 11.76337106717205 2.941205951341828 6.056452543865038
Na 12.708360461952097 7.798085595350878 3.291722660731532
Na 14.018773052482592 5.6484039507649815 5.561591246641255
