41
Energy = -43.2108018 eV
Na 4.824824531811899 12.609212354736588 6.191334291199631
Na 3.958258971855896 6.2225758434054095 4.172746850006961
Na 4.590386638383759 3.054101210096294 2.993754892900407
Na 6.146773618574749 9.367955015946178 3.762262053283532
Na 3.1510400897553166 9.481013394684645 5.349598938478111
Na 7.221952243179863 5.825066330486344 2.672404026815596
Na 9.464592386056774 8.500252897806469 3.7009062695993067
Na 8.245305662109315 11.866517209447592 5.140126743260729
Na 11.83291332934131 11.030120522264193 4.642991546174808
Na 7.511591082476251 13.57462207890869 8.478770317035147
Na 4.663596569940199 3.633780291223227 6.636832046122682
Na 6.1814000483169025 9.868784495128775 7.61408072492788
Na 4.001952395497613 7.01351947502018 7.863588276164742
Na 2.8122382054631454 10.318576876933506 8.773484504432064
Na 10.205238679098672 5.449514718928107 5.278360259768553
Na 7.06781849125186 6.545648764313484 6.227102530785371
Na 7.629817589185326 3.077839438592182 4.839257283369253
Na 12.824442990106009 8.009221248883916 6.452074364092403
Na 9.573574667717395 9.08787271705142 7.069798963401076
Na 10.92811963442025 12.419093607488616 7.7563669734137095
Na 14.206898711787472 11.269660413381335 7.327794792430757
Na 8.768059884335939 10.769595243409464 10.165814831074192
Na 10.732936815589058 6.1395268241099545 8.677843365907783
Na 10.796097954419896 14.100935573809277 10.730522455803136
Na 13.808567246974368 12.210570128897766 10.849729645481004
Na 11.85371695918308 9.433705549353737 9.832884331541932
Na 5.265085756304435 11.661620576946218 10.690401964540232
Na 8.01706091940757 3.728104958632768 8.40524163447859
Na 7.570133530336516 7.283111936176408 9.894021391202504
Na 7.887659291955242 13.234939388867081 12.445599142533501
Na 4.395919989059802 8.179037425212716 11.34053851837911
Na 15.085003156283967 8.586331380904948 9.49749925395173
Na 13.04682879815267 6.140903997463149 11.198240418052
Na 10.959080121736918 11.368680492885948 12.976210857768978
Na 5.045840260258089 4.689555945603243 10.245721057517322
Na 13.785165692210443 9.233542112563015 12.927124246741226
Na 7.166640745249302 9.58895722718269 13.136806724817989
Na 9.749128862492988 4.421522758973131 11.59959033802277
Na 10.197119392746876 7.768628542910925 12.623424974341665
Na 6.893718947770199 5.871820076846741 13.14988653545903
Na 7.018506231662953 2.321738551902215 11.739391609784333
