42
Energy = -43.76689693 eV
Na 7.05935210273874 9.764200346317862 2.1996888794307696
Na 5.918485650255914 6.641109557834046 3.568898401475472
Na 5.329183584893765 10.183550822266392 5.063516406554848
Na 8.84237249282322 6.782905513825397 1.6312214447095688
Na 8.591513020110563 11.948667030458397 4.607283174471155
Na 4.426743245740834 4.177033362148125 5.286724021103155
Na 4.056025976722026 7.397319324645601 6.662531815657008
Na 3.387757063429349 10.559131024962946 7.9275886169699765
Na 10.482708750410128 9.837202269808634 2.289079655920794
Na 10.260294592325439 5.6419414550476565 4.537886833594245
Na 9.397574678184464 14.221293379373938 7.178254846872163
Na 8.439401064608607 8.465407633844341 5.144650690502831
Na 1.7553283717588462 7.832030367001722 9.419023922224524
Na 2.4139479098888352 4.582189189194031 8.281347143233766
Na 11.834925277056934 9.054819777765463 5.293536976570477
Na 3.4115453480791755 1.4464259326470448 7.05604339352257
Na 6.67183126759736 8.849367331870697 8.60803419450178
Na 9.547533288844589 10.648471910839623 7.783287618800579
Na 7.114420659910764 5.689802789786612 6.922853693704115
Na 6.452188819731156 12.303460027863432 7.559479641761539
Na 6.933016224890715 2.1255730055327295 6.641500487261245
Na 4.199868489158531 12.917969033236163 10.305692866489075
Na 4.077783039083721 9.540574441319787 11.384055530936656
Na 12.425550489226378 12.599112965406103 7.939956907560855
Na 7.091682954461202 11.262539946736217 11.13432291653033
Na 4.816318298701943 6.322917814059875 10.19086479988135
Na 12.911108091102266 6.079619910518479 6.655269011126204
Na 9.976129265261623 12.987025578118738 10.63339515409001
Na 5.178459257285144 2.940766785447322 9.683587830810204
Na 12.797986420370217 9.091198232132085 8.629991622872799
Na 9.89203638887099 7.192200309861383 8.233173650340385
Na 7.172785794734568 14.829013277101174 9.958618502478528
Na 10.04843156652465 3.7360568603778996 7.5434506434270325
Na 12.895338041392133 11.421054005828703 11.277056372187543
Na 9.958812487682623 9.437640144935925 11.072390088635178
Na 7.039992851887287 7.921820386906245 12.274483071319802
Na 7.912427617982272 4.967495237295262 10.328740245546724
Na 12.770803232352739 5.634303912145503 9.969147809466245
Na 8.305335868748422 1.3942745971111588 9.768560334354703
Na 13.09367548154137 8.203714186189739 12.195112103480687
Na 10.157802866555826 6.344498340512277 12.565126812094165
Na 10.800712182788747 3.180299604471181 11.200883618212107
