43
Energy = -46.15491726 eV
Na 1.759485851833451 3.220299068030612 7.718969521125261
Na 9.432610562110897 5.376760793448983 11.436551331301164
Na 8.280705347411354 4.8669986202092534 8.176346046847636
Na 8.87592027051481 1.8128993309631376 6.411970674265428
Na 10.972537490212034 4.66500855412816 5.403800700366653
Na 10.373374500382788 11.240212221705429 10.5396502554292
Na 1.2193169247343285 6.360714350848725 5.781568305024781
Na 8.196625722679839 8.236027584016838 9.401921734918483
Na 7.261941814144298 12.955200296869426 5.986308840237312
Na 2.4571083188204024 6.209589400219721 9.543935688067657
Na 5.152830160824454 6.317543823067108 7.4882295158488965
Na 7.217672742141574 4.554183776782891 4.930887233932297
Na 5.137797875208845 7.507719995674231 4.271369726282476
Na 11.420553048834593 8.156796670393039 4.292102522949272
Na 5.429579700579534 2.616187336000097 7.524309220717689
Na 2.884224904069541 0.8708950524996688 5.321446073118667
Na 9.285578144696471 3.108116604418731 2.5309450595558762
Na 3.825656558797887 2.774424164476609 10.67394234382057
Na 5.937016235201074 5.6962682032486835 10.913521639460027
Na 5.450504479876585 8.668524947801904 1.160665619830184
Na 11.262753094560455 7.032380119691882 8.230744071924915
Na 9.778081382492367 10.48993982179514 7.019887201076235
Na 3.753469428835876 4.191358820977004 4.812296074663672
Na 12.036025642679855 5.313342431727022 2.0632966987198764
Na 11.186528534196608 3.259914927841957 8.903368644615519
Na 8.497475112463878 7.45855294827623 5.884337024449498
Na 7.660593511069226 2.288780742475631 10.330863958265343
Na 8.706989044401663 6.786811703064805 2.257798033511286
Na 0.3560880383500234 3.2911194057827684 4.072880200819187
Na 8.10107493147275 10.108255639686316 3.6288699105841125
Na 2.079352166459778 9.072539576389566 3.4620423374777323
Na 4.713315214983273 11.26969992066314 4.081063910671085
Na 4.022341227157436 12.395206597163424 7.667159767185895
Na 7.669681484949625 8.866987238352491 12.615362472219436
Na 5.79389070156296 4.787588523591081 1.7187140786579678
Na 6.103880694496228 1.5400029853197938 3.8269140191449846
Na 7.101008197336521 11.75540029521642 9.57582805539221
Na 4.719860826950405 9.114735357760308 10.097422786901113
Na 2.3197695014212125 5.822261142476425 2.1157301181534587
Na 6.1926225405347655 9.745831421200677 6.838031798345409
Na 2.767123674772207 9.156610529753191 7.034860605705399
Na 2.8935696031848392 2.2252227302325926 1.9348794171846142
Na 11.231338821310246 8.330960354476021 11.83708078994848
