43
Energy = -46.30441808 eV
Na 7.7357496647598385 7.865178707589008 1.7249545521849665
Na 4.453175348503064 4.99826641752466 1.0425064950915512
Na 4.376559657403294 8.749291218228796 1.563591560468863
Na 6.396296759695642 11.581240387757223 2.9222384983595378
Na 11.352034062732676 7.023677963882323 2.0412295602392563
Na 8.1433504195828 4.042185943758576 2.1409019995951923
Na 5.5105448442427285 5.826267335214241 4.068578883997039
Na 5.347255342717687 2.1444370758284785 3.746785375958458
Na 10.001320165343012 9.971844077323846 3.865620665719286
Na 1.9301581658769957 6.956309024516073 3.086378787700641
Na 2.661977362556212 10.182023598737757 4.26764894306788
Na 6.347479469452338 9.072888357174945 5.092252008917792
Na 9.115509962194142 6.580349410903317 4.548466659364148
Na 8.839283522397293 0.7863488585492169 3.83594404862216
Na 2.1945347933938795 4.071673137186934 4.984615343148176
Na 8.356888195002941 11.991297429443682 6.388973785793554
Na 11.29708604061528 3.835831746962703 4.338741864773084
Na 8.066192418971614 3.4869469703617573 5.674746649597127
Na 12.352752111366163 7.605262641467823 5.587636187699723
Na 4.883671833500569 3.688738321099321 7.022325406283231
Na 11.825009657719502 11.143413437619282 6.965655032986158
Na 9.333706165760812 8.781129723990151 7.265977485204477
Na 0.347114385983505 7.564421316088488 6.440735683000122
Na 1.7706424769585634 4.369703498284262 8.685529332307887
Na 4.868059691564688 12.151326053629191 6.199566584227677
Na 6.591605161365296 0.6276154730080238 7.086169378579774
Na 2.6732802909276843 1.1049790640228927 7.132113012373459
Na 3.6467401744437264 7.220391829560553 6.682170606365415
Na 7.053869572585028 6.349535582540302 7.283277751911575
Na 10.542174486208042 5.259784812282226 7.747431705212532
Na 10.309152644301836 1.4705613552325034 7.169248662923559
Na 11.913919370240114 8.318447692520266 9.433877576258634
Na 5.860867496327383 9.468838786674805 8.756344955307956
Na 9.296575741919897 10.865091207194618 9.905562946810099
Na 7.803809846523263 3.4028676204917407 9.3407410964712
Na 4.449383273529881 2.2318083331656173 10.23002724829073
Na 4.939053148925124 5.834373649220319 9.79195777343336
Na 2.0158191511179653 7.711597257757894 10.049327909822873
Na 2.308596774208457 10.355874160589487 7.781199579700346
Na 8.39922871370024 7.1532367217452535 10.476609144532999
Na 5.0913290789920245 8.07692779813191 12.296481526952629
Na 6.433350215644033 4.6496899559932405 12.60199560671166
Na 2.7089655398167456 4.972399245818807 12.277935323104828
