42
Energy = -45.29770181 eV
Na 5.084847304331385 8.473084705265704 1.7625235553422947
Na 7.909894958575067 6.712653945361404 13.290518450565884
Na 9.097486666184711 3.6223101317414126 2.458139100601478
Na 5.404912675220081 4.690591895680028 2.166205164564151
Na 8.540688354453692 10.008029392618095 1.762701332751461
Na 11.158253945459077 6.877375617165877 1.9739848000241857
Na 5.419109419921312 12.063162457878835 2.714217547328407
Na 9.529304167940515 1.7897846254144132 6.344729266663245
Na 4.949166824873504 6.949012168162497 4.919164155650446
Na 1.9461259418818941 6.233330160440386 3.4650993464242243
Na 3.0362505104676374 9.907060256866323 4.899321576518941
Na 7.260942043563478 4.198660365858417 5.333650271215898
Na 2.407593730790336 2.4841216538142317 2.9768185914162393
Na 8.096347833400968 6.874173461312443 3.2877659411653193
Na 0.37993558088943347 3.772929329368375 5.920477269825771
Na 5.9485171903261325 1.361472559613211 4.105039799670178
Na 10.44056090409691 9.12042872616822 5.008790525573918
Na 3.7820361290447946 3.9212049206071984 5.589847270131201
Na 8.516706588353982 12.492370276496617 5.01293350181999
Na 6.707759707984331 9.828380756376763 4.827920567315174
Na 10.854816797504608 5.313226355418958 5.466245779933156
Na 8.043543550945412 7.290761598147257 6.703546753115053
Na 2.8296957151710234 0.8679216345246245 6.308930184430876
Na 5.279970671897273 12.312553981771735 7.0056895575435565
Na 1.984398948867471 6.963084277297699 7.235282934952707
Na 5.016601377927553 8.920701677591937 7.7999263483874905
Na 5.302818865447789 5.4493687504715265 8.109836229185381
Na 8.445231526662806 10.472871586524702 8.157638474061295
Na 11.905574546391543 3.661357288523447 8.764771789064552
Na 6.061359494145049 1.9406151674535077 7.987747001155837
Na 8.669210815311725 4.420390001694359 8.496816675162735
Na 10.849143338509064 7.3608635018529665 8.73398109287941
Na 2.300766766645936 10.506594136465267 8.854137284410811
Na 2.591390265134862 3.5847888219131607 8.999604720990266
Na 7.281874977672048 7.375127435412491 10.045485391220259
Na 9.073060719673274 1.7495040707262177 10.471702691929378
Na 3.6828721095004413 7.180742834531658 10.714849052093841
Na 5.70561198782812 10.522909015588873 10.82912022970719
Na 6.126347682482079 4.024665435142622 11.197465126206787
Na 9.627204146447184 5.296044001991976 11.762975490092295
Na 9.242650563844318 9.372949432355735 11.649133943651838
Na 6.570750651871612 7.094157586029261 13.290518450565884
