41
Energy = -43.94087463 eV
Na 7.767887627477006 3.188056411154872 2.456591404089013
Na 5.741457660915493 6.3485322860205535 1.2412505340836513
Na 3.588256674508352 3.408711956143758 2.5249434626989467
Na 8.97641875451891 6.584321770887518 3.277036514739349
Na 7.730328451561558 9.58424305440226 1.3225183704477728
Na 4.01206040395003 9.726419827731712 1.6164451375976037
Na 11.296773043885164 8.963045908529946 2.043896338946762
Na 0.17249634445048656 4.580608568127322 3.757941485070861
Na 2.7632456530984126 6.875640450413287 3.442692865214437
Na 9.352443478191315 0.8357033598091564 4.662339560027722
Na 5.6691013881152825 1.772014104066689 5.282049391968795
Na 5.863495453624964 5.183597314883537 4.494659642519854
Na 11.506511991380535 4.107965410528366 4.215049175561502
Na 5.928460156729704 11.994767994854389 3.9158782811163926
Na 8.167193979705226 13.215715583999794 6.694839638394264
Na 2.7354587194615836 4.017995120145957 6.060249873675765
Na 9.1141669124198 10.410602117056694 4.572840594342577
Na 2.9817102355037624 10.100970793713527 5.319633007971325
Na 8.704631280481017 3.91202132247116 6.019422145882314
Na 6.059668892409752 8.559612357248229 4.141350146855989
Na 11.546829915966134 8.01692416683511 5.474538348526995
Na 11.505602247046522 5.469804197825825 7.74258567820202
Na 4.338435710979365 7.277591032783016 6.773255214324966
Na 8.24694994063228 7.26962822043134 6.795619876855245
Na 0.8361642297036886 7.128667028559751 6.5400763532622825
Na 9.750545576593234 10.383732955933054 8.01728962900033
Na 6.190266839189442 10.350243030387462 7.276328658449032
Na 11.176379779770802 1.9746876822972415 7.485693072918945
Na 5.841094927018971 4.376704642590001 7.863735453870036
Na 7.525344855087239 1.3766077637525076 8.352665694793247
Na 9.900974699654869 7.73561017867169 10.168188562379632
Na 3.2717638227390293 9.385381020512638 9.262443056758547
Na 8.860409307646812 4.425371064835188 9.786903148357338
Na 2.785005095680887 5.7053715723081195 9.426688723185354
Na 6.288115884868086 7.278707174843624 9.640568882758862
Na 3.712932979297804 2.0763974459884293 9.166478063458907
Na 6.978394910513115 10.31041441321383 10.840501204454661
Na 5.677334652963956 4.193628163959498 11.389897761581848
Na 7.644251076159417 7.069694496504811 12.816420169821658
Na 4.0656561900177275 7.473708887204862 12.356048726278178
Na 2.3401535714257484 3.9649524637158313 12.376819464900473
