40
Energy = -41.74881555 eV
Na 7.813576799759357 14.760917952804549 6.323759300699375
Na 3.980380688259107 13.327776277997074 6.489225791544603
Na 6.016352078622575 13.978150015805392 9.197474637960502
Na 6.266757004786252 12.706746849034952 3.9876786776148987
Na 1.601494566456657 10.590816588389025 7.040321140701591
Na 4.431567236339083 9.785213266248725 5.307128767265218
Na 9.798234757808897 12.18718106572487 5.201234522516622
Na 4.236676737817353 10.747134680370797 9.203968744789522
Na 9.612409218398623 13.040604815688539 8.705028290525043
Na 7.172923705846362 11.034987742130548 7.201943957971902
Na 7.2833393274353675 11.462395528809832 11.05686648488868
Na 2.6134800726650878 7.483807459520231 7.899676735509579
Na 7.66183919541299 9.656890484133323 3.622603100006297
Na 6.012771728973947 7.909298134480976 7.91804054500552
Na 8.907573749758285 8.140158284021904 9.876137922546556
Na 11.170534752026489 9.298666410598429 4.165412832876031
Na 10.82200124437649 10.9851021946727 11.078215522574167
Na 5.907057442790398 6.822844488517752 4.394866576830416
Na 5.529283064976415 8.554959520208154 11.507663105128108
Na 10.896222651823148 10.02631531706334 7.643461941276903
Na 9.088819556043068 7.2858768259813615 6.352028915569495
Na 9.19689398221569 6.482485334114518 2.881442270386483
Na 12.724596171423832 8.270733124117001 10.019587274546954
Na 8.672780592746042 9.036889442558806 13.319442576620027
Na 4.4682262556787355 4.749141546336233 6.678984806329073
Na 12.787842139667811 6.598025354926637 2.859598810696234
Na 12.903051881751827 7.416583557917912 6.526739376621428
Na 12.251495860026976 9.236255540865793 13.626893939815767
Na 7.518641703971813 4.885242825271884 8.732705538095635
Na 4.286133682317055 5.608185731967044 10.330986929533262
Na 7.742904445610634 4.04126869283613 5.029850183032107
Na 11.165181264830407 5.453191919987585 8.778834223025495
Na 11.245654206925819 4.644302026883435 5.276847765188602
Na 10.899885833639349 6.353023293783023 12.250163483888718
Na 7.365262127156743 5.852085853902105 12.415418683106541
Na 6.261572059929899 1.9243252636279684 7.2390917251231475
Na 9.901709400359076 2.487694341166493 7.4870298468323755
Na 9.71162920401719 3.3984003103239027 11.16812568579283
Na 6.07037554457248 2.9097030368488865 11.307388478152038
Na 8.149441511961598 0.6390386373186051 9.805647093506664
