40
Energy = -42.81811894 eV
Na 7.659360229645084 7.169023511046524 0.594585505928952
Na 5.729529075987508 4.001566795125175 1.08742144317466
Na 3.6992950847356925 7.225743401142857 1.6981396717663817
Na 12.423891383842227 6.869625479979541 2.018265329942673
Na 9.40030375794736 4.3751961268214465 2.493556437312454
Na 6.260622704734502 9.568221643074683 3.046838647191422
Na 2.2169948181136134 10.207310842406335 3.7816497549123826
Na 6.417145351185872 6.042548420575124 3.5631226675065117
Na 9.559277332149012 7.967915286990928 3.6394123466649444
Na 3.2151005818184077 4.264319737731833 4.056884358226829
Na 14.594633753676801 3.63738389039728 6.184548054193624
Na 12.881566483149504 8.838951037553194 5.1630947610687725
Na 6.441409251194254 2.546028071204487 4.659038008253462
Na 3.8421350268060506 7.734119208632846 5.217714163313537
Na 12.106550893518714 5.368585165411805 5.210983510042168
Na 3.461886411349698 2.3207264033099553 7.199498974678582
Na 10.217097385728309 2.1397980405841337 5.795393372579713
Na 8.716169183071736 5.069490260010839 5.943681815208821
Na 9.343671494459349 10.823769734934128 5.972040913162346
Na 7.093146442853397 8.228638197073652 6.301534268754707
Na 4.834813337457202 10.88635952175014 6.4594746859342145
Na 2.202985311453306 5.74324834480882 7.579113981371288
Na 1.4147420702361408 9.262210573601203 7.4046623356076156
Na 0.7818280824591436 3.714996101393648 9.871765393929337
Na 13.555490080262445 6.3134213078377215 8.271720283342027
Na 7.449663963261014 2.679028239905578 8.383104177529422
Na 8.042452914757002 9.788332237020477 9.418248322322647
Na 13.555490080262445 7.236202046179498 8.290632973825394
Na 5.404803253867789 5.093560060706028 6.845975103661479
Na 10.340293173424271 7.709983969423567 7.384048268263248
Na 0.4997036373134921 6.907623221630193 4.644495552561338
Na 11.795645268056212 10.343034943066773 8.791234384868313
Na 10.774045980195602 4.396418606758134 8.855095526867121
Na 7.648136770086279 6.246229810241129 9.206293605472709
Na 4.629828227305433 8.210426355046001 8.986962085334374
Na 4.537311370881781 4.680526723911526 10.40617588408212
Na 1.6220831104069027 7.160038289211704 10.67862102932619
Na 6.265395875127224 7.464960637994317 12.089618037102758
Na 10.389464592716266 7.473181802878705 11.02209756205452
Na 8.341354008899339 4.317946301440942 11.809947151473432
