41
Energy = -42.77083964 eV
Na 14.38477213500534 7.5111683203645825 8.236502756203226
Na 11.940191231400735 4.0324686652383965 11.985498115196611
Na 12.510334737922326 7.401309920077015 11.162082222771957
Na 12.113256438658466 4.740843377395508 8.699109800584463
Na 13.509388275587135 9.841516708710888 5.802157927681322
Na 11.66423192844178 9.754229917663068 8.732123413709756
Na 11.521968218732823 6.9456581697127175 6.18563082284618
Na 9.148969995741163 2.85708836792796 13.518887703169218
Na 9.596385608352783 6.400658006211017 12.728536354494471
Na 9.930221835070736 9.751702115475739 11.700546009283418
Na 8.68165571469449 3.6295368430293413 10.096227899294345
Na 12.61763461345681 12.127233030611807 3.27365242270996
Na 9.277502915715582 7.071364148534604 9.102270971003652
Na 9.475086389425265 4.0929765327820276 6.630125255675233
Na 11.033599663705573 9.066878824175305 3.3108415177192465
Na 11.20619165978423 12.449329496146827 6.4759647380725465
Na 8.958514929842199 11.850537270673422 8.92535436042408
Na 9.001408940294805 9.312900819851121 6.355735214076066
Na 9.227511628987438 6.230169825290418 3.6205258826991895
Na 6.5183384258736 4.8765644086019275 13.057418353897246
Na 6.810543150522221 8.289292680000363 12.05775367220927
Na 7.22052735066201 3.3460312576280535 4.118957329238196
Na 6.797161761043094 6.444311418440905 6.125811915003125
Na 6.400451498337546 9.274453386546194 8.68730515468477
Na 6.966065914423317 11.720109544833251 11.686547908422362
Na 8.999239446684495 12.109152364817684 3.7189431721767803
Na 6.098770311301078 3.203125668091814 7.419662782675433
Na 8.17779934839257 14.30980454434988 6.300716295724016
Na 5.995219252217078 5.84074186552901 9.691058972875252
Na 3.826527065463943 6.851147182347871 13.369771658343664
Na 5.877138187739341 6.155147675261939 2.3706972815894
Na 3.8944862503564677 4.231608116797438 4.5683039470308
Na 7.388090861043211 9.220490341964625 3.1181578299357
Na 6.197903344190575 11.272877837232208 5.769502165344855
Na 3.517123847561661 6.31974556794459 7.306010988145127
Na 3.3496156213795953 8.075259993599802 10.259351545928169
Na 5.873066129251326 13.33565687269293 8.655109551175975
Na 4.22111801074804 10.225482033318348 13.331143704054568
Na 4.312745183309748 8.320788920074007 4.599222829286028
Na 3.2739327974360704 9.9961199776995 7.340896645812199
Na 3.566484961025879 11.623646495560497 10.329847845365872
