47
Energy = -50.69019627 eV
Na 3.0458110054633867 0.13990622542276163 3.6364855020312334
Na 5.122957909964636 6.956409125730226 0.18162751611059522
Na 2.5090987729407725 3.4219106905277386 3.9473377736558413
Na 7.164934256251274 9.46357098279805 8.99055053911118
Na 1.7402181286058607 9.309369286177143 11.10397485139951
Na 0.9648443666378391 9.290366807932713 7.444095888122257
Na 9.626873943150713 3.348323595348137 3.8664709502313555
Na 2.0019108618553862 6.22223041591101 1.984365896394323
Na 3.2542194122684878 6.14941838841764 11.770268025397831
Na 10.561598701188084 10.454020893706751 8.949295206729929
Na 1.0711406188848391 2.6050195861973937 7.007992529676766
Na 3.8704483192537205 8.138740907132528 8.79854763048065
Na 3.0412432587097857 8.24306754011018 4.711783930909993
Na 8.256361084406166 0.756227662588584 6.295246040967199
Na 8.507722448391636 8.146891580603965 0.38665768683086194
Na 5.322527203115571 5.588860365489465 3.444851075360724
Na 6.9395545478853435 2.1555116063140267 9.410502441061226
Na 9.997159295311858 0.6124462567003608 9.650309668572316
Na 11.819299931038229 9.078799572668643 5.933984596728593
Na 10.98897987344972 12.544088484714186 5.952795541344456
Na 4.493412009338135 1.5461651113424706 6.593735771399903
Na 9.27743888590765 7.902158284314421 11.28432543114704
Na 6.145809736415071 7.58928029269196 6.2309679666948945
Na 9.273342658389037 6.8657356180323585 7.635310598217417
Na 4.603740976142725 11.594688281242956 10.023616908801266
Na 11.876596185310271 5.683164400335 5.365766572238881
Na 5.610070669074613 8.806657035429597 12.054240490337918
Na 3.6222954422446243 5.219630235534403 6.755164050360864
Na 11.16766573347705 6.211751618761751 1.7338926746383725
Na 7.895961814141497 12.813725403847485 8.245334370298018
Na 8.107055607981101 11.481416401572616 11.616195491052057
Na 8.475000737751365 10.21639213163313 5.749408504200276
Na 4.221099440624302 3.3908920380776117 0.8261567697279042
Na 7.137423409240836 4.163620378796463 6.333737133480502
Na 6.20478495986448 2.0480942777399935 3.422944793004496
Na 3.529226027110825 3.329001848694793 9.65003320845405
Na 7.795923956693405 4.661943691501215 1.1086502202773554
Na 6.1910288046990045 9.272728031036532 2.9513902213348917
Na 10.370644535199135 10.003073319792046 2.7892642884208616
Na 6.364553172907245 5.8007124904769185 9.705036630384644
Na 10.53518456641774 3.273097454993917 7.443200677339169
Na 8.78191917069471 6.92400696083512 3.983485322655813
Na 4.894627004298922 10.916132652015026 6.466459740486281
Na 0.37827376469430773 6.02815399004632 5.404816251028768
Na 0.9589183672711579 6.01791145287743 9.029111636216982
Na 9.615698224111581 4.343500803969993 10.568196153770675
Na 12.19509529837925 6.800880917070141 9.092109930066675
