40
Energy = -42.82710135 eV
Na 7.2482459368091305 3.916338796265173 14.262521474425718
Na 4.0293923162014345 5.274708866692064 13.911544707783712
Na 6.867460791083755 7.5038359951435325 0.6755637442201068
Na 4.435949555133549 1.90511506390493 1.107102303361402
Na 9.190582450199196 5.289232049378188 2.7116661060833445
Na 5.335185292635807 4.755375476987131 2.4909467236072333
Na 7.676269566278001 1.8989163629572874 3.121647754979429
Na 3.387055602102542 7.820572719259299 2.2337022639930284
Na 1.9081203259037816 4.263797304396715 2.2802687817990424
Na 9.384405969915939 9.24506771099035 3.1932524323426623
Na 5.923721351919224 10.826304865806586 3.181184897280096
Na 6.405273956383151 7.504028937987162 4.03373394853799
Na 4.133694256726957 2.1877645033560116 4.828628078272662
Na 10.244454068479921 3.11959850780704 5.75838415121021
Na 6.85553714616454 4.263021249982484 5.414458258305156
Na 8.78371573630161 12.620137205618319 4.994803402509664
Na 3.2150796786060036 5.707825394834308 5.382536948779877
Na 9.591569717008191 6.782813020569821 5.883599260840328
Na 3.6449690903243304 9.35010344237746 5.8281604501612
Na 7.486267614536215 9.799186396381376 6.261209149001093
Na 5.2834945371833895 12.438059929990267 6.817281478259425
Na 5.896788958715487 6.927832240153386 7.29318288221652
Na 8.247899568164458 4.587131004286675 8.467633931498554
Na 10.22886771703149 2.130141872900871 9.550440011501728
Na 8.486675918742032 11.85980875899052 8.67568286033958
Na 4.404484559342307 3.7146807033301243 8.17955485167637
Na 8.999135195331567 8.161482044805705 9.210386994653579
Na 5.629739130029173 9.79644060122641 9.455061184108661
Na 2.7950928131306596 7.1757058704742 8.82434505239843
Na 2.4358066051557903 10.858938880933115 8.905394364831286
Na 10.940112421361272 10.042118339541359 6.612201649817488
Na 11.53633687034162 5.497570456639427 8.63735506658997
Na 7.2041333780743075 1.3521990811270104 7.281911568026641
Na 5.9860387714588095 6.2490835141174195 10.553210392357338
Na 7.446403662715767 8.615899327960593 12.584716034397987
Na 3.2986152478256163 4.537217625068697 11.653245880084292
Na 3.639429781207553 8.24733657469633 12.17488914444447
Na 9.207677284194501 5.322638487991821 11.697452335678511
Na 6.672373230249413 2.769732958420647 11.06597809305195
Na 5.966591228343247 5.734885157962516 13.911544707783715
