49
Energy = -52.82249595 eV
Na 13.843831932037457 7.769562735153273 9.718555958887542
Na 14.008449085565285 6.97183665227457 3.558516098758815
Na 13.669737956748483 5.4961517884058875 6.92576390720854
Na 11.766775754458754 4.845918709554741 10.357683378270687
Na 13.509993399302163 9.192594167889581 6.455660024687367
Na 10.407317767447266 7.94636310071976 11.583527815409775
Na 12.59438804383347 3.6902712649877403 3.967497874970748
Na 12.062626863825843 10.938194856277693 9.82809158062336
Na 10.936504388694209 6.406810424369303 1.5026795012322847
Na 10.88155735944297 11.655823618522572 6.6156246419937705
Na 11.486338479615373 9.632720474862904 3.516302786855611
Na 9.406429985062367 2.1337909957948518 10.292503314251025
Na 10.728330979312718 7.60028202246203 8.000773650732752
Na 9.41141583768763 13.544010304962722 9.494490801048649
Na 10.714859951244906 6.471250054933813 4.8336755645743885
Na 6.128058578110509 2.1776918245521815 11.406490999019415
Na 8.358815753560233 4.795897384675418 12.793182893235945
Na 6.8639367616495575 8.233598152159297 11.75556091091561
Na 10.484473278630128 3.673355426880068 7.218396730669593
Na 8.978082984258815 11.300080086859046 12.263426508944764
Na 8.910957869412146 12.231639751708407 3.7216089377627597
Na 8.720604177558883 10.112495333146637 9.061141804456048
Na 8.296006836637055 9.215645511875836 5.520363120670317
Na 8.930209691828033 3.235270287520097 4.13853266507049
Na 8.163825263268512 9.28652081949791 1.8469357242014977
Na 7.473307333312979 6.175776231784698 2.8316866276357877
Na 8.33330600171074 5.543439295548265 9.608097630946537
Na 7.643073890993882 5.760857834783147 6.302564493709847
Na 6.1320175294281425 8.06758001350583 8.326514768266872
Na 7.181847387922807 12.554781943687594 6.863138790779553
Na 4.941085905238706 5.340267607211698 10.653558611438545
Na 6.590354867460638 2.8433813417434393 7.857936300259959
Na 5.765466706404048 11.419195998940745 10.171477735850592
Na 5.471860793702396 11.002816345833216 3.66776944744188
Na 5.003340125318125 7.77483274958342 4.97078936064527
Na 3.1825621571269993 2.3635537755820595 9.293781806143988
Na 5.1960401159457055 3.938115456879456 4.477416046806448
Na 3.5997696569154414 5.5617158192728 7.341738834318973
Na 4.24065646500333 10.725118229276744 6.980177245486045
Na 2.978038587713183 8.45443740220681 9.743723444774608
Na 4.498355595746697 7.961744876340229 1.6492456853364392
Na 2.0108635665953765 2.688611034130203 5.778352690530529
Na 2.2067861161118545 5.870794454643129 3.827359524951763
Na 1.5937673800857877 8.64473491960198 5.991537427264519
Na 1.2012544216701246 5.259190930171621 10.076258578921582
Na 1.1379256860826772 11.23055510348892 8.62813892343752
Na 14.262655925734249 2.483018804503863 8.385167441092849
Na 14.437488642322366 5.495039461619337 6.561852817288576
Na 14.008449085565283 8.136579343073654 8.88781200136265
