42
Energy = -44.80806177 eV
Na 2.6849027049552383 2.668641161083118 5.710911859319926
Na 1.7888568355806789 4.6150901104113675 8.866919244958503
Na 0.13647412917794807 7.599641039586315 8.905363131624858
Na 2.4051103414879167 6.3713462381970905 5.5998523261827335
Na 4.375156674955976 7.868809510367609 2.664517868859627
Na 4.957818129037456 4.5366639119481205 7.4613128855881286
Na 4.783999312455753 4.941943040458638 10.910650987311497
Na 6.440337461430744 1.7602659941067353 5.986626395200716
Na 1.833210500058384 10.615377744322045 9.013125122254989
Na 5.105119561474058 4.3874306543733885 3.7427387337481033
Na 8.575248456096393 2.973867190868705 3.2110989425063705
Na 7.847653697923608 4.321210129198291 12.699134348252487
Na 5.902362537828269 7.473417310273641 5.687346227037653
Na 3.6909260262622867 10.170236702940834 5.667712546111028
Na 7.717551004282983 3.216266324505271 9.241091956304288
Na 2.4181981019138536 7.922286646297136 11.56619027233551
Na 7.889374620612934 6.6089382534366 2.7628069287618615
Na 3.9350853867631743 7.822171030533307 8.56640072605532
Na 7.399814467933957 6.987530277693238 9.055062177085778
Na 7.163301513890379 10.13597847500922 3.802227107511537
Na 8.080627801928028 4.937386174030724 5.989159063339779
Na 6.739403379312124 10.284409922175513 7.556250577740549
Na 9.494190899790654 8.356821218084454 6.101293808439772
Na 11.130311609472324 5.403832363668391 4.2250173173924885
Na 4.251765288971237 12.942825324208854 7.927724401022483
Na 10.525565493389113 5.512349766521271 8.316087085494358
Na 7.169468311541843 13.263865557306527 5.705866517330585
Na 6.40352856751039 7.750113785890419 12.4273922496111
Na 10.740640609372303 8.80074488776728 2.703927538459031
Na 10.236290004581468 2.423403427102986 6.622953951757339
Na 5.023761881849087 10.61259210308857 10.685550216703335
Na 9.966956553697248 6.875584800837214 11.683738981269467
Na 10.854323730509837 3.2565309145823416 11.006899361414407
Na 8.68544411195733 10.083159620959277 10.61945902836261
Na 14.036228494135246 7.468662782343383 3.295349070866745
Na 10.038635100563331 11.738936704378117 7.47039343479871
Na 7.441226946630613 13.250860682871371 9.42343673093383
Na 13.31639588702663 6.752426143453199 6.639764854169732
Na 13.22183214004628 5.99658624530847 10.495295593741872
Na 10.15956904117806 12.09642836098543 3.9999793849170535
Na 11.600605019093944 8.914290178254745 9.020569679005328
Na 12.69603669201173 10.047013361408789 5.504814180306487
