41
Energy = -43.22790415 eV
Na 5.622267884191485 10.637479500886036 3.0878120789862518
Na 11.89256060047879 8.692631019893108 3.2322935470945993
Na 12.60559073694852 11.942814827248569 4.368312817438707
Na 15.352525105328782 9.640673744456981 3.9301834861918823
Na 8.323226562636911 7.956487270713825 2.728092936773697
Na 9.110075914984344 11.289763055519925 3.7449671012554715
Na 4.86363727112551 7.133226061901973 2.268612988741813
Na 3.6831445593718426 12.224579352306266 5.730299474706762
Na 10.590673234446362 5.618640232481021 4.552207471431144
Na 7.08417224238922 4.871825902305993 4.225648244553898
Na 9.684713779945747 8.793006711202118 6.144625668886562
Na 14.104860101607919 6.521384664775708 5.114217434801912
Na 10.484610582950777 12.031666867974335 7.224444467711961
Na 3.567343843483587 5.365037551335632 5.139540606761398
Na 13.171677078485029 9.441934383937015 6.832339991983931
Na 6.014268872074295 8.182282326867169 5.592724145571197
Na 6.96062806625262 11.55132878761587 6.6593591376066215
Na 2.7134501714670582 9.012017747214932 4.488517427452871
Na 9.442310359897954 3.020424245342535 6.852665216350778
Na 5.111814956928419 12.92315492953777 9.415284164508732
Na 12.965308798471552 3.4130169075790144 6.218899408689808
Na 8.51784260555006 12.274763971854824 10.162489551121402
Na 8.180478439541881 6.005773302543137 7.5383913195233445
Na 3.9159254204288696 9.78323017143288 8.1876923251542
Na 7.38152674082588 9.045336546301845 9.199003119507303
Na 11.760189540864788 6.240743566212452 8.024939556656122
Na 5.700322527859123 3.0216022417364887 6.941413599634553
Na 10.916160190472533 9.477273785916298 9.729703738982884
Na 4.94208628364188 6.276312393324784 8.575247574265934
Na 1.5715248886245992 7.265267821444 7.389851172178934
Na 2.405192781995631 3.935732401140307 8.437170844093101
Na 7.744868508448474 0.5227094274733148 8.667605398829444
Na 6.66101605452909 12.90335365233558 12.977584179920049
Na 9.601615408858795 6.4311991288039065 10.937915170920737
Na 5.023935034333009 10.161226324095198 11.682567396386514
Na 8.519190288798933 9.690537240311645 12.646719603440749
Na 7.36789699974279 3.7000575922071315 10.233309213100258
Na 6.279889948258255 6.879328918639986 12.021298769914887
Na 2.6352824169932267 7.422837936272733 10.833808207272883
Na 4.554016159372951 1.2835757128654537 9.79108381530621
Na 4.071693371509578 4.210716594404743 11.607110916659911
