42
Energy = -43.23690754 eV
Na 9.990668170252114 0.6835968918013335 6.460237496475034
Na 9.301602783017096 3.1089957992576838 4.168830944929251
Na 8.486332258927698 5.088935158686536 1.4946233976949221
Na 6.98882847049111 2.7856432849218726 6.799221906910758
Na 9.877605828939872 8.228769337612157 1.4949935116964106
Na 11.782417438231814 4.153712382475053 6.60427285249983
Na 6.594508885698144 5.367848575803542 4.48363344048714
Na 10.672513936236037 6.279587291256203 4.149250481436227
Na 9.67910354794687 2.8383358088345347 9.050529127280718
Na 4.319918041301331 7.884863742074056 5.0169936138695155
Na 6.122307519374411 7.70320335183741 1.834532449135885
Na 4.386741646580139 5.110967919060564 7.356474439954669
Na 8.593500949384028 6.068561330272648 7.309351555662472
Na 7.843632339895776 10.868583885055747 2.1787122232546996
Na 7.9272088010898765 8.535581929924458 4.833535504593431
Na 6.664812102476468 4.547586823894843 9.896019672307142
Na 11.648511640626776 5.859832630298871 9.676152788920124
Na 11.654258964305066 7.895420847511204 6.968189894401198
Na 11.200677688955505 9.860833039635331 4.10665787407747
Na 1.7860272282826248 7.206465190566437 8.515497871325902
Na 9.56863908094638 4.361941552842006 11.9973863251333
Na 6.529206107145221 5.711917008308751 13.233950132018748
Na 8.30392165755699 7.567046622991404 10.682043098593503
Na 5.606722657368409 8.1353561580859 8.426003856998063
Na 9.50789868017308 5.398431655391608 15.206588005693428
Na 11.786062971864055 11.54374188524824 7.127068169934954
Na 8.801691967917398 12.248725213822286 5.114974312337736
Na 8.721500040988365 9.757893568453277 7.895317288734684
Na 11.159023055124578 7.503269016888753 12.848387871710916
Na 11.602133108115813 9.49204113291484 10.027901889835979
Na 5.7157915642635615 10.84605384138231 6.15205384586831
Na 3.9447901964785155 6.339236418537971 11.044675963837662
Na 2.325115383963311 10.06497999059542 6.839167443532337
Na 5.629333496342211 9.095260867082535 12.652479882307754
Na 8.214334935640712 8.522778568496468 14.753153464243322
Na 6.419769069983243 11.157126792818154 10.065360633375022
Na 10.250766485534768 14.796945446582823 7.071680241967216
Na 9.141928948920144 10.635860546960155 12.372327426283277
Na 9.667131535007039 12.641597476389544 9.761891845315446
Na 6.9526256449695945 13.722372197943066 7.718412272806428
Na 3.127877242937798 9.864466543272234 10.411048606762291
Na 3.7461095315757773 12.772178730312955 8.397120682257942
