48
Energy = -51.98955548 eV
Na 8.599728182903691 8.207520939968994 0.25306213159007224
Na 5.403514707636687 6.37754936215265 0.38434133219116257
Na 2.1362537565619197 8.060457493999996 1.2661069960049598
Na 8.884955290359029 4.55343746166466 1.3759696635595378
Na 2.30383891670542 4.525377446946612 1.5099385935889176
Na 5.3582015345944685 9.664796619538771 2.079573557475479
Na 5.609928052258682 3.3555497316964003 2.362701266822181
Na 11.10941713446032 7.256413351419546 2.5989606629915483
Na 11.86135305786853 3.4804500924217594 3.21786130913483
Na 9.069195603580924 10.400170452076898 3.1839846632852113
Na 7.461247531303424 7.108590041474358 3.3556321192487513
Na 8.54162131286355 1.6072354903138122 3.739881567197762
Na 4.207834603155242 6.44150989514694 3.7131354359733737
Na 0.7034285012152791 6.342893122663957 4.305573797687512
Na 2.4068642823625015 9.631929218351768 4.4933103227881555
Na 2.727487755240981 3.3811783374780893 5.009994097793268
Na 12.392416241529872 9.968360577978173 4.667972918740507
Na 4.888068390841069 0.4861968841061088 4.524482212585295
Na 9.369300251218334 4.794733698560839 5.074770630230068
Na 12.693723289388108 6.177151965597141 5.660452981894426
Na 9.758937502212031 8.235364295873024 5.81140572246394
Na 6.121909375242903 9.682682706271063 5.966565977342987
Na 6.095331948929939 3.4281197180035554 5.7552453122284755
Na 10.712823517563658 2.1513530552402247 6.681843368355188
Na 7.463895395334811 0.11241917340506932 7.01285097508167
Na 12.693723289388108 8.23410130435799 7.3631940888980765
Na 3.2545612461309155 7.144581407815479 6.854048408383167
Na 6.938037905995036 6.443413914008904 7.058924326517925
Na 9.539293607877495 11.56383401863752 6.905106641348283
Na 0.9735061670803246 4.621049362281448 7.857811427355078
Na 10.501468331154374 5.78263090892396 8.512436100788108
Na 7.8492867328331055 3.1548562161905767 8.711025519549375
Na 8.616410163588418 8.888712209720797 9.0244733896603
Na 6.415372291321955 11.601689695093032 9.520453201668241
Na 2.8479191538043294 10.426607151814823 8.367070652192593
Na 12.081980583254328 9.187053885588712 8.319107864328725
Na 4.094361863687359 1.4989943652005324 8.144909351232325
Na 4.501031551609633 4.809073585280202 9.01489036233636
Na 5.2435813269056055 8.257975059195829 9.594243451509152
Na 9.995719637299553 11.538772218730337 10.56066618250246
Na 1.798367176867421 7.3414751791999215 10.27131005256205
Na 7.691730437524075 5.952557959889567 11.017621899480321
Na 7.340733860026119 9.37155731055563 12.308254698297317
Na 2.0962486429027516 3.54691312857374 11.098825726271464
Na 3.667184987801818 10.067722436868223 11.926933028568376
Na 10.758922199625959 8.095994387572466 11.586970424288364
Na 5.561959065741898 2.8050816157558622 11.550633322707323
Na 4.407880154557931 6.275342768311945 12.466903485215962
