46
Energy = -49.32756243 eV
Na 6.944138342816788 4.265926421801144 0.4388683149010492
Na 7.781187323262832 7.785215154565871 1.2003461726193811
Na 4.241968617037542 6.818792599058473 1.423258837074511
Na 5.212559515568833 10.901270813875215 1.7146695812571309
Na 12.26086429054866 9.582065350571968 4.034897872168511
Na 1.0186630448001055 5.458829854766474 2.9061911186945264
Na 4.038682786199311 3.2920532970144327 2.7563827180545335
Na 9.905532830561846 4.722126804514562 2.3769654107534466
Na 9.074774343130748 10.75493461790153 2.7786331317665516
Na 2.287321806095104 9.076092063344108 3.450557397952736
Na 12.653960770405948 6.001707072843841 4.3351811413878005
Na 6.787633739728356 5.539705953208078 3.6189028815502327
Na 7.609681028833806 2.0419913185324 3.52267462368484
Na 6.017598949240844 9.136449538485207 4.399750720417478
Na 9.443855600853347 7.7080747354374894 4.632960501825521
Na 3.5304069277166183 6.19815583439175 4.912199129104498
Na 6.965245249332753 12.71225036640292 4.855350308204115
Na 3.7204643117404594 11.731598663785142 5.277677326067071
Na 4.43153683396672 0.4202443807913664 5.154097669131986
Na 1.8205782686691763 3.056280628626594 5.995448355053954
Na 11.069626671348328 2.3553062037249726 4.818373215528264
Na 0.3604696364088197 6.287365939180247 6.891076707667932
Na 5.591606980505239 3.491246302237823 6.1496614838133095
Na 7.271782944195041 0.8006806027981317 7.2668776873882654
Na 6.190358328256531 10.583536753416261 7.801295512772047
Na 6.362942002313219 6.862435663187603 6.831904428151265
Na 3.976961374057693 1.9084900366523307 8.864454777084426
Na 12.781337353787627 4.318149714326627 7.394551231531208
Na 9.22526790236227 4.765099057435552 6.457824398148265
Na 3.43803422910991 5.274174808430919 8.270670515311267
Na 3.0640279065905824 8.80628029039653 7.26177624775061
Na 8.713389315348328 8.000146285144371 8.820899853400249
Na 11.916709846218607 7.833668917406531 7.406776253571432
Na 9.613286634643782 10.647760809914377 6.4416333867160045
Na 7.029202857084429 4.2548519707555945 9.364973282103684
Na 5.295146869012918 7.658498897503051 9.994500818865992
Na 0.7404946210912702 3.837243289088303 9.633282863545162
Na 10.653085030381003 5.418475258437161 10.089036517797576
Na 10.90716134556996 8.682348084251105 11.301847192154684
Na 10.225449430010787 2.1912344648445385 8.627410129206604
Na 3.984422793906359 4.804475568979389 11.691470682894355
Na 7.814226835003709 6.679322052614191 12.2376999538534
Na 3.6147274829580303 10.616519796883123 10.455460208705725
Na 1.5793198104659727 7.3795651615792 10.386931818798288
Na 7.2456448327746 10.103647488196271 11.514838086782639
Na 4.577107283684031 8.22415601029591 13.2282044323856
