49
Energy = -53.15057692 eV
Na 10.920370073795874 1.5299136291041002 5.313371741523426
Na 6.573127985667231 4.1853343024725564 2.6221469627413225
Na 7.053624132056806 4.1667697392092355 9.224808941183403
Na 12.642542525165016 5.255585062567767 1.6965970873629275
Na 8.715832160224405 7.04632259546006 7.723733793963055
Na 8.168971087394997 1.0664839451605543 7.680188888888105
Na 3.478731716478405 8.346260288665851 4.4932508378772855
Na 4.837606890339874 1.138578112772373 9.215680036271275
Na 2.2581901856816713 9.490822443771451 7.432643500341779
Na 11.423545306503113 5.614463793454787 4.971248564562339
Na 14.09010270222937 3.919176396237727 8.144272976074893
Na 2.2214939429100884 1.6366876254189737 6.756271407613271
Na 0.32288507955364837 6.953117709868096 3.744421275824186
Na 5.225012633282418 7.129743012606523 1.0151954002766632
Na 9.317661347788016 9.080721156733423 4.913413753628921
Na 1.1339537068157775 2.729475156513279 1.0368722396438574
Na 4.104496093994206 1.7809709944926548 3.2045238089192796
Na 1.5889917721674063 6.366202848928253 0.27364662376137605
Na 8.517409789586718 4.202808800792293 5.664374626154402
Na 8.881993016381493 6.842496656571902 2.294877312153698
Na 4.300075733227276 3.6970254674412555 14.128013475093658
Na 3.2574570456956238 5.119960870074863 3.172096559923966
Na 2.172559535842384 5.716274789071897 6.512986421490195
Na 11.90198558362987 5.057814987250412 5.402149466119985
Na 9.691182922401104 13.894040247507776 2.295376057481608
Na 6.448320196583334 6.827076555698191 4.864522320686364
Na 10.686058608886666 3.800612208961951 8.246686640683684
Na 6.161892004315204 9.922447844111057 6.542640727927536
Na 0.41370289555708256 3.2788320382364846 4.366837589687381
Na 13.541276411026391 7.732559773085082 7.071089211428456
Na 6.4392332274684945 9.913617601930946 2.88785986496976
Na 11.423545306503113 8.178544482337385 3.992401419169013
Na 5.045732779558892 6.92145820080053 8.079711848075632
Na 13.414431766458115 8.8376460344941 1.1335627795058263
Na 7.790244624779894 4.712199691034089 13.866006615189525
Na 3.190910770286565 4.225315575120914 9.527457248255478
Na 3.405626589034346 11.779301841580825 4.486383406528763
Na 8.474548592443268 12.589461561856957 5.432944197572438
Na 1.6628595537050161 14.094949357997182 3.536658631215109
Na 9.99038020984317 3.206064368450423 2.2894052470558646
Na 2.4959359622085167 9.691483054897846 1.571759257762039
Na 0.13491224447324687 10.339247084004805 4.488399141527266
Na 5.102821065389863 3.555296827233436 6.235062614870591
Na 7.482232636943199 1.2389126340749652 4.192346402845885
Na 7.014590734642605 1.2894896625000778 0.5052388419484809
Na 1.335682447204833 1.256889710370272 10.128110081304968
Na 3.5227776064011422 0.16541060278032158 0.12631195517513527
Na 5.905318631782253 12.954771990667131 2.6444630769214412
Na 4.976623082830238 13.910347519422515 6.027425270571671
