41
Energy = -42.88121734 eV
Na 11.47880235422485 4.349298572595012 5.155724805785682
Na 11.406138015509304 5.192132251264371 1.8228323209267272
Na 11.311261864617398 3.8249106924621716 8.4487554957994
Na 11.792876269520884 7.212650139879501 7.415360620238157
Na 12.027583419202807 7.829236231249624 4.150973165341209
Na 8.481945553506502 3.8090130420782855 3.246215154235395
Na 11.244401594850322 8.737703675177837 1.0111662177943004
Na 11.265973489227747 2.6654193670125834 11.610724420485877
Na 8.260786088277754 3.454389807236619 6.651897922372142
Na 12.05234873303489 6.340112570281238 10.703570338170506
Na 8.75531433363374 6.727292301593299 5.3817819680490295
Na 12.164774309150182 9.833944437227359 9.685156623443177
Na 12.284911615697741 10.66525148618855 6.4745059109252265
Na 8.387123999517256 7.004818235420329 1.6806226740018366
Na 11.865679745528398 11.417367117059136 3.2089128735362524
Na 8.05071222499813 2.9555531802319264 10.201618969822684
Na 9.51982891028843 5.28812895902895 12.81253855412659
Na 8.733859135265323 6.2996685664142085 9.090997302652223
Na 5.537467210342592 4.962985961421403 4.85363244123389
Na 9.066511312491267 9.609244772979128 7.602268341516204
Na 8.856717710904382 9.838784465417072 3.7462902612353135
Na 9.638057549494105 8.547177736742677 11.773725966322486
Na 5.3918536911530435 4.354833131364228 8.522619869386627
Na 5.893915411828086 7.7359114881785676 7.196167310759859
Na 6.29325739395644 5.817240773650158 11.648128385763965
Na 5.732182391207243 8.162106056090133 3.364215992780292
Na 9.447352599438714 11.806698429447902 10.580919186175697
Na 9.342243541478421 12.635839887507524 5.846946939880284
Na 7.602273273071799 7.590364786261665 14.562885763916391
Na 6.645809621966481 9.324736942077905 10.199949746538143
Na 2.787111583020116 5.870678883725283 6.897603051891407
Na 6.173489277292988 10.985753112920332 5.592341061883903
Na 3.7071029982645824 7.2278932239669675 9.94934303961218
Na 7.46668740123888 10.858269339921389 13.325937591541836
Na 3.190316272025825 9.057618775213552 5.34385856932511
Na 4.565322354487402 8.626208248286348 13.098662000499866
Na 6.915776735379515 12.829008925844954 8.529380439368223
Na 4.042272756847903 10.729634877964033 8.278810276834802
Na 1.0966358688804727 8.736425840941145 8.196346937191066
Na 4.919643061126667 12.232605530718768 11.407164440477219
Na 2.0359314921387015 10.21378950711661 11.23942427668106
