43
Energy = -46.20990634 eV
Na 11.233935065820672 3.3404341870088805 4.159658249820973
Na 10.132785744948118 12.036309407547641 8.351680099894207
Na 4.511193574383984 8.865210583360003 4.876355064138455
Na 3.010864086589072 4.496043736139452 0.3239907813434122
Na 11.158718613878928 6.414478845123393 9.950605826773963
Na 0.9054050685745267 5.53705872057825 6.024884128792952
Na 5.652053487355604 2.8187757090807333 2.0052220347141585
Na 1.0397818019075016 5.476201681716993 9.78859673236871
Na 10.906402481470014 6.327287806724452 6.181785309077302
Na 11.949150355550062 3.5421856021656843 7.997077444736107
Na 5.966156360363019 2.169433466903742 9.148050335961662
Na 12.565530328784137 9.214622982234138 8.236859918329694
Na 8.976014370221547 3.8100021399130264 1.0902825438146215
Na 10.408907037363843 9.902643706173233 5.141243106220952
Na 2.300103562794814 6.753242000819429 2.983528348797645
Na 2.3418624149597784 8.07606740943034 7.727996925945982
Na 1.381926278154428 9.97562905202974 4.6706822867410684
Na 10.518938799638482 9.780811614307726 11.282744449585804
Na 5.7878446284423175 8.261928108490432 8.064600082395048
Na 3.8899688125704195 11.240340110056229 7.731586271703477
Na 7.675314177092463 7.611713730757227 5.22879031475127
Na 9.184404333095841 8.735168073864836 8.247094473326474
Na 5.623103120227628 1.8809262021275177 5.574688446330276
Na 7.235378877066169 10.03450665084744 2.7954288879086597
Na 4.482249216602921 5.366785512265478 9.32232689332229
Na 7.172827083646656 11.227688540277226 6.330655206993109
Na 2.937056963515875 2.7117756671818474 11.188946461299864
Na 8.52675436440901 1.0211825140963078 3.4048090005884597
Na 2.644046068551739 3.2938579278540496 3.6791699876472617
Na 4.061092111445691 8.430139725004153 11.030997542719888
Na 5.8741228508714585 6.442840464673467 2.1686435204754737
Na 5.803417808695178 4.467883704266373 12.348349740889105
Na 7.912808207770763 4.3144501906654416 4.374366480134975
Na 4.37512998169 12.249543257819095 4.1720897050197445
Na 6.977749957788825 10.876434748403902 10.08293277567782
Na 7.631200520969836 7.225658652840488 11.06246149967345
Na 9.108619030434436 3.496403231029766 10.487722227095777
Na 7.798033657055587 5.195497461101316 7.857650973269217
Na 8.989241757695984 1.9660815160965441 6.888175218836058
Na 9.794141103974788 6.9612363696827 2.639903688457421
Na 4.696859785639056 5.398632916066155 5.7166932463861615
Na 3.6392102717416925 9.702896950405451 1.6225476407890809
Na 2.7242631816202802 2.8545564282433684 7.542693432624927
