49
Energy = -52.73946509 eV
Na 8.869638341257673 1.238169888830809 6.460516584589302
Na 12.232274642120487 5.648601392197664 9.621582478953389
Na 9.212640100834264 3.406366514163645 9.526309896437063
Na 9.264869903301939 6.135106361404513 11.891102618202401
Na 11.635812375643559 3.678862934857227 6.478693182940839
Na 6.134360802844495 3.978206376242634 11.694070170070058
Na 6.24403988327072 1.2382007134562512 9.272146953569491
Na 12.003820196605778 8.320817027682399 12.504602407043336
Na 12.103056030202055 11.170175761650617 14.759588123978794
Na 10.555893726703735 1.8104338161468208 3.3348194866947103
Na 9.070020056831469 9.259792130829593 14.634051484446735
Na 11.627656002315119 9.09339798794321 8.982148860739573
Na 12.28500915809472 7.229884241711291 5.806694546919939
Na 6.099498541694865 7.577165582439565 13.19160440407463
Na 6.618230252370035 2.308316278506599 3.5843638292332964
Na 8.926955288967202 4.567388693110366 4.585214255029463
Na 12.758348841070726 11.544723405265533 11.329302089154035
Na 9.445482752293943 6.53646558281133 7.68166847132222
Na 6.51616858913251 6.565890847122793 9.604797265064596
Na 11.675314144037216 5.35592721670305 2.624435602308807
Na 3.7617277894120758 4.060320102741676 8.896343659387519
Na 6.68514544693119 3.8147051499983173 7.108738197973222
Na 8.725906854663505 9.545102018324817 11.2503117252397
Na 9.499309989072444 12.564180401447432 12.789363680794311
Na 8.777696428661143 3.7960323994507603 0.9937009282649804
Na 6.143817744513406 11.268105036288173 13.416892728468989
Na 10.479955975103904 10.554180412461953 5.882913516674678
Na 10.097988056185594 12.360889613314987 9.05908857672943
Na 6.706140530667216 12.688231218935904 10.021055509620018
Na 9.13731627266224 7.904722621875225 4.009822880074834
Na 3.923593936796241 4.822825136551223 5.054458806422779
Na 3.4018545317018605 7.553493218752014 7.71242030032074
Na 4.976295321473012 9.581437164663749 10.436137138480772
Na 3.1340008221033746 6.609426300766785 11.337809333849597
Na 6.36810467543039 6.978500202565153 5.989219351617676
Na 11.946487775197417 9.103772204029843 2.580811142818669
Na 8.91429523441315 11.524396952141982 2.78834242887376
Na 2.949804963279936 9.619396352766165 13.328252603044376
Na 7.699621266375588 9.724264497952802 8.064321156215438
Na 9.293351803519172 7.323331950805673 0.62633732241879
Na 7.556697776457898 13.021289694909488 6.367170961138276
Na 6.265368571044389 5.909700427220482 2.518237002370542
Na 3.326355364273283 12.509673288478721 11.13281640952621
Na 3.710698621705665 8.648596522065478 4.2002927662502
Na 6.311597088106415 9.350264136733722 1.5954845580666097
Na 1.4902593925739145 9.641520932478976 9.828696218478777
Na 6.715376207928956 10.10351614439236 4.93977863254177
Na 4.215950515560716 11.21209137496364 7.356052470980212
Na 4.905332732789399 12.36029916889287 3.501839334166909
