43
Energy = -46.39486428 eV
Na 6.554719358982342 5.43584307886127 13.85387324021499
Na 10.091341920986476 4.8707695536500655 4.183688677008942E-4
Na 8.82726446172561 8.277024134370798 14.523269345831249
Na 7.266113116648402 2.764127006662351 1.4729800454503013
Na 5.327553144965718 8.410638124394035 0.7915866344765518
Na 7.697926924421771 6.177124728683106 2.03065966547013
Na 11.013158750370167 7.428800343293032 2.587844578531025
Na 4.268545009532782 4.8278813375826495 1.979108516740235
Na 10.167973965280284 3.947030642937073 3.717339543268898
Na 7.983114158152948 9.690949500793076 3.0278407864780466
Na 4.2815844351128955 1.8928107773572904 4.352283202263026
Na 7.969453022134991 0.9912324884172192 4.6226693711084375
Na 2.369090182303288 7.880123226020955 2.8687534307261338
Na 6.675781940665395 4.12947602826888 4.774460152016072
Na 5.340763506442325 7.316250315411425 4.489579211732443
Na 4.562883359876876 10.637148971196057 4.306713153138032
Na 2.588996548597264 5.139107517947395 5.367302862183498
Na 8.71632146894955 6.889536515409943 5.250067173039345
Na 11.60412420259337 6.309378825970445 6.573363875049003
Na 7.495318905855192 12.608890098572624 5.231692862287373
Na 10.596344264661596 9.983915215325576 5.679916776597458
Na 7.343129485026725 9.594549209465534 6.726655022933751
Na 2.4325476817414167 2.2678322999560807 7.652750368080182
Na 1.9776010968715851 8.76593167115268 6.539181997237234
Na 8.636791890410487 12.062404751642722 8.610749246168142
Na 5.123336535539247 4.405870320226886 7.841591981119017
Na 4.705900234861712 11.435857321477153 7.963028868050227
Na 4.732359243542152 7.847228087498985 7.9201072561734644
Na 10.221978703066604 8.828253181002378 9.20824596168339
Na 9.14713902274493 3.336016374955988 7.259939767241476
Na 7.8544049553116375 6.43091828114977 8.622248016150552
Na 6.039196824877719 1.2330811289451689 7.919151293784918
Na 1.9534200599980138 5.760688018465793 9.013705601508093
Na 10.674542641525548 5.212901633243157 10.110234464477985
Na 6.697392051552897 9.525287585073007 10.477082439548607
Na 5.135581792455764 6.230098830588473 10.93363589677446
Na 2.8863776681679316 9.00890341661508 10.703412341522947
Na 7.457117245916937 3.402917229652058 10.662486548778299
Na 3.822159560213671 3.0087511483132188 10.940553217292129
Na 8.256773194127545 6.770058320307547 12.407972840407641
Na 2.3240810198409108 5.982390591100462 12.833377638741656
Na 5.09399534182333 8.232731235425197 13.68842776591241
Na 5.619832508997108 4.583302339488688 13.85387324021499
