43
Energy = -44.8579194 eV
Na 9.70708575169518 1.6680121126358907 5.250836026994482
Na 11.950745367269846 4.020759253673085 6.0873440202712334
Na 11.64422949671676 6.975183003073645 4.27512464061299
Na 14.521112742536463 6.12820775256075 6.499778678848015
Na 8.33797459674652 7.750614823843283 2.7495719785870647
Na 8.799291742424876 4.983673888809347 4.650907442254363
Na 7.789130943840238 0.5737067256331675 7.800823573604779
Na 9.160779363104693 3.8813250670767796 8.220024572649312
Na 12.843405426698492 9.026075673331752 6.872821832793441
Na 10.500959468619069 4.073240054329772 11.509518546129708
Na 10.170223394302102 9.99662857507361 4.688664152970039
Na 6.27155743855457 2.8468383005274083 5.435460007717436
Na 9.539400793307449 7.380643944831658 7.166432157999923
Na 5.337691587109026 5.878516627746696 4.1627952753566
Na 11.798405786829868 12.337536564765132 6.962038904642661
Na 6.636276940327371 8.861433777945033 5.714904138756734
Na 7.200298235086505 11.153071872124876 3.0662967546273676
Na 12.107875933065944 6.206742378230882 9.197180822736726
Na 5.2421917915286596 2.7059596437367106 8.652865158218475
Na 6.346776163408053 5.901645661894507 7.511031084012684
Na 7.866169852512619 1.851589333611277 11.010767482801276
Na 9.507751165913099 13.322458011152891 4.247048547941377
Na 4.901084101320842 8.740886250343964 2.326626538554844
Na 7.0058723065244335 5.378577951976752 10.922660103226738
Na 10.82834031690869 9.634069831754609 9.584083079275942
Na 3.406605973034095 5.408326388380377 9.472877810132097
Na 4.720968023687122 2.8522751599866805 11.989835936428385
Na 8.452329569778161 11.265490679169925 7.377079718575226
Na 8.969314112857974 14.94014031635394 7.14276933897079
Na 9.8452469827084 7.351284619121036 11.917165485143165
Na 7.295344315368844 8.666133690547634 9.576209412629655
Na 3.759959098516731 10.7283108349919 4.864638636441225
Na 3.440741305369376 7.874988199790782 7.017666252909454
Na 4.062728103944865 6.018370010628287 12.894956639062945
Na 6.016288185464116 13.194131801706643 5.798402705416544
Na 10.057464297491931 13.081783947908301 9.972588895370105
Na 4.821886131024871 10.88947292238911 8.241443095704712
Na 9.067124013206596 10.627696882462716 12.481015999572016
Na 3.8024866362797693 8.691043121156202 10.667012718046264
Na 6.527197677316453 8.226387441609768 13.050676126036961
Na 6.593155337664321 13.701640335718613 9.253860825220336
Na 5.699166874657898 11.329142986973059 11.645376354714987
Na 7.954590370041778 13.895761174280041 12.558831022892615
