43
Energy = -46.2313295 eV
Na 3.4953949404126647 3.6015892658184545 1.5339666047742335
Na 7.1839419197799295 8.427144367694623 0.5334519155415849
Na 8.126033606881197 11.25477721639707 2.432178762381126
Na 7.087791004495186 4.913594524991319 1.258764028513571
Na 10.138208544880264 2.8425176800721434 2.1645030078707643
Na 6.446575090996311 1.7580007918891343 3.1958381749551936
Na 4.063332819419191 7.1594823389118325 1.8490096207345796
Na 4.6799141257062145 10.507328521055003 2.7796155863803684
Na 10.207928029125892 6.696160136246563 2.597380044998852
Na 3.0518283488761684 2.112713717090506 5.126280259553171
Na 9.871361074374201 10.599567318600087 5.546995839418929
Na 1.4767539043406779 9.033057453072143 3.8259208526790816
Na 7.306630204178595 8.097354255532675 4.04476776786613
Na 11.795448657555305 4.1313602219487375 5.260106063930818
Na 6.37142488459227 12.060796697526518 5.455213566408267
Na 9.325148673901001 1.1605087659934066 5.545028544322708
Na 8.462397478724506 4.430170180000603 4.61180683740755
Na 4.331515972234584 8.28814006838272 5.759394930086733
Na 2.8099607602994454 11.363561078884096 6.074795192569863
Na 5.100835210810261 4.940141942281361 4.228146552935475
Na 1.5854919955684115 5.427939347357379 4.393323259457413
Na 6.2010164980877605 2.451243562452483 6.710869538315829
Na 10.117467681917594 7.1171639005479435 6.444261315516717
Na 0.3965963461312895 3.8757415982469916 7.617233877529379
Na 6.7658834598567905 6.033757367574459 7.0397908481315925
Na 3.587493924388873 4.996793896886583 7.3435369046444565
Na 7.363644176576854 9.35873059274041 7.52710325376729
Na 8.45094977127499 12.546165659944855 8.480630416881162
Na 4.983240949197448 11.413426842530678 8.858883245429615
Na 1.3368290942652619 7.695375770381814 7.559078051686326
Na 9.321863498803722 3.7589315284061886 8.125943892714478
Na 3.421197423109716 1.901280381527633 8.893216296606706
Na 10.575877532881663 9.602517411953 9.335819938813646
Na 11.732364105807221 5.952130754196979 9.61571790267348
Na 7.562536603938676 1.0711251878185906 9.610497215290287
Na 4.724769543937652 7.7935417513323575 9.509147026662399
Na 8.386533432633627 6.880210788194549 9.833842543270679
Na 5.963803802122886 4.218969956236616 10.052956798445273
Na 2.2940939070249495 5.264211714924723 10.499451752087563
Na 7.561293049679216 10.08475017411416 11.216919041712144
Na 9.19319686964772 4.077431391168466 11.759526662886028
Na 10.111139951183064 7.929105027795232 12.559305844590039
Na 6.540705152411646 6.681902873309825 12.700194241587084
