43
Energy = -46.20306284 eV
Na 7.201717825317524 4.821356621725316 13.995537061859512
Na 6.268150418940034 1.6167195451031313 1.2452043857185626
Na 9.765272482498652 2.9188432891911953 1.326719841243963
Na 9.655721590964703 6.5515558210752225 1.7893088207487784
Na 4.000065759321843 4.643432591094786 1.6839611041820983
Na 5.832757521454741 7.661571601748325 1.943191665862174
Na 4.805488016516578 11.22538835349155 2.255918978199818
Na 7.147428063944828 4.373009990072071 3.146975740586968
Na 8.482726982592991 10.019343679797391 2.9313371475388132
Na 8.34461547005189 1.376459681392302 4.411716080853562
Na 4.720579707525935 2.243573932599988 4.4594807262254035
Na 11.46051648614108 7.8264993863546195 4.888838411865812
Na 2.5077476154547336 8.358040891299186 3.8174484211367425
Na 10.389834603553162 4.258129902672696 4.997791160672017
Na 1.6137954664512586 4.4027546395969255 4.376521725257886
Na 8.026814135551838 7.075146897990487 4.819144479800115
Na 4.504187014835215 5.964706715144997 5.343339123606465
Na 5.602237044047651 9.521580981540739 5.0656722539685575
Na 6.939141129653038 12.722942779981539 5.073459313986147
Na 3.254149345090859 11.943908220081946 5.456826980008815
Na 6.968791490209529 4.197153113498714 6.926841240500961
Na 12.880637278992529 5.347628734006107 7.5618956587084165
Na 12.056937285393548 9.05717033309969 8.401648268733446
Na 9.418641145380684 12.561718060263889 8.706846743278218
Na 9.778285810909603 3.140763398690077 8.692985801766344
Na 3.184878334262084 2.8159081685401133 7.543036827698922
Na 3.094201980782315 8.951433041642284 7.581026352241403
Na 9.070123948080479 10.046011157205811 6.486674930383115
Na 6.569845415433109 7.806625027716758 7.861456788006036
Na 6.532529898694598 0.876386967909065 7.512705487711933
Na 4.282440484925751 5.710085753740065 9.043446739657401
Na 6.034294089873445 11.28023320798312 8.270331092709752
Na 9.74154238162491 6.547831955681845 7.783404173286506
Na 1.1655610145500064 5.922998035770547 7.566631167470925
Na 11.347101353243524 6.172619606466905 10.746625695898102
Na 5.569918708649917 2.781778723368927 10.375111597952001
Na 8.87536217514629 9.258711444472537 10.124085552821327
Na 5.228726023376159 8.72384831181661 10.90582989914191
Na 1.7540605270193346 7.4937269681475795 10.780944410331882
Na 1.8238675084733529 3.871963035201843 10.773928987236356
Na 4.491288009790102 5.498917241165681 12.568095020900785
Na 7.699193698519076 5.670535833616727 10.612989517210822
Na 1.4414629577186957 6.273624558999834 13.995537061859512
