40
Energy = -41.51345405 eV
Na 10.785757098062835 5.404325510231086 3.785164908562767
Na 7.683156406456631 6.957942357180022 4.30755523673117
Na 10.575611707719663 8.676564850614497 4.60322597202578
Na 12.779977335966612 10.036849983997767 6.862944521634741
Na 4.447637006057824 5.7856118270594825 1.8769422792129227
Na 7.363328318098791 10.398582788232195 4.651264757192921
Na 7.557832647042501 4.12930676132763 2.2249028520216494
Na 10.443920411017613 12.064404290950785 4.98685451856987
Na 4.512025083601203 8.421716678290963 4.026338226435397
Na 1.9098152236012618 5.574703270056449 4.349652181215983
Na 13.220485662801293 13.44886869766498 6.8590595193030195
Na 4.258369653641115 10.86365550623658 6.5467896639348275
Na 8.469725764331798 3.2302416639134925 5.368417468401473
Na 1.7966281078310962 8.52708939192556 6.149037895816785
Na 6.919048736282269 12.755033450423719 7.381351091710393
Na 9.140828102576942 10.042804215798617 7.772877525921423
Na 9.989171781102575 13.871229487539491 7.921106386771775
Na 5.210403116585516 4.602068784921017 4.942404008744047
Na 11.974377702670024 11.73848191058704 9.811616501823664
Na 6.07161799729776 7.931690416138732 7.377235861278098
Na 12.766903782162391 6.613441064931266 6.698987542107074
Na 8.504329821166413 12.30535048780997 10.562037697004827
Na 2.889317972085445 8.772161921209154 9.297893109372431
Na 9.413979245146477 6.188940662192413 7.3961588446958135
Na 6.4509684030915295 4.404405242878776 8.055317560627786
Na 3.1146103190458336 5.5784620784645345 7.6289666996645416
Na 11.512322944733784 8.225283895144214 9.596643031010112
Na 12.029804833660346 3.1520747760877192 6.315209119056658
Na 5.556606832881662 10.813767486143998 9.928490936475772
Na 7.955350734974579 8.110171901133581 10.451130291314675
Na 4.9197571585195385 6.1141680559614615 10.518867482773858
Na 9.376804902904837 2.6639504816691075 8.60142771760807
Na 11.781300453239966 4.834007140308786 9.744012733525276
Na 10.561819887684868 10.054791384388745 12.438173475857699
Na 4.0615189464725505 8.90186237922393 12.528697320926824
Na 8.04091431784867 4.515353774215205 11.126301705364394
Na 10.48209985487833 6.564489016549581 12.53251425638078
Na 7.106077476782721 10.438318180855577 13.102547630678687
Na 6.661355238580421 6.5580378614800985 13.543462673620564
Na 9.031743185438705 8.43509861801672 15.208660776191126
