41
Energy = -44.09546613 eV
Na 4.141123363449604 6.283759398719082 0.7888436799251961
Na 7.686191568411459 5.139512293606443 1.5418276598561256
Na 6.754771316844327 8.949893706145438 1.9317050110232477
Na 8.224884014403012 1.6696026065350402 3.0434129265314502
Na 10.482789314593118 7.694395993955375 1.9247627005560546
Na 4.590318179870199 3.1429419474078992 3.0367388260728907
Na 8.466265485897818 7.271882109238479 4.539072672032461
Na 3.102718094917238 9.272830930480465 3.373866205916859
Na 5.16095491340823 6.518624292286394 3.9436527755106816
Na 5.780118812079299 12.339985104803091 3.8670968518012927
Na 9.287603962284438 10.675535264934354 4.48162573789053
Na 7.287280406268229 4.095692624431051 5.13219468937404
Na 1.7805501697544894 5.700228932894778 4.057928066426896
Na 0.2941467252438159 8.82927944317213 6.095081122865327
Na 11.636477998824912 7.933129907105116 5.840246624412219
Na 10.65356582962575 4.526710805623932 4.151514543854638
Na 5.989946667398936 9.542961838040563 5.507552855434898
Na 5.7513348280951915 1.14352074774003 6.269466859877948
Na 1.9988793291073519 1.9747407758713165 5.8238796123552
Na 4.072163070118706 4.364595854322982 6.494579277128329
Na 9.432046504639814 2.0124426577114156 6.935054862570013
Na 3.2660841564904817 7.752496184262801 6.7715374860486435
Na 3.2102678556003177 11.279449192280863 6.752896618346116
Na 9.385975529160568 5.622269673720973 7.497812102899512
Na 6.285483886802614 6.746069722021939 7.374394520080507
Na 12.347138246800869 4.486788720811936 7.6900945947006445
Na 7.2001452561453725 12.22505919779027 7.441158652064237
Na 0.9952600997904311 5.3330624584049975 7.878033487839009
Na 8.647153134033935 9.01545740605215 7.741929338700404
Na 10.939160735812537 11.359072986328002 7.897501722655995
Na 6.704908719997881 3.7618616811902204 8.73004332081176
Na 3.5528290212794316 2.302078776871371 9.308557937788741
Na 7.080694207003614 0.694797074616669 9.856322321647895
Na 5.316368942909096 9.537429615972197 9.40024065207234
Na 11.185303975270688 7.6677153892407395 9.743865780398847
Na 1.5868760927128849 8.904601840098822 9.534551572137405
Na 4.010571958734485 6.026986915571574 10.059970013046726
Na 9.742999871395172 3.74550900471327 10.470233622346306
Na 7.631621203870675 6.86322792349697 10.719880518227415
Na 8.715420090104244 10.530233033592353 10.789821012141816
Na 6.14533229539433 3.5872918024826097 12.084776999174254
