45
Energy = -48.11154433 eV
Na 2.581700137269887 10.311435164019302 5.392982378580633
Na 4.865715260234224 7.8422399212779546 4.262892498064155
Na 5.342574141432056 11.39846919819601 11.956388154805103
Na 7.1750339212951895 2.5409104540247975 9.819810598552028
Na 2.5194646234227687 6.000071474825045 12.649364018208997
Na 4.326733181312126 13.397824594003218 5.812748871839357
Na 8.107301620209872 8.833563996409104 3.1581812349216425
Na 8.738353752304906 11.257575257320614 12.473082388522654
Na 9.795499554646359 11.908769093065146 9.12893858772185
Na 7.068868891949396 9.663276301345723 9.396095141801633
Na 10.203078858425668 8.542090004125464 10.616092465924156
Na 6.9947360697966126 5.102244636817037 3.2618436481512507
Na 10.406927476462783 6.0825245638546095 8.159070836434529
Na 4.871245663444967 10.981453277991188 2.7212042334709077
Na 8.548482029730751 0.5421597089623047 4.129364353650718
Na 9.195315445597892 5.202752998521388 11.746138473852552
Na 11.681371786716714 2.794927129206948 5.9757025869733615
Na 8.37990813252333 3.5636257011135335 6.394767728575219
Na 3.258785037554525 4.929104684411098 2.914244835662926
Na 5.3014393719239505 2.0613435191440614 3.441708424908316
Na 3.716588564680741 1.8947385444495615 9.65598376440256
Na 10.670713629246734 2.927409935987664 9.426720076535634
Na 7.53972110300978 7.233791386812423 6.320463049188534
Na 2.7816028187403448 5.209717232416264 9.112652720407146
Na 9.235986728891026 0.3121245782583549 7.537843556469113
Na 5.381626366098986 4.106140243500822 0.13348493859968555
Na 4.289666157066727 8.110795247759201 7.665477437885114
Na 2.4071755508865555 2.7055742305381245 6.11370864236258
Na 5.003499976190166 4.569306852635533 11.977586772103772
Na 3.623337900337875 11.296957921187532 8.757094391855071
Na 7.854564447288048 1.8434403938358512 0.8670882210887435
Na 1.7574563583814238 6.505883559173043 5.7471121514093175
Na 5.751627912312071 1.0285518402477625 6.813725657540968
Na 7.172790940634505 8.067091690594793 12.649364018208997
Na 6.444066687017343 13.24546852562841 8.958388159673625
Na 3.9826003268092367 8.093761390033858 11.059177780037059
Na 9.995510803839863 9.434725725697573 6.642035105897702
Na 6.788215345134453 6.097140047021378 9.446090982040971
Na 10.345210464332823 3.277996424838308 2.7465768095691057
Na 5.457701855735608 7.646941781443807 0.8691241824130344
Na 6.477876275733565 10.713552032538907 6.066638484974743
Na 5.032657270657643 4.673443887474869 6.363127090753188
Na 8.919084951459288 5.858689839694971 0.6431302000088437
Na 2.1381970666123498 8.402019648875088 2.2754684311750357
Na 10.409348240005022 6.327738058077714 4.42741299807036
