48
Energy = -51.09001278 eV
Na 7.106425057902184 1.8089012095124053 6.330980064760401
Na 9.065475227846305 4.457721763301003 5.302512146466936
Na 11.882101656896536 4.363243316472965 3.2019310111755437
Na 5.866281114275968 3.007526284767602 3.0713528608513543
Na 5.374772565764665 5.890636412406447 0.8799485228306675
Na 8.691074448124345 5.396662938016179 1.9213750120098412
Na 3.7697457125524476 3.040416639973703 6.086125985460126
Na 2.6460513481978745 5.43664418579908 3.3273729343584257
Na 10.688186121441836 7.632436164515648 3.993357599384529
Na 12.241522050707909 5.4637755641623595 6.6785249897973955
Na 5.5710839563138785 1.7599571971023542 9.518230757823174
Na 9.38232098105709 4.072998807338915 8.993140495365717
Na 7.4985570611968475 8.837770120077774 2.870767326226422
Na 6.2399396786051 4.983090737850704 7.780559463015906
Na 3.935080792819972 8.69261919841279 2.271766645541199
Na 8.550240830329768 7.659346945737641 6.77522829616994
Na 5.954790683662371 6.0834263655697445 4.445604602532939
Na 6.567240488370452 4.564190247915535 11.53648354187464
Na 12.830082958030843 4.195140548457028 10.198820470323273
Na 14.709722252463953 7.144887674910844 8.817179795367958
Na 3.090811035310718 4.26344393978487 9.657870959145468
Na 12.29726950355935 9.223208601180831 6.73205016167451
Na 2.949959187141174 6.443214898591662 6.763243653528902
Na 3.9265427595551863 2.524330557315702 12.632675011980155
Na 13.500205986805668 7.135405334659119 12.291226233305839
Na 10.082443199821748 5.5359662697297365 12.459393664532897
Na 11.336256122286835 7.167210757599929 9.513389081688624
Na 6.450330254249234 10.281573003712493 8.559490626864799
Na 3.5075719965384464 6.2546080494872225 12.620489052996103
Na 8.97444310361573 11.013816429107251 5.622040325915289
Na 1.4712419222831867 8.714497547438672 4.7118682738201345
Na 5.15691336718578 9.214800762171299 5.593345904566967
Na 8.050688283775566 7.463851633448073 10.18409712318396
Na 4.650043168307365 7.457215128710547 9.573294506522538
Na 2.859790465136413 10.273395795859269 8.01268696812074
Na 13.249898286331083 10.237615798067548 10.217973611586181
Na 6.83057262382368 7.8675312399329185 13.215418129194184
Na 9.864942504146544 10.301372165250607 9.099279748159963
Na 10.484407311139941 9.235619114035782 12.521204566778081
Na 5.763881877092906 12.76648187556141 6.0421872741411065
Na 4.138213720203653 10.068846915460366 11.652805485998458
Na 11.645374363812287 12.823142560945973 7.554903469934943
Na 4.706322508635409 13.06474728934299 9.647424207107813
Na 9.024463573376327 14.739434938828406 5.719455883671182
Na 7.569086602894494 11.28799860524478 11.73159664455488
Na 10.895132729916558 12.977471000125606 11.16360893465158
Na 8.148097433924024 13.47567340084071 8.771653506154056
Na 10.606541132752415 15.991040651560212 8.70227204807498
