45
Energy = -48.61865126 eV
Na 2.949287506894712 10.322536837065378 11.043323485176014
Na 10.942977266565425 7.819103723605598 10.260308563459418
Na 4.966801890517856 7.020597259675846 7.119054187120738
Na 2.2310285747816296 6.16624501203659 5.10048606300251
Na 2.771642875327119 12.087627078627436 7.585431323808016
Na 8.00111108671232 7.42188886366627 8.798181097881125
Na 8.940930838429233 10.96420739912068 8.31763165882676
Na 5.440611928940839 10.191138474829573 8.616917609096811
Na 4.274374152776559 0.48331101976389046 5.3463974716281575
Na 9.483436835355601 11.364676518615129 4.361453610615359
Na 4.785951050984089 3.7637971851723506 6.140570729686401
Na 6.152108084115715 4.447647057283675 9.17748279061212
Na 9.125085885673423 4.583971361063463 2.267977794535788
Na 12.34026087249928 9.469630925015236 3.101340126061441
Na 7.892223261755557 5.732952745392293 11.921759913437484
Na 11.997729435644196 5.889483557698374 4.074219726686805
Na 6.316498080472397 10.031123782836616 2.5275212527403905
Na 2.5625032488921655 5.073418550549631 8.688067292120836
Na 6.944343771502292 2.3783683581866635 3.8074205683812608
Na 3.8841039047199772 1.6327643593202703 9.047142924737033
Na 3.8508545573853032 3.846617350069587 11.97114672880389
Na 1.3103062556906264 6.6175258480144095 11.552336675237289
Na 12.218276143076126 5.475201078418923 7.649710843095701
Na 8.322652718070069 5.301411702971966 6.047731467448393
Na 1.9819023307481964 8.551301518744937 8.13847391729136
Na 9.604631622274223 3.893580323551135 9.301442897450052
Na 7.275635233653645 9.06493605016324 5.810709184798559
Na 9.24415284143244 7.917385319960713 3.290535438584069
Na 6.904616844296682 1.9583599789220767 11.314764967578927
Na 5.902133982179423 6.229027156849411 3.7103272921989436
Na 6.067379107974615 12.345558153343537 5.78135619998169
Na 7.3691949306877635 1.6340421183324965 7.395878335364724
Na 5.781354183717626 4.253549299402021 0.7605808238778741
Na 9.646523009800315 10.344818747330136 0.7885200163846179
Na 3.2618906553506353 3.354686907231395 3.1455716993979372
Na 7.570136410304206 9.484880920619178 11.490978845004387
Na 10.518803855848109 2.797848501383742 5.627279814244501
Na 3.6421613071758445 7.305312600685715 1.5229105378618466
Na 7.431228195208004 7.375977550182818 0.3029772491926558
Na 10.87164428011803 8.516480442706868 6.509153040978314
Na 11.232764074528914 7.129236606754136 0.5737863729975643
Na 3.686510891123979 9.560135741636515 5.001600626831216
Na 1.4252222709647548 2.6100327823853893 6.46885157456034
Na 4.7253567578604345 7.301343935382354 10.727306166023295
Na 0.7099947265162802 2.844597033979476 10.371718833744
