42
Energy = -43.91532138 eV
Na 4.800094982719184 12.645844757244515 4.460276225747682
Na 9.636539804726322 12.888089435586393 9.288579477752872
Na 7.234440164059001 12.5339884370175 6.840291014259537
Na 4.9283365737562495 10.509211411911691 1.7147771049631937
Na 7.983488637711298 11.659226408728331 3.188745930518735
Na 4.2683908816151215 10.892596984123271 7.474102900714744
Na 10.436299783661937 12.300265953853302 5.654676781019289
Na 6.491906149925597 11.331248432738432 10.115743332104909
Na 12.498263942925917 11.926110640072471 11.18063242470131
Na 2.5865486744796473 9.856914913685918 4.465259346087949
Na 9.809743202438677 8.969682428350207 4.467421744005837
Na 3.524280065761937 9.558059858771394 10.56728316332328
Na 6.219229794005994 9.215101918830337 5.0462814499613815
Na 9.33356133726879 9.649498921969323 7.970464815533433
Na 9.37663365754122 10.206725157582664 11.619790941466574
Na 12.7669171044662 11.21879257547611 7.7905395619968125
Na 1.4230152439711203 8.822513885691086 7.779410474637755
Na 12.45900628566012 8.032403701216458 6.416980489177577
Na 4.1345586373147265 7.2416083114684335 2.618739916478268
Na 7.550000020945323 8.109176897580399 1.9525851428058336
Na 6.390037035387947 8.477891181314067 12.428071692479206
Na 12.188373665846482 8.611159443037282 9.938077839464745
Na 12.226529118935472 9.35094830788192 13.42941377809149
Na 3.795546645438701 6.847061741060244 6.071568151146189
Na 6.106223655371846 8.016286059125067 8.513733792972289
Na 8.956789605101445 6.429295912418726 6.832407929492163
Na 6.386901235334942 5.361645661812965 4.3320899545263085
Na 3.286578736176468 6.834730665421558 12.745467068646741
Na 9.025908951183775 6.99767186824971 10.40541827748902
Na 9.295907576187354 7.549680750326715 14.118801938759702
Na 9.635025746976117 5.576204414207944 3.2731617455179487
Na 12.00804187138967 4.713237530891433 5.465104729388876
Na 11.831020825456852 5.444535740943579 8.80789008594711
Na 3.1239624151962553 6.087106800087245 9.349213838976382
Na 12.025388186298134 5.994813927724917 12.274788089420236
Na 5.712771429462259 4.431006661670206 7.690359643602828
Na 6.015656968611833 5.145747936014229 11.265422164108154
Na 8.518289227301318 3.102499751507688 5.8373798238956685
Na 8.655061657083765 3.7411707419748756 9.339944532502924
Na 8.928929369119288 4.2079088158429006 12.936540735970071
Na 11.391318690011598 2.1027918724846 7.691522125901607
Na 11.491390552506878 2.6964052705883588 11.062826035921743
