44
Energy = -45.82807717 eV
Na 4.084272245286702 7.8684242745751725 11.003411786551355
Na 3.2087308399775623 5.123784320270203 8.733626650031109
Na 1.2028736832390103 7.88443624143971 8.92482976124862
Na 2.699756617325817 7.603084324624311 5.899319409739255
Na 3.0118306098150387 4.163895814895996 5.2350149015116685
Na 5.114109143050533 10.515767100103904 12.943020581142179
Na 6.12413728967544 4.946393070383858 10.642668832949695
Na 6.012506843939591 3.9492320266427683 7.175735260586223
Na 7.2517174552212325 7.670823578136187 12.564298821060122
Na 3.6353875858493647 10.355128333369802 8.214118754350276
Na 5.749389000498314 7.45309862544453 7.863071604759439
Na 8.991566695950285 3.830767902025711 8.882093661686298
Na 7.0131191997319595 9.978207298563017 9.903915816211939
Na 5.237629529558738 9.957826115185505 5.017190463187792
Na 5.604191955404816 6.437511365525482 4.446221936301717
Na 9.372878453935455 4.892332544356519 12.19203727474089
Na 5.85568444271777 2.891254918095626 3.680693614301552
Na 4.783348205977162 12.878282486590868 10.322820079901597
Na 8.245100584064811 10.356846749374979 14.508439728309725
Na 12.147107282405427 3.5704382675357706 10.429195062506924
Na 9.210511265957967 7.31628887671553 9.639616763955857
Na 6.40058762989033 12.360903357180593 7.222070513512022
Na 10.428868643324975 7.706035122468026 14.086016891489317
Na 8.12447058388163 12.680071305891067 11.962389446651787
Na 8.724667574545467 6.244408878265056 6.310537794341292
Na 7.518712009791489 14.90574056904665 9.35658620148233
Na 12.597802700482845 6.918070732471038 11.210995238194524
Na 8.0192807452547 11.997959505758555 4.110107986401591
Na 8.161008815500425 8.549544218016223 3.532602181202248
Na 8.41603748881021 5.061990203157254 2.791098299186177
Na 8.619450375891972 9.668338799131163 6.8348678096519855
Na 8.79537141594655 2.636072242789746 5.530908787203099
Na 13.526408642131313 9.274506348853516 13.44237647237523
Na 10.618970024995212 10.20150326045833 11.700910735729558
Na 12.003324428853354 6.014636196299691 7.879393193735039
Na 12.129896642616625 9.46310127547923 8.592310510131309
Na 9.837916497497122 12.153423353036416 8.991804746380495
Na 11.514450112169422 8.33232053989159 5.291847055902677
Na 9.210814128229668 14.441339145386511 6.3491657316931
Na 11.048362579269597 7.172584688838652 1.9083741111384755
Na 10.916148681315837 10.598419895541287 2.622039182570697
Na 11.54733533096552 4.9039113109703605 4.591872130773822
Na 11.846715427836775 2.4901836153830366 7.1780458588576925
Na 11.414005239611342 11.75439105642002 5.909110504840873
