46
Energy = -49.01879095 eV
Na 11.399079406894234 6.633439251856119 3.0098561365212344
Na 11.245343373767831 10.208387009738207 2.6268062192029085
Na 9.034359559290639 8.16521240051049 0.6847228604836958
Na 8.980101342241188 4.473840878855852 1.6087007219718485
Na 12.598748917922968 8.782203241318483 5.778222944913194
Na 10.260052407763109 11.833024080799404 5.771412430898997
Na 7.5609566116980576 10.860155858590048 3.0763596924321357
Na 12.62980069646314 5.018679043778047 6.354371341399953
Na 9.166230993952224 8.542743425657909 5.103903500844782
Na 4.606305413489685 9.118591538200398 1.9454784818293362
Na 11.91398643426329 4.513761791204938 10.035635496955805
Na 7.01987300073635 6.900524868905646 3.1462683492636234
Na 3.8936440561373646 12.010000982884714 3.987843458386737
Na 6.602995282030301 12.519782217739907 6.354602797655077
Na 11.38695255207996 10.355239236271553 8.996440831135754
Na 9.122831824030978 13.231092233589527 8.94845786205774
Na 9.220013718929808 4.927877428099352 5.379791641413031
Na 10.270262518350115 7.108620944030103 8.07967620416711
Na 7.9803666954168 9.827226239207967 8.139870353032736
Na 10.519626820549659 2.2563994901181643 7.569940706509548
Na 13.706943741384281 7.45892779769737 9.020972074583666
Na 5.379662063860616 9.255051259978181 5.5424304918769245
Na 8.767914241566105 10.654626501626126 11.669133629980195
Na 5.762135983446244 12.055087908253457 9.907556947888823
Na 4.855565075486542 8.730166367615425 9.139635263633263
Na 6.438270320544357 6.315630646267897 6.875865163727643
Na 10.99079240573844 7.68490965235225 11.658824182902569
Na 3.727286953028223 6.263264324260521 4.181443804755498
Na 9.262082653840539 1.7423038645114166 4.22976172193579
Na 1.799439158560887 9.103225756984514 4.695180959433378
Na 3.0006533307621868 11.137040087279996 7.4728370096336265
Na 7.53909617144256 7.3998267185082 10.734550799176569
Na 8.46015243678964 4.524871223848204 9.251501209223221
Na 6.084911538047539 3.5826888738287663 3.8610025915906268
Na 5.351734249879227 9.699521905470368 12.618642260249526
Na 9.25833417606108 4.698085997769996 12.67612719677211
Na 4.7860450525562115 4.935061700665914 9.608365319837548
Na 2.3669952786794455 7.067992460942441 7.690934713662769
Na 8.01356346868015 7.842732283312387 14.24875130864385
Na 3.3513958240902353 3.7263579104786544 6.498271463427942
Na 2.897057463366743 7.267780695125095 11.659300011394844
Na 0.43176546767034063 5.625687913434149 5.135630113659665
Na 6.807984454093047 2.4168399069180655 7.158506368996468
Na 6.761402710325092 2.22124615716093 11.041800107550912
Na 5.713452419205084 5.215417454089804 13.024056450700975
Na 4.430783919024847 7.562965264426308 15.187251099417933
