41
Energy = -42.95168178 eV
Na 4.082127102853647 3.713776290603042 8.09601957567835
Na 6.697984739233701 3.3487460992735825 10.196212701050499
Na 7.005490500864708 3.2398259734842463 6.202845555832082
Na 2.9017862198946376 6.812824874477894 7.607467204974831
Na 5.196643277624715 5.934078208928471 5.180921387920387
Na 9.76075887512955 3.712743969759486 11.887982726951531
Na 4.033137970285618 6.7146351262771535 10.99728241275396
Na 9.648545208846157 3.806631503105061 8.241199329433677
Na 10.314564748690632 3.3793757203554953 4.750624842410909
Na 7.329772340697545 6.465992258895516 12.056801211088771
Na 7.747552239093837 5.016602083458323 2.9711925116464473
Na 5.173613585681903 7.502126267733756 1.9175963062568415
Na 2.915296822513712 8.435467269162855 4.365026805751924
Na 6.541043611025124 6.383403866019288 8.57090088319383
Na 0.608487532419943 9.370076249257588 6.895108837828104
Na 10.119325187064746 6.736271372151301 13.97907482727346
Na 10.584520692551354 6.692806894647505 10.24180317757192
Na 2.9720678133430516 9.954904061125909 9.467491731575628
Na 12.751418146810659 3.6041898617229706 9.667884884466842
Na 8.704959148567431 6.485902201791261 6.087638435163459
Na 12.979281318644851 5.307578789787937 12.736592448700208
Na 5.615496384904471 9.130687799047575 6.7270549714481165
Na 6.117865930758538 9.58273977888783 10.729320436372932
Na 3.089937129873407 11.619526525384696 6.183444276840405
Na 11.08381176039961 6.628411207858927 3.4187796737844884
Na 14.233041476816444 6.749167161833544 9.685380213653778
Na 12.095322479732296 6.18708481006515 6.892438057796827
Na 8.193780015731825 8.605757626595429 3.397201801755929
Na 8.759303608805654 9.283820738174308 8.475305012763428
Na 9.261747017185389 9.51317487478666 12.16355587002333
Na 5.455353750438714 10.74346347671394 3.457414098470821
Na 5.582095196607855 12.206166801940498 8.52768770249184
Na 12.73770554854542 8.796964598866403 12.246023253736832
Na 12.38148760239761 9.403544741069695 8.67354882010192
Na 10.880736890270123 9.374316908624863 5.580364451984093
Na 8.098692993375318 11.436942421773047 5.623779998962809
Na 8.368828327661795 12.3681237714763 10.47906551425471
Na 5.566259801359357 13.821847908745378 5.266447060025335
Na 11.69221974287307 11.965614686939825 11.123183916118235
Na 10.71777489009296 12.256830952757994 7.745860344167403
Na 8.09767418534906 14.484007810828311 7.555871266352268
