46
Energy = -49.73774208 eV
Na 4.354917180049481 5.232514197297869 0.9691281197706655
Na 7.208259297242796 7.34371908595102 1.9468043899378493
Na 7.678095381256443 3.6431789383076993 1.554452082828641
Na 3.8519263240467194 8.837850380378839 1.9886099395591652
Na 10.44769571919668 6.130543376056613 2.357149684430386
Na 1.2188956243125153 3.3256853024709923 1.935740507874233
Na 0.9532648105827876 6.84252253899834 1.3352133805361162
Na 4.399760884995514 2.1383828212669838 3.0584746726565992
Na 6.380848220727816 4.616690486396876 4.4949091913499455
Na 5.344071218049258 7.926698247063629 4.988577616397939
Na 10.109352828362395 9.551588163728232 3.490267867134084
Na 8.704888064179325 7.031599167555153 5.469809903141168
Na 2.9296686907992147 5.593374822756915 4.079290368468398
Na 9.989788204498044 3.68930625852812 4.993484745921558
Na 4.181743523147254 11.234796391324448 5.14708421671639
Na 7.6079886518159565 1.083532490383769 4.363205140352563
Na 1.342309615150514 8.573112985299353 4.633986429274637
Na 1.7967251391700205 2.8609808068090694 5.755212320771536
Na 11.076493781674916 9.884137253252351 7.089216098780112
Na 9.029888335789323 12.801386016786411 4.904400355264562
Na 6.841505159786718 10.818918538064441 2.774460156808144
Na 13.73819723554889 5.381065153842753 4.249059534519944
Na 12.155166580784176 6.712578358930671 5.467976853643006
Na 7.546316440771171 10.187579021477884 6.322935372972857
Na 5.185448539897553 1.9072572700523525 6.7231880228105725
Na 10.179239392792788 6.970853418550347 8.720463441297582
Na 0.952890219159601 5.974484183731572 7.425245684219813
Na 9.16360387175782 1.2586844882585577 7.7494305117166
Na 11.83996688199551 4.024444774781568 8.126076285080888
Na 13.738197235548888 7.300713548463823 8.574391824360609
Na 3.3009256106582847 8.702495035896225 7.682272127115001
Na 7.8034369551334 4.413612718739282 7.797333707005225
Na 2.8108329940125363 3.199484938285398 9.541008735842967
Na 11.858155420075056 9.301924026759943 10.852479404364269
Na 6.673347163964666 7.674161294571454 8.538921040385135
Na 4.408431727828151 5.308585962278129 7.421306075051131
Na 5.253425036161225 11.317211164799067 8.817855279912619
Na 2.123469169103617 10.309414751731218 10.503526179556014
Na 12.23325689099413 5.766100330700211 11.450103892463156
Na 9.359754680701755 3.7672861242554183 10.832399381614552
Na 6.352282116475892 1.9519895286605902 10.072445418246064
Na 2.67011695314807 6.696482868559551 10.578509826603488
Na 5.343774214649286 8.935229079492844 11.513213872703654
Na 8.800133734928213 7.270794145315112 11.860828663906965
Na 8.607251847392506 10.295079830302472 9.830038163375749
Na 5.847861915544685 5.233914057748024 11.04145785811999
