40
Energy = -43.25039547 eV
Na 7.599105070816426 6.62979916020142 0.04493767165858073
Na 4.3385376564459035 7.524674722537453 1.801309342344668
Na 7.259871024549987 10.167607750119208 1.4985566363264817
Na 5.857214079745711 4.227664289443351 2.46325729370172
Na 2.1781919982297526 4.710276657393071 3.7773521363555194
Na 3.709964485076373 1.2810372225061766 3.5859691940620007
Na 10.830579502132741 6.896170146223035 5.3413761636117325
Na 1.886870742550496 8.491112480665167 5.169429866821558
Na 7.645597085359135 7.314102911755789 3.343402446795581
Na 9.670677604643313 4.506296386884276 2.643067202048314
Na 10.536671213909223 8.159840868349786 1.8076113335582826
Na 5.221306788673113 9.76626655473745 4.5284419195117485
Na 6.360633245037924 12.779667600862059 4.4013569903074785
Na 4.7476579538698065 6.474445029459561 5.106039079737094
Na 7.459302505106654 1.4732057244402221 4.577063317968491
Na 1.508115063121971 2.062809295593697 6.52864726688972
Na 9.179352481206728 10.263235813341764 4.741082362612865
Na 4.665470781190171 3.3002180396855234 6.018993690577818
Na 7.8212696179161965 4.70559634991725 5.559512015435091
Na 10.8260725705374 3.274093873832159 6.492610200889569
Na 3.333556583489922 11.731214874993325 6.981751543793569
Na 7.531898351136106 7.994321082107864 6.750557047731197
Na 6.9477896140661715 11.17718895603647 7.75657425458972
Na 4.695312927148692 0.14497178240377245 6.95043312485283
Na 10.338611555757067 9.096581667735819 8.324773194173993
Na 12.567579422321549 5.9823292577578595 8.569314689066033
Na 10.733948325355817 3.3119382935996757 10.428057555363994
Na 4.289859222554037 8.53775495336988 7.866484747972588
Na 3.8609472755439387 2.798699250945477 9.513615516649587
Na 9.200882670600066 5.637288063807549 8.578467500055883
Na 2.028835689543023 5.624209835736977 7.5564572393641365
Na 5.7073102159542035 5.403717354942675 8.389668165729837
Na 7.607879368507356 2.303474481155164 8.333139895431211
Na 1.2061257409946005 9.189621351169066 8.957714834080308
Na 6.8851019993166815 7.858692499183218 10.406302072095274
Na 8.422572350162872 10.636173339306882 11.062115494622965
Na 4.445888994050361 10.607915611327025 10.574478962853208
Na 10.268484534838352 7.0083185252256905 11.490105378886238
Na 3.4934412379367186 6.657943715124147 10.807931999567801
Na 7.217293960482411 4.375305736001835 11.357822161785206
