47
Energy = -50.69749707 eV
Na 3.0915315092182136 4.77332957838936 12.100515324729642
Na 2.656803398380554 8.407643190389946 11.801384304961845
Na 5.777465717127678 6.752570393376693 11.337809789210455
Na 2.811678156006199 10.419710581368784 8.716673848141255
Na 8.323654956125626 8.596227775002907 10.027962926689192
Na 2.98155331283689 6.417934214511043 8.859590589328024
Na 5.524626118018415 10.439447985163314 11.241428695269562
Na 1.9057086679872857 12.129515134567983 5.5557334033711205
Na 5.647071502015795 3.6683907205719963 9.582651789893053
Na 9.155320797908324 5.513543949797316 11.629836633375096
Na 8.195411108543682 8.512715851966588 13.582215870878372
Na 2.849763149175177 8.4787461516585 5.557339558601471
Na 4.305273806952394 13.700835667294301 7.782655572943138
Na 5.591948756742082 8.432044517503153 7.975510447996004
Na 7.452811410644878 11.753723990803755 8.517560548282013
Na 7.885920850252636 5.707716681266152 8.121993896713253
Na 11.553882752561726 6.456648529274353 14.358745798629066
Na 5.119861057772351 5.463232567415042 6.0471735750637325
Na 5.32343190753325 11.13862819697089 5.840055313271002
Na 7.569943209431958 14.289733737755252 6.100724170027584
Na 11.242097733996177 10.317922945173635 14.684405314400781
Na 3.794289605150164 10.843377336135514 2.7466034977171216
Na 11.268974648949612 8.548349236592003 11.685112609935233
Na 4.624754752446893 14.053306261490697 4.028133423291962
Na 7.502844319225256 11.74648238928927 3.277357693329274
Na 7.5501878293235105 2.666542542245078 6.411079432167726
Na 8.729420558046304 8.883042606736161 6.362342810405873
Na 10.22111394232631 13.96296819544641 8.909452069226836
Na 9.122331824648684 11.680191697949953 11.828067680663652
Na 6.2300606568735715 8.278151039467211 3.954020255126289
Na 14.298671450843642 8.831828868144884 13.2435910653371
Na 11.62861224785266 3.184614153954099 12.49768130407237
Na 9.478826403805911 2.7849759676552654 9.4746593184751
Na 10.823625416640377 10.464235310109009 8.788159491817076
Na 10.344508614211161 12.055127497264943 5.6057036155772675
Na 8.679366921776989 5.6756924557933734 4.595811977715921
Na 10.049883822493626 9.026248354889635 3.1860923055349164
Na 11.139080969165052 6.629742506755532 8.449518325278186
Na 12.725518837245007 11.862018042316983 11.487628502635097
Na 14.011725903051689 8.987810289060247 9.443207895191053
Na 13.418141506843282 12.339898255314086 7.893964827441678
Na 12.585213404968108 9.071212447059176 6.052974882161221
Na 12.129109218782336 6.158206021854049 4.22749997636661
Na 13.601767659877705 5.8366259897325765 11.19465990922027
Na 13.054887060154849 2.9846690024767737 9.211133504386375
Na 11.111565968581829 3.4491363052734796 6.200687177965432
Na 14.171334031583466 5.822883212176828 7.323054844304871
