48
Energy = -51.55778717 eV
Na 5.938944492733522 6.187774717534153 14.57545849447667
Na 12.044791778294465 10.26789476660748 2.3605767774206576
Na 9.005222094849906 4.563309321079591 1.9552456473375428
Na 5.215279885601234 3.246823018408858 1.8297368972232952
Na 8.94906803157648 8.383130100775421 1.9209465144427815
Na 12.103567005866033 6.924039352866668 3.378754935034854
Na 2.7656011778123686 6.172216327079899 2.033501400483832
Na 1.4417999779094144 2.772341739563648 3.328046869642823
Na 5.171547143284443 9.526090446281156 1.978121028872399
Na 7.828149690195732 0.826031350562221 2.865522613985557
Na 13.639710815872803 3.0030118763806657 5.6909264614480914
Na 6.137404696763523 6.402238680634272 3.143568686042788
Na 10.904722939569991 3.3423743398952004 5.749558673889404
Na 8.22730113023515 11.862096823709548 3.247299326071919
Na 10.34117653590224 9.890040810505049 5.346951931578868
Na 4.621404838960295 1.099991122785696 4.926310009847601
Na 4.706460445017127 11.788082529562526 5.3566721748992725
Na 9.194628030860205 6.463915799151226 4.973495497548756
Na 3.3910023462926504 8.259331131648478 5.057645422193628
Na 13.639710815872803 9.620213539002233 5.6815676744369785
Na 0.6760333039817241 6.0309695072333005 5.395463815691958
Na 7.293493448101863 3.52851106938895 4.940507852574277
Na 6.94708458008507 9.253034305731681 4.972774317416892
Na 3.80508830174397 4.549740993574162 5.017432363196093
Na 2.02478386925739 2.7577125090759105 7.284627755849159
Na 14.368407936152758 5.029332871965872 8.717754398069824
Na 11.893446633382295 4.296635947657154 9.700635640694909
Na 7.917675931705974 0.6185960960809406 6.457190993497021
Na 6.077316358386049 6.341306578114636 6.652511984136324
Na 11.804372560530037 6.936136965296339 7.290268950104234
Na 7.804775207002305 11.784273126393067 7.4758760712689885
Na 8.60876695189396 8.373691497642787 7.959749861137517
Na 5.034594522502195 9.391508502675823 8.038011977558176
Na 1.4319962785883351 9.135075547566295 8.291520273955994
Na 3.0101184847685607 6.1267085739430955 8.350377006051538
Na 8.845409753995558 4.746868567079582 8.138814217108616
Na 11.335787731264153 10.207142093154502 8.933288982337048
Na 5.620041749804682 3.1315391497270806 8.328009690867644
Na 9.843678954104245 1.5841029960184385 9.147358287095765
Na 4.715312181684125 12.241751783399193 9.791182223982178
Na 6.317519561307955 6.6074957665461955 10.01200246161737
Na 0.9781122260588863 6.835655283379763 11.28105227613164
Na 7.494546192616458 10.065367430097316 10.85257168993728
Na 9.864854636802729 7.209399716164014 10.949803985161806
Na 3.9397075949778393 8.87197368900349 11.304005624293028
Na 3.8449383941803217 4.625631419684282 11.387399878870346
Na 7.882394719994384 3.8978335896853724 11.482386144866908
Na 6.900243830840969 7.272422463247344 13.24719504102182
