48
Energy = -51.61104578 eV
Na 6.524310718736366 7.192307875202595 14.949469898808655
Na 4.953203632554164 4.1373298454603225 0.37627437413210735
Na 3.1072317131495746 7.286005048856114 1.1308538532806918
Na 5.487047767018872 9.935166493124349 2.1081157280528666
Na 8.939170366944726 8.10673514022425 2.349433441018224
Na 8.570846111431885 4.578568795890456 1.4853436504176991
Na 9.412969290373661 11.563599210532912 3.6337422618945032
Na 7.060715263377764 14.671511683905653 4.237692046500473
Na 5.9359017354250225 6.451499758303399 3.010541141056039
Na 11.697573469755753 5.01760910706572 3.69634851866988
Na 6.295190925845637 13.096585462571088 3.9543111404980866
Na 3.706635179795088 0.45046542923705724 4.228596927749361
Na 2.8650832551395746 4.476374128106651 3.4202213626901306
Na 3.6374500887345933 11.390120850049097 5.408239665640765
Na 8.98731499479565 14.530746675248281 5.8148100470599475
Na 6.110802555299267 2.9504516134181986 3.582165932314981
Na 9.177707442019496 14.530746675248281 6.898911161062835
Na 10.86728886268049 8.646243988637313 5.314429297734428
Na 8.839509867392513 5.341671108705306 5.202694370150282
Na 7.0006840916397035 9.409187981911403 5.0734745996057065
Na 3.3280243639853047 7.84013692279364 4.8365723500922915
Na 9.670400917790452 1.8931145349726017 3.9474916778158997
Na 5.505570216657721 14.970812867363707 7.495563889959756
Na 9.335056453336469 11.39349134727255 7.27570938185901
Na 3.537865192450186 3.002565497904366 6.571095109830667
Na 0.653777247058657 5.685787055419161 6.409041647321719
Na 5.805528923012743 5.739430133048017 6.5251683930895155
Na 7.376175425899938 2.312080704198176 6.662527998019487
Na 10.971649373557723 2.465150845153578 7.257187457369382
Na 11.614521738402935 5.965339298873367 7.694136205798223
Na 6.254995070705532 12.91370300949413 7.480939407455914
Na 8.520670652589693 7.946864769115039 7.831097902909903
Na 4.97727409429163 9.197796092119656 7.7870084368058325
Na 1.4533103853712213 9.13150024508204 7.692107501569655
Na 3.1636880559748826 6.048891332363696 8.591105668383381
Na 8.721768600108797 4.502293992621072 9.076760532657831
Na 11.588334270614494 9.292621167259929 9.048590300845133
Na 5.3557743233853525 3.1788170954743316 9.571755661008496
Na 3.4032196606210325 12.050640105411446 9.140629596734888
Na 8.202698448380914 1.0318378974851254 9.87561485664826
Na 6.158380686895435 6.757768830779889 10.110789201774999
Na 0.29578688965609157 6.713441693721244 10.164656972400167
Na 7.121114654501144 10.345350675936675 10.256577053566726
Na 3.350338063456033 8.87659537600538 10.997135904762612
Na 9.422996829997043 7.393929148379624 11.220121311912754
Na 3.6303528256042985 5.450114986704668 12.175727245089572
Na 7.240191515263335 4.323614984948888 12.36974462659978
Na 6.220108303228958 7.737972802001517 13.405144727185942
