48
Energy = -51.96329764 eV
Na 3.2122062182561812 6.137859461618052 1.3347349531788042
Na 5.814520702362553 9.535674247204025 2.0333171449943803
Na 2.080860532579374 9.668266545321199 1.9905645302540507
Na 1.304438655473885 2.867167250186241 2.2670874842908115
Na 9.49564657171298 7.6931294569296345 2.991765481220162
Na 4.9539230538002945 2.767117517316152 1.9692287532866954
Na 7.255114134756488 12.552091844932152 4.376493156455797
Na 6.311545770432691 6.121799429325327 3.16707021707432
Na 11.702324919591025 4.687161273280124 3.5985882354151006
Na 0.312038709238121 6.1778800287938465 3.6132599700913763
Na 8.561571159758538 3.526921459840083 2.425326262165206
Na 3.8975049136057662 11.4214179958485 4.673539765766604
Na 12.924704944942528 7.915320745741548 4.742821406802189
Na 3.5932453166974425 7.987132887481349 4.441966395727152
Na 3.2618964823870322 4.521572139633347 4.473371001567307
Na 7.021765710726815 9.236324295573606 5.324293627594415
Na 10.488870248654157 10.993161457056418 4.206895372766236
Na 7.09244175019609 0.3128747809735483 3.7269222478245703
Na 3.4248917088535866 0.9683358589373494 4.76454624728755
Na 0.827971168275836 9.6595246373821 5.518802718092568
Na 0.531893921437575 2.842393871590554 5.89176395108445
Na 6.44983724026249 3.206906048753035 5.364881447799962
Na 9.898616687763758 2.0846111366707807 5.416722364040996
Na 8.821846378134756 5.654355422465627 5.87101125647276
Na 12.806164206654614 11.08760484711535 6.980322090094805
Na 5.428909403745628 6.343576629195243 6.835337354988415
Na 10.33640352641486 8.576861462937744 6.820181267688172
Na 1.4990867735980247 6.305530993220394 7.033848414410598
Na 13.30941703436607 7.880289220621019 8.418087698011592
Na 3.763014799930285 3.4361170404950743 7.816782345526764
Na 6.07107522775183 0.5597007841537336 7.611840105353874
Na 11.907944505611129 4.73524122498643 7.0846214128405105
Na 9.271935607367354 11.965984221263282 7.477565312711411
Na 8.512781599256225 3.189709639654459 8.558574186003245
Na 3.5887323146791443 9.118635330121666 7.926523478231759
Na 2.503742753248687 0.3238746362278335 8.214359421143998
Na 5.737026291320525 11.912814454160719 7.836558368870541
Na 7.4299929449225335 8.905915402921526 8.776952102348483
Na 6.537608931783353 5.769491363583588 9.927066313031338
Na 10.09825829699068 6.322522057680845 9.647522514523539
Na 10.811023107244782 9.991917544616829 10.162969300429832
Na 3.118601473353198 6.034878409499652 10.287413967551656
Na 5.386628949048849 2.5736669016557525 10.762344729965509
Na 7.682526232279206 11.639671922895861 10.83229094335063
Na 8.476887754376648 4.083458709755495 12.113426986932808
Na 4.925034056966704 9.018097237480447 11.33231197903708
Na 8.27936531137414 8.010969498857733 12.230243060386723
Na 5.313768092161926 5.710076768392019 13.163488749660175
