45
Energy = -48.1611847 eV
Na 10.788287417070398 3.251027525722508 9.791216959670429
Na 13.946840809660252 6.718730687266845 5.533234629179759
Na 14.181838579500656 5.066645677423178 2.183041776513142
Na 9.032699555349497 8.940298351560191 8.467368845573358
Na 6.0898576587720274 6.76487308962708 9.672455793022749
Na 6.6050254875967775 10.766446187054946 4.227821848059934
Na 12.410987169894971 5.633951918117776 12.14525523430742
Na 8.683599755609261 1.9769398960972078 2.889726343028386
Na 4.70479372841054 1.0870806736295298 8.20778035031955
Na 3.0315816380457656 8.344212324500246 10.416156288993182
Na 2.3780699394961053 6.328941337969672 1.5233625347578508
Na 4.200075148621775 5.389042048140628 4.280732225423434
Na 4.078443573325942 12.015153523879079 9.784375975503366
Na 10.67850482239229 7.329511772451542 5.737274901146285
Na 7.398390793258896 12.226354416656646 7.920487841802141
Na 3.271296178809511 4.399715890222767 9.909134117156222
Na 13.946840809660252 4.024350519365606 5.5526524283784395
Na 2.1979497057517405 3.292274989165351 6.646162486488792
Na 5.229124054437165 1.8179517177251387 4.611911850578332
Na 5.253952758830078 9.650696033246959 7.765032037522544
Na 8.361078085944783 1.9084798629083495 6.876484975501084
Na 3.527646210100356 9.065151537849808 4.321079962270813
Na 1.5983552917392072 9.809736521330287 7.394542224423468
Na 3.3702407075837395 6.830431974748673 7.256291396899029
Na 11.353090407542966 9.227189303481177 11.037966949073217
Na 11.372161056187396 3.728667998263872 6.098792427421559
Na 5.44303319007027 3.675025871897874 1.5700403784309092
Na 8.028440202019814 4.802987091988046 4.328894511740011
Na 12.668472588759347 9.726718513326519 7.662860193337397
Na 9.111423737556677 6.454136478764654 11.349461795520067
Na 12.256309525396512 6.454443280049438 8.799797353307843
Na 6.89269433343611 9.896213225497467 11.036055546163878
Na 8.59474142057628 5.112249816771728 0.7949687750685893
Na 4.021922716671956 12.436518625973275 6.139216821237855
Na 0.17739778300851008 6.242222932866988 8.339841391826445
Na 7.128870031356805 3.321440411409681 10.19409596872374
Na 5.673513827585869 4.226556340573013 7.137159399050212
Na 11.464035699311369 5.265837985669511 2.9340591004891072
Na 1.8523499103692704 3.0409221779139224 3.162030077272573
Na 0.7429233135974251 6.835592744800571 4.816199502728684
Na 6.945419936755446 7.634433250619422 5.777347752945815
Na 9.26045198461809 8.25357447873837 2.772570267418367
Na 8.862560885743456 5.37053345347758 7.892573731836734
Na 9.864056090436124 10.741624503164878 5.563873093811654
Na 5.943740425772337 7.466610741937992 2.0301096399206253
