40
Energy = -42.8635568 eV
Na 7.4519215349134225 11.264062374638712 0.17918373429298642
Na 7.821259436635324 5.30243529893069 1.8406360206896044
Na 5.415603010607212 2.5150170190250147 1.905543180819688
Na 5.91752230114989 8.475329410674332 1.9301155662614793
Na 4.368644265426438 11.681719922898218 1.754892547060455
Na 9.589158998639368 8.561191160654417 2.266201513641561
Na 3.491917301621891 2.643971104873201 5.255526714641094
Na 7.234600511317895 11.126219515272739 3.7278699121015975
Na 10.420555052599621 4.475727029229079 4.318199548699688
Na 4.821435338285462 8.761133602455908 5.726591064934209
Na 6.262723717889415 0.192455789009694 4.724879875051887
Na 6.961683649842029 3.6012303874963116 4.733418619370118
Na 4.3354899802457485 5.734804492702963 3.291439008618243
Na 1.785165293636315 6.266609380825755 5.963827155149658
Na 7.935678273080221 7.389052913567365 4.993752180375659
Na 8.892811739240726 1.6814391557052035 2.6333448518194777
Na 2.4523468247704723 9.1120585712629 3.3974659671707372
Na 4.064006040957364 12.036199879106752 5.455385230767526
Na 11.961261910879923 7.406871856661986 4.987174631937293
Na 10.504072753376109 10.653501153506307 5.185940205118257
Na 1.544066471894867 9.813527566417454 6.949140684860944
Na 7.530449765222881 11.010490323623607 7.110348733308101
Na 9.347883990707844 1.7482453427284008 6.546243752732895
Na 4.9626205835351405 5.415087211892034 6.798159982633323
Na 5.932962128230806 2.001552074096073 7.924615882432289
Na 8.35381378422635 4.992461699170416 7.570806669396361
Na 10.149322657014169 8.29231675003233 7.962283537559941
Na 2.6443166126699555 3.5914738809731195 8.864985068035745
Na 6.64974555295375 7.89364063830515 8.562282892208069
Na 11.580576987133986 4.71411052726 7.92196037135096
Na 4.502081311495033 10.562762822195092 9.065925253392969
Na 3.043955542450048 7.256651241455283 9.295777697641489
Na 5.756943102350186 4.896249872971948 10.114402796202512
Na 8.18685824555363 10.132216442710845 10.55764459611878
Na 8.635783110107441 2.842870004336486 10.281181084926121
Na 9.010707022663208 6.450505265893265 10.916289356477717
Na 5.125000107869079 1.9511607064737004 11.677858757780418
Na 5.536470910584979 7.9093189946814775 11.946337312018228
Na 3.154687700786688 5.06942568609531 12.336918867266068
Na 6.7136973453066355 4.624703798061607 13.375250043006634
