48
Energy = -50.75051075 eV
Na 13.193610934722717 5.2931684472279885 7.997365732889301
Na 13.896029373411444 8.360164404619038 6.217424816925689
Na 13.187953976002033 8.498739302030613 9.727564726043914
Na 11.201585821428331 3.344827688847888 5.922129703883212
Na 10.308324788068475 3.079084204992651 9.248480935313284
Na 11.4995241115741 5.735209857927404 11.188281412414563
Na 13.714562148698409 11.415585104761814 7.821757362561706
Na 8.7797562431823 3.692949299277994 12.408517212599605
Na 12.038897553420204 6.26810698190712 4.2186824145008
Na 9.848224229516038 6.17305442933358 7.452785538241166
Na 10.796881872555003 9.684985287035465 7.232839665218542
Na 7.123475701543734 1.7906516364272673 9.873096039018412
Na 7.742511415195464 2.9707416794167316 6.683157835990449
Na 11.360567632514009 11.50924035353484 10.532883168143155
Na 9.874567567952774 7.532494989340057 1.634911486786608
Na 8.996297665817073 8.208718420266285 4.810136762288054
Na 8.852915055209833 4.711666696084563 3.652638273232052
Na 11.872558375636007 10.026970375637735 3.6746890261295024
Na 6.978506594864664 5.31814021653924 9.891959332520594
Na 10.82676869661533 13.431101826372483 7.576007960081107
Na 6.017236154357562 1.6538370800473094 13.27910408356775
Na 9.150445571648843 8.33781879411392 9.99971601526359
Na 8.509164331718997 7.11347719071767 13.231559570842244
Na 11.376070053745869 8.869829093621705 12.778899188687456
Na 5.65688966511244 5.245623946927806 13.259127287873898
Na 8.661480000456564 13.761089234929194 10.585752751996035
Na 6.512576540367743 6.428218616231511 6.410809666873416
Na 9.15294137480727 12.025860428073187 4.856537841504951
Na 4.0894626754391785 3.163582635385566 10.872516707228309
Na 8.431938602444875 10.772478983821092 12.57425079111929
Na 5.441457971965433 3.9361486310956577 4.216891535387916
Na 7.6576166494825655 10.335514543004237 2.2452925355507944
Na 7.972492819791605 11.201638305363435 8.47809331184433
Na 6.155337192766854 9.776598676724179 5.799270154830063
Na 5.37349662479002 8.876973336766305 12.584969891142311
Na 6.414818405202203 6.978241909709996 2.512762699799535
Na 5.720238150764101 8.675019311668171 9.008772963143157
Na 4.220355134226286 3.982241903774558 7.574806047372973
Na 7.432067210019654 14.358284896571622 7.128337145357336
Na 3.4649978843518254 6.517053453671185 10.850962450391966
Na 3.4382091164044257 6.766746425652553 4.439039187595802
Na 5.618417004471914 12.84815674443732 4.337573023932941
Na 5.541576842282325 12.086463311755253 11.093271326656463
Na 4.21569412097757 9.819705770519189 2.967042261087088
Na 4.43604011213623 12.483883192515016 7.877776985193995
Na 2.7144831098333353 9.96812216410926 10.063412792227666
Na 2.4923981979942598 7.193217638103949 7.680349141318044
Na 2.628089659492361 10.222418099471467 6.0846085629014
