44
Energy = -46.76442869 eV
Na 1.31283016782173 8.116464665003368 8.439757636304039
Na 2.5265679014194844 5.567228958222432 6.242688946348123
Na 3.455789985424454 11.171734352420728 8.223238912196294
Na 3.714930270459352 8.891403359893317 11.014455601599519
Na 5.71000847752877 12.156357998675587 10.905830124155296
Na 3.114249518202359 5.3433290656896535 9.883754913338116
Na 6.087757886192535 9.694345774515591 13.614419841199128
Na 5.802965453702009 6.275282300470875 12.36006830695086
Na 5.7140872138273755 2.9386518233646117 11.01101431128225
Na 9.129254215520964 7.741768750540515 13.112597283957255
Na 2.540671994087369 9.290382303116758 5.193553500296788
Na 8.901101828624574 4.383603105206457 11.709101588686437
Na 4.81871842067394 3.1736917102183773 7.453800283177829
Na 12.180329828970974 5.845675023927325 12.363027578107735
Na 4.828613925479677 8.060840034274406 7.553104692646019
Na 4.319551792077196 12.441397121297937 4.936810877823616
Na 7.005821593372057 11.70329279406562 7.374573427016167
Na 8.71755652435085 13.872045917375209 9.910930249911383
Na 7.205219549023978 9.090738770519991 10.218333833788849
Na 3.795004080478574 6.762620383240645 3.063537543177616
Na 9.058425176897567 11.329584390304696 12.350269135132683
Na 6.930824511954827 5.631211281449242 8.936138462550776
Na 12.06406888590179 9.415947746753726 11.756530699213048
Na 6.170016643955865 9.495939830189284 4.31767538048048
Na 6.3618780053353134 5.782980035655547 5.134927770903251
Na 8.436865155485782 2.4452698031626072 8.521976795003464
Na 10.112811002891226 13.91185432668627 6.722854333791055
Na 8.270062507055343 8.365881869880873 6.935961499037454
Na 10.17430971535313 7.136418143562157 9.657671889889357
Na 10.315060164814573 10.75005185697979 8.767187808679216
Na 7.624291304567484 13.341480976235795 4.048158173504713
Na 13.733605673309961 7.084478850065581 9.371475395759905
Na 6.8713085251626795 7.1863339765263365 1.4191115341713993
Na 7.425023489715439 2.280589162273753 5.160544650474051
Na 9.65239465439742 5.2000844647171 6.390687773929166
Na 9.836533127843483 10.875786345034781 5.014802942094328
Na 11.841368388664797 8.056477199530246 6.43095415218761
Na 8.301567348682578 10.627878991412587 1.7174228593704952
Na 11.661166670786114 3.9275558788551885 9.197040566520746
Na 8.765865188394386 4.308928234443932 2.702525312418602
Na 13.644519086857745 4.902564587497614 6.5047937529078546
Na 9.404088292577129 7.697920691729026 3.6228396649020085
Na 11.082626320542715 2.331736124238627 5.492961785721717
Na 12.040769679945585 5.3937928468841205 3.4836935210576896
