40
Energy = -42.94025093 eV
Na 3.650568037162946 10.878610449164354 10.973150550487846
Na 3.3562401455229387 3.3046211612914873 10.364011352609692
Na 10.24762734083851 7.304101281179473 11.00683314323769
Na 11.749693542268464 9.04233135767362 4.7213903512434
Na 3.1883287914218186 7.070656701323221 11.350452555236544
Na 6.277071583329659 7.40751335628174 3.3169419921185392
Na 8.032730268448885 10.562258519449879 4.3980409218034255
Na 10.418427424366524 3.5885302197546234 9.826971790840169
Na 9.768122096369705 0.5438224725096179 7.560124970429977
Na 4.9321220759010975 5.712938436080033 8.663420587357813
Na 9.311520796764936 7.989690011588974 1.7890476850904142
Na 5.9283324614346204 11.514613944968977 7.780428263029063
Na 0.48272659621928216 9.293826251320441 9.676380366524302
Na 4.549725055026447 4.08427055968025 2.8012058172603433
Na 1.9874711276802681 11.853430259705055 7.8644354659773406
Na 8.369739824931953 6.085709617883874 8.52394121901858
Na 0.9428622437385971 5.099826225547376 4.378878030461039
Na 6.864019251800642 2.655435733641453 8.592019318586578
Na 6.56793492581631 8.642261274203157 10.326556374257128
Na 6.086956055805561 10.009673613365564 1.2300644823534053
Na 9.19525507651489 7.021417381344693 5.149663103384881
Na 10.95007829980671 1.42480376166563 4.210484261317781
Na 6.479174401565102 4.840014746482657 5.668822690541773
Na 9.58973535528496 3.704023734967402 6.321290468326046
Na 7.052843519900417 1.5729176029673688 4.880378185632838
Na 3.6224817903074427 6.668391904100647 5.4397518701400545
Na 3.048190375022128 7.592478545641898 2.1174903756806254
Na 11.876909517154992 5.170406999986694 4.110245766777028
Na 3.5279205797762896 8.850659391889259 8.2416733385404
Na 6.090466462447259 6.309593418018704 0.17292322906326554
Na 9.604401502564059 9.453372549966543 7.879373092415456
Na 6.852445191555408 5.0615205991561085 11.523946808034298
Na 1.3800021567026115 5.724652684609383 8.233528311433332
Na 4.296290095198677 10.223418137804256 4.606315487337556
Na 11.829717271798453 6.463805846049921 7.6785929889070985
Na 12.783693020042849 2.720478814581638 6.872057093385491
Na 3.4860767087462903 3.1549324593324726 6.5199524742251365
Na 8.294300083423988 4.402583768526186 2.657618105260581
Na 6.470829432229295 8.342677979979289 6.66973358852607
Na 0.8968150053002057 8.693573716507812 5.9417090133376655
