41
Energy = -43.92767802 eV
Na 7.8567701761723105 6.003077265101982 1.5216487911381806
Na 5.1249164275358545 8.359775453098745 2.2114163935838316
Na 6.883975807561916 2.6160716675648046 2.5870562689592473
Na 8.628251704672303 9.66646076226633 1.7803747589613539
Na 2.186986546637163 6.588314496769022 3.6389591010833566
Na 10.37791955776676 3.3186108818654865 2.115200845715929
Na 4.329438200836415 4.795603204190252 1.0769004312258519
Na 2.552281812884525 10.407791605290795 3.9820783789805
Na 10.996165655903312 7.0640262735464106 3.1195392541643305
Na 7.784517724391448 7.872189542748698 4.737924500008533
Na 9.021108876000348 4.816644200584836 4.964742960997699
Na 6.375342134502933 11.188531001124637 4.295380094350982
Na 4.49132553992656 8.30982475039753 5.882933761565672
Na 5.590358890682102 1.6853803319805123 5.795525462981912
Na 9.23770608503501 1.5327074958588194 5.485217875450227
Na 2.81181513835847 3.0563175451672695 4.095365838999079
Na 9.902672467101887 10.410119654022218 5.524960013139874
Na 5.577876089107788 5.299608741586805 4.2716323361866255
Na 1.0741539227719645 7.9834243798110105 6.733384810454756
Na 12.34697697984334 3.9642866800591015 5.068419415348382
Na 11.555634613377759 7.1820147153043825 6.668236010491956
Na 3.517027213761465 5.21948618469303 6.90437760068277
Na 8.702812120237297 6.856467028745438 8.181361692155964
Na 0.28142848064608406 4.339118197276543 6.516385832728572
Na 7.881288733749192 12.873646299793945 7.7284390766516
Na 7.036864915620751 9.685703330047618 7.5387569899511835
Na 4.235249071115022 11.739416574437444 7.12593326747339
Na 10.364749657926428 3.712999382012292 8.208818195814853
Na 6.777670580646808 4.247143036406028 7.543278550352444
Na 9.98880162803652 9.968137945932765 9.29874195496856
Na 7.1158174232780285 1.3033450186073852 9.236112502622898
Na 3.074667463505088 9.234076071760372 9.412518744161469
Na 2.8737416710275925 2.140238836563785 8.112551222389065
Na 8.253214604662867 4.423524756990701 11.02928584184519
Na 5.5275502855796725 7.01534853544071 9.171216933193575
Na 1.8081374338547636 5.800291443352296 9.751754281179043
Na 11.291133869314397 6.49655670161187 10.478528975114951
Na 6.175852251115548 10.649570701819838 10.599381712918378
Na 4.806071903043511 3.905167201678042 10.585335507652477
Na 8.101182162990586 7.867401938799401 11.655406310847187
Na 4.460145373884462 7.381181360757098 12.34451869857459
