41
Energy = -42.47721285 eV
Na 11.354223113769779 2.9732988671364473 8.85292555223388
Na 13.701903952042988 5.525578523259097 8.350791865467574
Na 9.635496672456522 2.0776433875760683 5.952801910218502
Na 9.608276875234663 4.309237448921414 11.541849200383673
Na 12.262695262745563 4.4004867930997635 5.476958160524787
Na 11.933038302976296 6.9489110441527115 11.333370880173188
Na 7.81294548888895 3.629900565923908 8.50668949669496
Na 13.303884065547482 10.059868770193315 11.859562989210476
Na 10.354740197848365 3.2593552602079283 2.836303229738866
Na 10.133055410316038 6.336650065976795 8.400026701457712
Na 13.662401283736777 8.986651642899801 8.771332196661321
Na 6.1516300539338 2.61053298317193 5.5002957680686375
Na 6.124652252084554 5.0330178508499115 11.167120733512064
Na 12.388611375646741 7.777676370683913 5.818890114473492
Na 8.473695573462535 7.658593716443917 11.469731440679604
Na 10.736709970797797 6.618774601309463 2.9507353163209546
Na 8.452620932792481 5.367232179328632 5.330410678013686
Na 10.206621822561882 10.266394268427034 12.99321631463285
Na 6.427887754353012 7.089734866064932 8.35177677605102
Na 4.380153539785018 4.215474496401149 7.932103388197672
Na 10.953798985875673 9.986654375315188 3.2796836512269887
Na 5.2187267931365655 8.353339352481154 11.703335143036
Na 7.47074922813674 7.8459145721779455 2.8527014036428997
Na 9.013443938108118 8.786766807648302 6.202658577316536
Na 7.001691184086193 10.334591581263425 13.950750723490694
Na 2.8987373637817746 6.105820957185754 10.325764524758021
Na 10.395560283724597 9.870485863746536 9.469830768415536
Na 5.0441331303950205 5.789868602234013 4.556443966998407
Na 11.806683654189563 11.189508704827867 6.4631773843898515
Na 4.65511839006968 11.83709608959308 11.892667901916488
Na 5.754168883120546 10.373461250102386 8.729563943854142
Na 8.06273158088024 12.082794787197425 11.005912760497793
Na 2.4602519265939806 9.541534693843769 10.024486908213872
Na 5.537506175625093 9.147464026438824 5.4097816567934425
Na 7.839926758911172 11.273422261632126 3.937173812764983
Na 3.1031335242413145 7.339541682583175 7.022628932375353
Na 8.651702727101007 12.192147223138505 7.485580008046259
Na 2.7449342305487274 12.970627507618595 9.153916885490883
Na 6.082615191385349 13.979017867769974 9.100805809021153
Na 5.410540843025353 12.667885027949167 5.949471567643333
Na 2.6066223914224658 10.726384764707912 6.650732260265922
