44
Energy = -46.29623095 eV
Na 5.594240534526159 11.771605063258837 8.504533639681515
Na 7.812652189293311 13.038017229106094 11.09323137385356
Na 9.379871652865106 12.535839363151196 4.4701619958834655
Na 5.655992481063865 12.81424946008823 4.905115868914344
Na 10.499477892768914 14.591988695949532 9.392700676203033
Na 11.960795771428078 13.062533849171288 6.6849131455615645
Na 7.087874972944577 10.612912022724972 2.558922199028297
Na 7.885520981385646 14.208998414573886 7.212849925494988
Na 3.489570378296106 9.08861764277708 9.322799967133504
Na 3.734489063555183 10.102114006381651 5.8786405853032075
Na 10.682594025644619 10.19665642288951 2.100598310872439
Na 5.508734598119754 10.560999093797562 11.904068273901839
Na 9.133683371566107 10.191377639111263 12.593787014807912
Na 10.998268085363252 9.648921416959785 5.5491581688561755
Na 7.288553221372887 8.78814517160518 9.509273545781939
Na 1.8478444846897069 7.382371096528844 6.7881733117571414
Na 7.308095551827605 9.729416885337745 5.974950899532718
Na 11.794091332134718 11.787016083753507 10.940737207583112
Na 5.145960854616461 7.772108497223867 3.4208234092996204
Na 8.788898356253041 7.577197710665003 3.401579749150942
Na 13.211018187785976 10.187257353787372 8.181523410332721
Na 3.0893962007824265 5.36401385483554 9.218080924669454
Na 10.827717545635455 8.445544322525528 9.882310209279993
Na 3.4666712766034893 4.954142693875571 4.709194005998019
Na 4.9981192475111875 7.07148047809717 11.647603018494491
Na 5.3287314235548555 6.960576207880634 6.938205654672689
Na 6.8092228375602835 8.45183006368014 14.515026987704458
Na 9.435851445545827 11.239429872078091 8.319481289827094
Na 9.047298021598488 6.879243837857431 6.958956106663672
Na 12.436261359507444 7.4998836223646625 3.283093827221904
Na 10.616363813004119 4.8028766417407 4.48332993999759
Na 6.973409190387107 5.194753019712762 9.405207899647708
Na 8.867115030154352 6.804868404849744 12.097795939029393
Na 6.989353455755338 4.914209411433264 4.457659311227603
Na 12.658797930511499 6.870117399961452 7.038099416416549
Na 4.9554736823013705 3.110710143908475 7.209082843478632
Na 4.753187446630908 3.279512333596838 11.439427806846686
Na 6.553378318747798 5.0392334615412295 13.96735078465371
Na 10.661472473460497 5.0816781150531725 9.572683176520465
Na 8.729335427485207 3.289687510256084 7.0104793010506805
Na 12.41056519696089 3.3369415906952806 7.098980218484384
Na 6.975346426693828 1.462503237041363 9.385349290497434
Na 8.697406134079799 3.2935140993924072 11.888420197095869
Na 10.586362432211242 1.5522440556868458 9.526225531511432
