44
Energy = -47.3181526 eV
Na 6.875057012051169 4.820851977198611 2.118536837936225
Na 3.6120783878100626 3.4645247499873797 2.980956022814597
Na 3.9298502676324256 6.478744130867487 0.811093543992246
Na 9.90371235563321 10.74619884027637 1.662521635533129
Na 9.793854248257084 7.052364392127193 2.1728523695287434
Na 6.503095821923648 11.969354716605089 2.687856414888522
Na 6.659183160097224 8.504640304649506 2.0712010628416535
Na 3.104155663919643 9.571910218374956 2.9753891194414974
Na 6.885891734038152 1.301697004904286 3.7834587721763255
Na 1.3294955931354182 8.17307425817606 5.922657840766347
Na 5.8973623729157 3.84723462053251 5.675293245620209
Na 1.1289004961655238 6.244492681793073 3.0386223424873613
Na 9.74809834102864 3.939287333916991 4.409038473368826
Na 9.467134676047237 13.29024853419483 4.241122537241063
Na 4.376820705343033 6.693256601932539 4.333927346550174
Na 3.3911899395868614 1.127354422726834 5.939095994582895
Na 6.290723792700309 13.217516821725662 5.960103660778069
Na 9.100856946629081 9.828389107103114 4.78596598076754
Na 11.751494735957689 7.309261596414112 5.131149791834499
Na 12.212608349636628 11.038258393033116 5.0216186829129095
Na 5.786062833378993 9.758481116291692 5.431013460737479
Na 7.8548724984558405 6.662039289912801 5.234270034045902
Na 2.9581492319680947 11.353330448803199 6.3487352595635675
Na 7.9667081211877395 8.599551773949804 8.079734067303564
Na 6.407356814749255 13.520207992215536 7.032131141814495
Na 8.605796335446708 2.2412286758372653 7.338378641782323
Na 9.26500007746603 11.918145952644302 7.580049826290303
Na 10.359001647977216 5.445142444034382 7.746536133421572
Na 11.338010235016059 8.954827189244982 8.300935830924477
Na 6.880383958186433 5.343175331998839 8.651060596278416
Na 3.7395198634561364 13.29024853419483 9.273421076990163
Na 9.619708514018475 3.218045113659577 10.520365820410943
Na 2.504826030055978 4.710550539846588 6.605342644602469
Na 5.615343470585603 11.04009951080948 8.978220836866987
Na 4.192905790563915 7.7789166514353365 7.920624021954206
Na 4.995083644101927 2.5237738028396297 8.718785940709845
Na 7.039119593269972 0.5441501596039082 10.55885176462371
Na 8.678714183989607 10.402101214832602 10.919834323144062
Na 5.871680305046358 7.952284650622128 11.157106152878182
Na 3.7831159272073527 1.7763273216347542 11.877842712090953
Na 9.295065556481841 6.782827979915933 10.91761595233611
Na 6.513397660032702 4.286950500267642 11.898812150580358
Na 3.3016836572420463 5.244633861185062 10.193023405129912
Na 1.5069458765189243 2.0821551643407035 9.03486295636892
