47
Energy = -50.52499037 eV
Na 6.217588350944326 9.351989803323338 0.009208246836862291
Na 8.809330170700788 12.02684963522961 0.7042756131864795
Na 4.065970200799582 6.0473076295315025 0.6319164485012598
Na 9.69576337300146 8.387605236932826 1.1428534089785556
Na 5.385626134196628 12.610728284610301 1.7973822276204199
Na 2.967188751516598 2.1864057983974643 4.248480003468134
Na 6.783972689717363 6.715975211296667 2.400391789477191
Na 3.8983369407623263 9.039855834894405 2.8919332438865424
Na 6.203131523639613 3.084871919597315 2.7577214283067133
Na 7.382777532247069 10.239754222618846 3.208472008609872
Na 9.753654458166185 4.798763799865825 2.7973184808090537
Na 8.083837089033759 13.46439685122569 4.085134271801334
Na 12.352013546010303 7.42744574289252 3.4329263443293536
Na 10.837452718176566 10.874936884054831 3.670029307026129
Na 3.840347490498664 5.642241621358939 4.304869386910953
Na 9.281006484166733 7.713971570961746 4.725754153477929
Na 5.018440403516444 11.715018984672048 5.34872463118262
Na 5.944362513231135 1.074393976205557 5.925219622882473
Na 2.7647251169885227 0.04950341485914208 7.166783470593389
Na 5.999116703351375 8.220287192226984 5.700133248515239
Na 9.200325884954593 1.8823187389677496 5.20205099316436
Na 7.142544455273703 4.823757902078129 5.59623104124554
Na 2.6620002986747373 8.229025268326366 6.4816279346992705
Na 10.669661237921911 1.6749631511822467 8.556936432810373
Na 8.449106165242512 10.707031524004888 6.829749293047032
Na 5.271785381889936 10.087905865322064 8.54819008757758
Na 1.684012953332377 2.334664518379826 9.729701479498626
Na 4.110968569258766 3.5247021165586068 7.450289600345599
Na 11.757890129352473 8.435032167033812 7.063024057681501
Na 8.599844369969128 7.23066002456833 8.201936166174383
Na 5.326809857516928 6.473727667121871 8.639653294603578
Na 4.9637435867856405 0.7502601277995354 9.796150602015848
Na 7.580278060567726 3.3884071904654545 8.575994878868661
Na 10.815460217285683 4.833943351834718 6.322095301010299
Na 2.0892388210341735 9.474608021312589 9.851136245242653
Na 7.96991197086356 13.464396851225688 8.534065756120947
Na 1.0116571138855575 4.66202138703654 6.412022329412717
Na 2.0642805251971295 5.905852926903422 9.672372565807466
Na 11.032170849986949 8.307736567820402 10.607564055430867
Na 4.684413718921316 11.297145478426021 11.786372408507782
Na 7.77710161018431 5.823829293235343 11.457391016492473
Na 13.386881520690071 7.612358629402351 7.883631453623834
Na 7.66123175457898 9.418774724823521 10.91270308502803
Na 7.978897858619562 1.8681964457536335 11.533940374231987
Na 4.598674416396482 7.699564457444846 11.787752201800723
Na 4.792423538908249 3.928901462888281 11.238215924212435
Na 10.854340843003715 4.908208426289227 9.922641879526086
