49
Energy = -53.33769987 eV
Na 0.8574649269229221 7.687933102068364 7.781013971913948
Na 4.667022047135173 0.041122613098567205 7.783110948358805
Na 3.5493463942508545 3.3798650516027573 7.070953531389956
Na 2.137344769805835 1.795469063299407 9.83093681401651
Na 3.2057906199435546 10.33784166515701 6.407120031823502
Na 2.650112918753177 2.373098213541954 3.5973275416873887
Na 3.7333562062116616 12.545030253626301 4.282499260022972
Na 0.34010665590985645 13.375236255385692 3.019705649252826
Na 0.10507924403320498 4.113490329854226 7.786390766218028
Na 1.2009695661325215 0.7516288626552488 6.417196669132802
Na 12.722231000827557 3.066929907072295 4.284552218148301
Na 1.5486151187933388 5.6773882577866175 4.8793080526527675
Na 3.887619225851497 8.271158135830598 3.587921243764844
Na 11.768341189616656 6.382081918816691 5.608396683159766
Na 12.961007251445197 6.132812147028693 2.067997288604323
Na 3.2709401370118907 0.22926468885443246 0.8628522121314759
Na 0.4480900301244497 2.7480698661912073 0.864561964653555
Na 1.7263134359951342 8.799357714137559 0.8530957537849874
Na 2.8026769854218645 11.563932404412073 3.010109415870571
Na 0.3924551393690992 9.036136554188678 4.275790483281211
Na 5.31553058057722 9.991673417633857 0.855356445176156
Na 2.825170809807998 5.408994720456217 1.3741959401534398
Na 4.967432888368311 4.967158890113971 4.176988001353363
Na 5.650730643453059 2.888006685895263 1.3710504138857025
Na 4.3073325104899665 6.993613822549865 7.067126213268299
Na 2.868017167729783 5.40904596591508 10.124851492789693
Na 3.6409260673226203 9.010516201962446 9.823888648160963
Na 6.2456829661033835 10.972900992216465 4.271469421148804
Na 9.918039129792472 5.873688141325941 0.854933800656359
Na 8.780923857603709 9.236077069847932 2.0612318839949753
Na 7.301606710828494 7.582617883723436 4.867635038733302
Na 9.387022591000163 7.177361283229853 7.777417186095407
Na 10.790992259059845 6.912494639733682 4.2736666351011925
Na 6.4021121792874585 6.574563109745153 10.120329812129732
Na 6.667270474536194 9.61059331118179 7.777467882400359
Na 10.502894427307034 3.822721802287935 6.407631685764199
Na 9.591903485637209 10.144843450870985 5.606020559717235
Na 7.055519435230544 4.539848526671126 7.06533313559295
Na 9.143643026726991 2.172204560241177 0.8572666955562525
Na 8.372387625325752 4.264755095865503 3.588806990663205
Na 9.131970743396995 4.105135408587472 9.825578269943044
Na 9.523826661286188 0.8750139920229524 4.275818131409281
Na 11.768341189616656 3.557516573807566 3.01282426175023
Na 6.056053300898891 1.6505695705506256 4.873423144550648
Na 8.131871768441066 1.190888059791588 7.776864896844815
Na 6.756084900595145 13.124694037065845 2.065894516162206
Na 7.1344849337909215 11.97199665319313 5.605657116766913
Na 6.42690363800118 6.605169847258529 1.3668702020119363
Na 5.6450540605036466 2.9300870647496295 10.124217055836475
