46
Energy = -49.52425623 eV
Na 7.73522081247572 7.7939144959633735 0.14920668152633265
Na 5.7147291225755605 4.979782131034951 0.896691914324412
Na 4.230637398057919 8.719226348417601 1.5442738327605603
Na 9.259642559293063 4.610877390687332 2.3329239222797136
Na 3.398770264973222 2.735787028486912 2.482795600976793
Na 6.679100430972954 1.4813395123357105 1.6460763949584878
Na 6.995164794214213 10.817036911393286 2.8929732739743224
Na 10.317866247457037 8.43981051184136 3.306527599081836
Na 6.894520252500156 7.109742454342568 3.2781499267502867
Na 3.332879319559912 12.189339337624784 4.018071383571055
Na 3.494793447354706 5.958817240877438 3.8558149632870697
Na 12.516844741979197 5.71996085038351 4.9312964853459365
Na 4.376133560514038 0.6886599292359623 5.055174879888251
Na 10.006727863004217 2.5302566673398696 5.882019076034679
Na 6.53861637376188 3.445632065380769 4.545594571194049
Na 1.3079913718920881 8.923405669013547 4.2307777684314685
Na 4.559802309228565 9.228021396515787 4.994776938496152
Na 1.4590532624584396 3.6313510980759247 5.542869494884833
Na 9.949242663589663 11.7601622409553 5.283013192466101
Na 9.247267336478377 5.920201849338533 5.613592883944993
Na 7.9797441630099195 14.60812140015074 4.395564593487304
Na 7.96805958923343 9.201178180259632 5.875327020961919
Na 6.2045497835135075 12.209224934583096 6.372749132654457
Na 5.8424713190405395 6.369399822370031 6.431696794155727
Na 11.381224854024955 8.60233449374047 6.953938175644876
Na 9.87079692774935 14.008289931782967 7.4847559158751915
Na 4.219009510857962 3.4251965269753883 7.521969558158856
Na 5.433485035994596 9.325762375039266 8.380454347750609
Na 3.451666473293182 14.008289931782967 7.489158339038706
Na 2.404386495260689 10.7106445438295 7.393094547662315
Na 8.610334584135543 10.948135222617548 8.933373042976314
Na 6.751785821229983 0.794972346013802 7.678002781006247
Na 2.4844702160311156 6.967401782372878 7.352268493762444
Na 8.401365441363687 7.4060174931238905 8.74305486412273
Na 7.71000241567172 4.044396533421553 8.158582488911435
Na 11.181468892381522 5.15663509647619 8.560335527756376
Na 5.299290395522078 6.116330360601907 9.775927130508551
Na 10.775341156404366 8.223112456695063 10.884914862075846
Na 9.341042236230502 1.7564968312106233 10.006354736883921
Na 4.995916835577667 12.161479212744595 10.168256009447457
Na 6.840579939217788 8.91649634212322 11.629071257519204
Na 2.26881896480874 4.723448560899308 10.338700245367937
Na 3.0885135307019587 8.628102724553983 10.89043026116446
Na 5.717266362294998 2.7905125667790567 10.890419830100019
Na 8.3512963060109 5.304544011066611 11.603128275631972
Na 4.827651120935842 5.800701987309553 13.021393486035462
