46
Energy = -49.55239075 eV
Na 4.81977965768346 2.395160716492689 8.40752808168822
Na 8.352095931112355 8.726117077482693 7.460383509809331
Na 11.632592339667866 9.90267330310988 6.854562342761489
Na 9.14811896490192 0.5547570478768871 5.036866867454753
Na 5.07951141450017 8.048070858506637 7.902699465807814
Na 12.47187426163216 9.605297736206932 3.2615601809624413
Na 7.200644214894934 7.322841555256334 10.855870897045005
Na 2.6132703744753703 10.643516555849345 7.186528188259421
Na 7.414014835156149 6.433302250585097 5.112407576702084
Na 1.4028914703941844 3.3887600484585803 7.879310932451474
Na 5.8257325701057665 13.239876619523523 6.648719703520403
Na 1.5627760811693747 5.559812078676671 4.069938533204283
Na 8.878134829670504 12.34255008349567 7.149912148850157
Na 3.224006018353718 1.949017132678703 5.049466409807601
Na 7.609798265607199 13.239876619523526 3.718265987903929
Na 10.408130723939557 7.2358447697328385 1.740017871418789
Na 8.851701811899185 9.678669221973704 4.2174969434891265
Na 6.170504765890345 10.966636952150857 9.427109118833538
Na 2.496754693714602 13.679096740639949 8.157059800399072
Na 4.255023365179721 8.207636215044982 4.5460237085953485
Na 9.09642834260575 4.172844031885496 3.064656991613957
Na 10.055491946824093 3.746723480279821 6.713135717268242
Na 5.8692342438931835 11.059071181296629 5.791002792400372
Na 11.04529135994983 12.599157178622733 4.360654811591203
Na 5.971708002993679 10.660454211931278 1.9671761718878558
Na 11.033282438971378 6.78307674253429 5.155408171300139
Na 8.235035989611593 1.347597861943092 8.655304539237386
Na 4.188190912904294 5.12096930729334 6.341755347621794
Na 9.616452441693523 3.9613375780312783 10.76955817158874
Na 8.59464713035601 0.6228620976056144 12.151836498423155
Na 3.1168943678335355 9.16038633640499 10.447165772268637
Na 1.605195175828496 7.268546845082049 7.488130843952425
Na 9.631702091683291 10.986382610023702 1.2520638743038437
Na 3.0166573972578803 11.459437337644916 3.480625412793597
Na 2.7968957789149274 2.0692030518533886 11.176314164825817
Na 9.894693748445222 10.06775884342537 10.120291055749114
Na 2.9684397255419284 8.152580145257186 1.5329469393201332
Na 6.933952704045004 7.37289238628818 1.7570016201883993
Na 4.808326847023345 4.74918273547549 2.8918148820528433
Na 6.241666983258319 3.2538620623949748 11.580166718302175
Na 0.6626626622206002 9.015579644486651 4.446889608562668
Na 7.255820552243551 5.003283115266996 8.36534812724656
Na 5.524308706216403 13.435554045346661 10.478081975385003
Na 6.732330296068609 2.824444749799547 5.400125252177616
Na 10.807472444462395 6.739249282984643 8.846157359360843
Na 3.879861119205207 5.500850113543424 10.084658911613023
