41
Energy = -43.16386215 eV
Na 7.626260997611506 14.62892974136079 3.4839702969125765
Na 9.037931931419283 11.529436475931602 3.3854021658128146
Na 6.187958807339084 11.64731233706811 1.1635621705022605
Na 8.53171361709099 12.457975556295901 6.701508911033067
Na 10.6496382682362 9.269673362075233 5.599813737910924
Na 13.108756426665396 8.424729227480823 8.389946781813983
Na 14.658261998363628 5.491471147351473 9.476520276986154
Na 10.69641740878549 10.847948154529401 8.999095509956275
Na 5.585114758966179 12.142684143005614 4.6067011465134815
Na 8.005298200286834 8.435774671644424 2.0758904588081326
Na 7.805616049824171 12.642624192363845 10.318112569781741
Na 9.025702069245492 5.967771615196091 4.826683948375756
Na 11.839639870818212 7.373575638597217 11.550056686748281
Na 12.17984414179304 5.351396967395045 6.733844311997533
Na 7.146398335120183 9.028875546497984 5.335682115842575
Na 9.708387305581775 7.34339351560605 8.280535171963553
Na 5.211035522989758 13.126689918267465 7.934780309666863
Na 8.960732880404537 9.577249104190434 11.745113785614278
Na 4.918902552025986 8.368021828385697 14.30749012046848
Na 11.60771465095409 4.061507588489346 10.002227639464813
Na 9.147869625220043 7.235369265398643 14.307490120468476
Na 5.785673076408621 5.883571494349311 3.240769795218907
Na 8.692267113282545 5.793159989643679 11.042549810813986
Na 7.047671809358342 9.581821798431864 8.71260104351467
Na 8.963568602900665 3.6507742650043236 7.751821939110654
Na 4.249632210409177 9.189553723552768 3.1731983056451365
Na 6.274750164141352 6.18714640490104 7.244964018409955
Na 2.6519988930519864 6.307473879401978 1.7173738242174155
Na 6.550856013776358 3.031962274678724 5.161454977991555
Na 10.642273824331854 4.177702822487318 13.548592373024016
Na 3.912305942962799 9.84629731552518 6.825039960307004
Na 7.060612999955734 4.349987903586345 13.714462835754855
Na 2.9897003527245665 6.551106402905164 5.462622832243269
Na 4.245362719911361 10.593935442841596 10.348316600304763
Na 8.5252646863436 2.2177960686658813 11.163098404842204
Na 5.944161925495766 7.648896393183175 11.84924601464653
Na 3.258969558673754 3.302054239910267 3.908374675672013
Na 5.626758162960785 4.212680372161282 10.29667815207499
Na 3.519364082429921 7.142924476758014 9.113909849020544
Na 6.3592980214269454 1.349011972322002 8.27914421162692
Na 3.6154415488964906 3.6527989569468495 7.3777217795609475
