48
Energy = -51.74934025 eV
Na 8.047620569002383 9.41200983335773 0.744558266047914
Na 7.185565262488441 5.705439371514829 0.04516068521275892
Na 4.263633480935722 8.604644603776263 1.107545882049827
Na 9.750775145465017 2.9430015546453916 0.7224331349612053
Na 10.219176644307641 6.344117068769948 1.8466011141962633
Na 6.205735688669687 2.183876130603907 0.7230139265994668
Na 4.17187788719953 5.106423608339733 2.3811835042042255
Na 1.0874118863506788 7.1985408935187225 2.839522363925009
Na 5.838277007366639 10.895252660465468 3.4704666083057596
Na 6.923831601639352 7.52534637476897 3.1801722409618134
Na 2.076758785189968 10.730539275753216 3.5623049081025653
Na 9.481499583827679 10.018438260046992 4.517360467566414
Na 12.829176930510796 6.320780822317555 4.4365583091743686
Na 7.644311685048868 4.117522916016263 3.182452940242249
Na 10.933486314992361 3.3465095418235147 4.207747672426409
Na 3.7656420991917003 8.067336796073743 4.641186550206259
Na 8.49424561335032 0.7776941619357611 3.4328077458790087
Na 9.421969473852668 6.485805511456394 5.331377559371664
Na 5.018461469637101 2.038183344030305 4.208557901560885
Na 2.0742557239521737 4.94175632969988 5.757759981571358
Na 0.7280437412546741 8.771775281407765 6.384598766302133
Na 5.614571332949052 5.506910528678443 5.865015486685396
Na 3.8211689030611202 10.931994780995016 6.914818573599163
Na 6.687561793727027 8.925769046553372 6.457560087730406
Na 7.238193323957845 12.395003061517478 6.411624558383592
Na 5.77349795979895 5.0522826165387364 9.376811587880766
Na 8.559520782595191 6.9349814101445 8.577445572907363
Na 6.7753663854891135 12.843460987165832 6.53763228507076
Na 7.959049739324907 3.3852187151270567 6.809915779209248
Na 10.172914492266699 1.109355776148793 7.405146121935017
Na 9.414851358685782 10.543336935179028 8.52084807480544
Na 4.2699836314183734 2.4091869227240985 7.651681250018728
Na 3.329049414823967 7.287447378106726 8.12475538341093
Na 11.444577597527969 4.856614113909634 7.7560139913640125
Na 11.88638989108555 8.52733470322588 7.234394279656873
Na 2.0918838432594877 4.176889078893383 9.831633937828723
Na 5.810790648424183 12.057983210403012 9.949458471578513
Na 0.28003431232298825 7.358994664130776 9.807877281696241
Na 2.5377366437630813 10.127681913416021 10.327526641361592
Na 5.890421506197017 8.790755672908634 9.842879814964254
Na 6.99355126077418 1.4502084793236414 9.737941279110458
Na 8.435408648174457 10.10420019028634 11.895851547142492
Na 9.119585940517373 4.097588029088064 10.465120586539106
Na 5.002903924150544 3.4131571327133425 12.089796742679276
Na 11.021726437955515 7.560990846290644 10.627466034968775
Na 3.465204878261237 6.869030155339283 11.875527939636687
Na 5.0363379059689715 9.993886903565157 12.952805361337075
Na 7.215588535762891 6.672014769906707 12.23870848610916
