47
Energy = -50.71945904 eV
Na 3.761832941681068 7.652162357438361 13.256900798875412
Na 7.388296684004285 6.951349100212255 13.341217811629953
Na 9.293041653070556 9.718760526354625 1.3324575538936716
Na 2.087726612069722 9.966107209095282 1.6360607570073327
Na 5.020561295070092 4.9262908668003025 1.3674458708663135
Na 5.669251192571811 10.09324381690593 1.3320311034866963
Na 10.534862970902509 6.295824286981974 1.6035326316892113
Na 8.286411109601502 3.7317245033077513 2.5634071994519094
Na 7.503009526515978 7.233405113848908 3.070167998430241
Na 1.3465601951445825 6.3177435976954985 1.9233317193261936
Na 7.670590559875558 10.466508225150239 4.597057482137279
Na 5.866536680627895 1.2128280125134685 4.194810590761266
Na 10.764250220802106 8.359087274055792 4.52996328995185
Na 4.077226889356029 11.11468781598624 4.580113462809341
Na 4.0850882832080115 7.653161531936757 3.5356376506065943
Na 9.372623404282606 5.388380834367654 5.639421296509042
Na 2.792525397934109 3.219708705898621 3.405253275057323
Na 5.712056580650703 4.657633630183774 5.016419165190206
Na 12.153136134878528 4.4257124635650085 4.317372842966143
Na 1.0665609179069457 9.043192478173305 5.035324018322644
Na 9.131341952108727 1.8616406244272843 5.569505243393737
Na 1.9571510964641732 5.625920241705157 5.787903326088068
Na 9.929301913745425 9.685737286628003 7.761939340271362
Na 7.179494163426444 7.648276984365846 6.575375679585482
Na 6.5434911136374625 0.3923514480886647 7.676347727122041
Na 3.9978144893729217 8.558212484282 6.977871557252504
Na 4.393732235485957 5.404985612163444 8.207539361651934
Na 3.552951237744499 2.1030476751725087 6.820015788412534
Na 11.16692365974513 3.490177444055106 8.099235354083463
Na 8.565733999802898 10.051148450473239 11.041941924573056
Na 12.38381285540881 6.8003250560970345 7.345947490254993
Na 1.3283215856560602 7.688711195061464 8.823056714265187
Na 2.236890558973978 11.312798980255572 7.846584710283131
Na 1.4735752276371386 3.904427956934883 9.15260035883374
Na 6.278711744198902 10.953595127300028 8.074568290402668
Na 7.440639762953958 3.890145260772209 8.145182899148002
Na 9.504650985793823 6.486695308783558 9.321873635862975
Na 4.917404773436016 2.54157898087447 10.257748881232637
Na 6.351211812614317 7.671783039770465 9.873706920307708
Na 8.881733195066376 1.940805309569408 10.600855200770665
Na 11.327666424578986 4.601365456897174 11.510767612158125
Na 3.8323999385858616 9.780682430185808 10.706586349265317
Na 3.6262376766604807 6.053628066754123 11.509502943258838
Na 12.009796372677107 8.345555983000427 10.736060053343326
Na 7.306798500098149 4.851752563365303 11.826040036411959
Na 9.596561676796098 7.241210583899288 13.0854721490528
Na 6.13350179717275 8.185928098641122 13.25690079887541
