40
Energy = -42.09182814 eV
Na 10.530299148082445 13.316744756942994 5.669096628413182
Na 7.462005603898277 14.810867365245509 6.040267342273333
Na 8.245602022434745 12.423697342814165 3.0739600770271958
Na 11.213986237151634 10.58146826251873 7.754169468300053
Na 10.508729579829474 9.92455903279946 4.327986182603218
Na 4.997597906798469 13.026602695376182 4.458581665803594
Na 8.843137285597841 13.183561727024552 8.936577361006012
Na 7.5809363519172965 10.77778931209978 6.45449400885735
Na 8.749709981475153 8.675815229998957 1.5094507744547998
Na 5.134773559815115 12.92848644189821 8.138831832689265
Na 12.326421513989459 7.823370877505759 9.905259419621858
Na 11.217356241658775 6.618673763397908 3.0553731641355535
Na 11.597320642862975 7.198098492166896 6.456478573880189
Na 5.8698200068303725 9.683194815518856 3.2689798033259043
Na 10.328188467296789 10.644200708540287 11.13437336330737
Na 3.767837635979405 10.198727702765854 6.066438250599965
Na 6.774415228468506 10.543753203468379 10.25475091210735
Na 8.871301795278658 4.35651136752169 1.9180852281610439
Na 8.031602607449456 7.146332478645976 4.97612291241835
Na 8.963080875516672 7.931836339159396 8.923376331450259
Na 5.576441748813372 7.754216755522446 8.021210676095402
Na 8.155717885127743 8.58822902785017 12.940873674442047
Na 6.073435491855742 6.32884417135136 1.8308138217910186
Na 4.698748500907644 8.456476565801076 12.383865945183823
Na 3.267414784146751 10.045165897319515 9.587057076791424
Na 10.045884887533992 3.9917215942573376 5.27395572432991
Na 4.253907822361116 6.790877445982308 4.709268823918507
Na 10.949644154933468 4.556402978274602 8.766444791409764
Na 10.220260657575974 5.951908823521839 11.978160292370813
Na 2.0303678213318492 7.29087230670691 7.382963538574903
Na 7.422916604943373 4.5359471084596645 7.841479269972266
Na 6.75797569986145 5.830605569714695 11.17126208514799
Na 3.297731648730626 5.93042661079853 10.343870103237416
Na 6.419678059478125 3.726193625788761 4.468912968917028
Na 3.872438490653074 4.2093289306799715 7.152145728011606
Na 9.211714424626283 1.397326361488481 7.679157284249243
Na 8.63728701100171 2.710735088695158 10.981218693311751
Na 5.189238234442785 2.6637546404924404 10.233944611189258
Na 5.834769155527295 1.1678482590488644 7.035677702888596
Na 7.115622416873311 14.81086736524551 9.955033294134825
