45
Energy = -47.15203742 eV
Na 10.268444883558155 9.255472420525951 2.777465751276716
Na 10.491920748915373 5.806537079064319 2.9182315156564664
Na 6.888123744698967 9.476498539811091 1.9958736819391385
Na 7.11262720282945 6.112521121587966 2.6465234815067387
Na 11.964242567522566 7.357844405755655 5.6788097329222245
Na 11.777709017061076 3.757192953198836 5.426197151133177
Na 8.37982485911834 4.3715090479804655 5.467700358581273
Na 13.164738202656462 1.6781893567030095 7.788235665883257
Na 11.001674870594133 10.684113869343761 5.75675888749922
Na 13.506588863845515 5.292417284448351 8.059902674774214
Na 8.440275395300382 7.877408762869145 5.717302172079544
Na 11.469970357277207 8.84372473543221 8.723065487205085
Na 4.047005653467053 11.177407770553401 3.2593626616330877
Na 9.655393880420295 1.9572812461440727 7.710432133884347
Na 6.248169263634266 5.876466305914383 8.097615105784136
Na 5.004258460460128 4.49517959833011 4.946549082799973
Na 5.045734883821841 8.054979094430479 4.624684514518991
Na 10.614907331599408 13.80897497828219 7.366033166044428
Na 7.32791467665339 11.085569133367665 5.004878244654233
Na 9.924992617534059 5.649587868545378 8.360951525631434
Na 6.230274377322848 2.2392301057128985 7.425286324859973
Na 11.5862404713551 3.296484868206674 10.451705352722712
Na 7.1550392453236995 14.127005897806303 7.024743342988062
Na 2.9262364044514104 6.399781994325421 6.8064318604559
Na 5.5099521746464895 9.290984873424264 7.817498336641916
Na 8.152712598071943 8.154842021823171 9.975485893804125
Na 2.0775177632975956 9.687558057189209 5.760252942705039
Na 7.983151991652293 3.2317484482258076 10.556434969942869
Na 11.251527808874211 12.054513648338283 10.495759826547589
Na 6.112422323254606 5.865062854943251 11.856209663229112
Na 13.91987403122529 9.960318226235021 11.110162548814628
Na 8.517267327163928 11.045790281392968 8.269573826006656
Na 4.255536392621558 12.429793420329183 6.483471724232385
Na 0.30251668596739745 8.117018080588661 8.365882656254753
Na 13.067241792081036 6.611385561464528 11.12560010190635
Na 4.447187770713693 3.4983125933262293 10.112527333652439
Na 8.448222948034728 14.205579214148903 10.263245521996172
Na 10.81511434921261 9.02290086934947 12.372680766425614
Na 9.759180212438396 5.709586032819092 12.10874928796081
Na 3.086057173304986 6.893441087264804 10.189231429539769
Na 7.6967085842170455 8.288043422019992 13.591923425251366
Na 2.5603198638601463 10.673997952206978 9.210881467671188
Na 5.065069093545395 9.376479418265877 11.43237155264347
Na 5.346215294776455 12.539230931702258 9.777100268904185
Na 7.968667040779061 11.223398379760848 11.867475030036786
