43
Energy = -46.35016344 eV
Na 2.1045458332149187 2.1228333066110197 3.9425640769830665
Na 5.640951623330306 7.057359284532684 2.771554992724302
Na 1.9478311017892969 5.836044648975533 3.120381105973632
Na 8.755904974966636 6.128289521563823 1.0675118130455965
Na 7.836049008107727 3.9555517697291394 3.8439272327970015
Na 11.644679265615903 8.344579087607254 2.1373502539389855
Na 2.91901518359678 9.643957352455098 3.19158708961464
Na 4.867124314979844 3.541162485041848 1.7494770598954856
Na 8.094304122988273 10.103319684881573 2.0834493105798226
Na 11.428426196403237 4.7535492880015715 3.7549865631172508
Na 5.08230692913181 12.427738979547303 3.2038642178492656
Na 4.407781357220195 4.2475627968484355 5.0477255382419735
Na 6.383020918673997 9.849661839318145 5.1721669578060006
Na 5.78143493760836 0.9892008847646971 4.856324264182681
Na 3.523041912356978 7.583233738540994 5.811384939946975
Na 9.12691745451698 7.491814694652259 4.191954936380541
Na 10.619228930145507 10.558576996928094 4.726632162658153
Na 6.692250864615519 6.512152095518231 6.165366980691482
Na 0.3701216612339214 8.469281185976449 5.6122311060087595
Na 12.24279092307756 7.450032843121317 6.069418927225373
Na 9.729818873678921 1.6684628515841693 6.176889821538705
Na 9.689345960983054 5.191812465777594 6.814033865892485
Na 12.632276158279486 3.890557178132018 7.3773531784276924
Na 9.056124932309027 8.881832621878896 7.641615118262538
Na 3.305079886566877 10.992166971430665 6.802542563634439
Na 7.9901258868357345 12.948870215531324 4.833159984298823
Na 6.790886040768645 11.823556581129377 8.2783666313013
Na 6.8624942031188025 3.2055828122773966 7.350351655058004
Na 1.2232036027546225 4.825455705195423 6.705844772028357
Na 5.474640848301192 8.69283324967526 8.532236977734515
Na 6.862221610087019 0.13702916989527422 8.61038630794952
Na 3.534966121144277 1.9171271230932354 7.764019806216146
Na 10.97220480205143 6.516950021193376 9.84667602962818
Na 4.2723731691298354 5.359294009989976 8.428595661276335
Na 7.554308701320907 6.0141027005693735 9.49544793131482
Na 9.465250916886479 2.9700314239365055 9.746350217343313
Na 1.987819724607177 8.006576768968502 9.082299702163004
Na 4.173413263860558 10.719565216885481 10.815940119920326
Na 7.750958719868389 9.090658740154888 11.186958935886217
Na 5.759634271946049 3.1029045904667742 10.804712372379024
Na 1.9539161362835562 4.208660546227181 10.437880640089809
Na 4.758945175931051 6.867621980616982 11.633717798370343
Na 8.295086197710628 5.4652672887730676 12.677583097623534
