49
Energy = -52.41218123 eV
Na 13.45798107761085 11.547354729086665 8.261832821502301
Na 13.289610225229865 10.114678864416422 11.610035023754154
Na 11.04896583924302 13.321419874222165 10.176410109152544
Na 11.741812645218513 9.984249447092278 5.478999693576397
Na 13.182509674069392 7.9669757209598835 8.369686404635965
Na 13.194759395348171 6.081318958639653 11.333032196878133
Na 10.919299099690187 13.458552144486216 6.428202784739129
Na 10.362753929206507 11.61606279302061 13.269357386224385
Na 12.598925756373909 6.372590226005425 5.118800443272528
Na 8.396199079094108 14.902833706499209 12.167609870236882
Na 14.009756847435872 4.578829968550505 8.08496508312693
Na 10.493166181436854 9.832651410617986 9.669800598941285
Na 10.487245566923942 8.034849870298418 12.824135529072727
Na 11.95040165731163 2.6013781309918826 10.181562720496547
Na 9.314689383073555 11.534757029062392 3.369659640213646
Na 7.971348328168951 14.613226510770556 8.498592759286206
Na 9.816887886365638 7.579472684572466 6.9910911250817644
Na 9.918932199530106 5.919441592302812 9.945597785439983
Na 10.72290342942281 8.080311391167257 2.4006469042978176
Na 10.560022496426697 4.09520409972132 12.967925728786792
Na 7.717187859428551 14.274885229631916 4.964925746879715
Na 5.108706387822116 14.386743470759507 10.509300132527741
Na 7.766374786087668 11.86767006001 10.904937389176702
Na 7.323110358219079 9.507578284865183 13.707867477783836
Na 10.761646478544783 3.841520837449193 7.0041692376371705
Na 7.925166230924406 8.394894604875997 4.308753771033768
Na 8.413934279123156 11.083659129518995 7.0495284894389885
Na 7.543361387585439 5.818129209051406 12.747051773924461
Na 9.326009204401576 5.0130857014982135 3.927696976900183
Na 7.217643840366676 6.612437627829235 1.46966600315723
Na 4.298618741396236 7.347060376864909 12.711482291756848
Na 7.4217583945154715 5.227529418160803 7.04986390721773
Na 10.400907317394292 0.46436607082563 7.8205768096913255
Na 4.637688453196138 14.179911027605272 6.771605670732955
Na 7.210686078950345 8.504352500878962 10.25395623953701
Na 5.708191207550185 11.330384938282236 4.610474939796625
Na 5.929575702162227 8.332321800078876 7.035112931561521
Na 4.491842358919588 10.932842484023569 12.053428372911426
Na 8.224647726979361 2.7793810923795825 9.719170437417365
Na 7.894867146200084 1.953938448392004 5.767971633251045
Na 5.615095486780738 5.473690679475695 9.863934067140788
Na 5.1418990058736815 11.380859333430157 8.589848136498746
Na 5.665155337230688 4.5613387152991285 4.179015856924305
Na 3.2871021737399144 8.39282520093881 9.555803776040412
Na 4.442220606399474 7.843968219897952 3.7375290965412407
Na 4.876575469431169 2.8431770537361643 7.682358988450064
Na 3.382819784482639 5.992293080721538 6.783466781685238
Na 2.8483918756800284 10.0208236685545 6.288056689238922
Na 2.3003317633024465 4.95722769702486 10.147021628352121
