43
Energy = -46.24362448 eV
Na 4.365816122060343 3.7183571320662483 0.5806858997377641
Na 5.323127137588419 7.390165376544341 0.7843309963549084
Na 5.9172695689603 10.962110321147458 2.477851927717258
Na 8.90168545464466 9.19937989163527 0.8724305292160359
Na 8.57575476268182 5.29663928825493 1.6385708278074766
Na 1.9796459842095235 5.496848544305703 2.59958387236433
Na 11.074798249574838 3.2585577947209967 3.9979456190244997
Na 7.006443395033348 2.2175839755929676 3.1566228295797605
Na 10.887159346877956 7.34505884228385 3.6668583692646304
Na 7.3675161239169284 8.050973360669758 3.599025422358197
Na 5.401298290522793 5.208211067383049 3.4780314955215017
Na 2.735469064863948 11.328157664871714 5.827139807280008
Na 3.3818178538642276 2.3550551188516633 4.155757470829906
Na 9.378472086500919 10.843597281577486 4.233942091332741
Na 3.7331697668393375 8.470982415691049 4.021135468576231
Na 8.617700160713 4.967933755196992 5.236099958003234
Na 0.05592403181977344 4.029345756573995 5.595141792711098
Na 0.530997513131745 7.844262988545355 5.637740909910863
Na 5.917863285042375 3.416556901221882 6.58285255480992
Na 8.633333717116633 1.1283484102542285 6.005798311831123
Na 8.982508331716309 8.303004465703042 6.688309385575695
Na 6.124517719600488 10.507144645598395 6.131831497791489
Na 5.893650332948889 6.923758449024745 6.477348272831347
Na 3.0044329662070592 5.46402462995618 6.087848039437855
Na 11.888922296613854 9.86621486916749 7.023224233287036
Na 5.296585521955674 0.08983688042912114 6.571469681704691
Na 10.556445538856229 2.9187993811097592 8.134399753047544
Na 11.585067570354392 6.083986636848649 7.221948207871548
Na 3.155008359268998 8.596266067556837 8.042617494931251
Na 2.8263873754369153 2.505051630840311 8.020965355400492
Na 8.203970120894821 5.43948587356716 8.67484268485259
Na 8.775408938698291 11.274116879175144 8.645740144996546
Na 0.9213008053932316 5.768145180006737 8.799604788138732
Na 6.59863539306932 8.547404279231234 9.315381172823868
Na 4.610718808087139 5.399789118762806 9.509319898801264
Na 4.8232143766381075 11.482474130115559 9.437010819017122
Na 7.044928065538889 2.389127113314285 9.690634920751434
Na 10.18655192571333 8.185029207861374 10.135563956556762
Na 10.341940624414738 4.638670257756136 11.296270486309911
Na 4.140440540312185 8.498782147558538 11.668977361480179
Na 7.172808080213334 6.255201208485564 12.009515925977144
Na 7.646449450136012 10.107936065035025 12.185959573791655
Na 9.991924156288635 7.784704209825239 13.64074940471042
