41
Energy = -42.79993269 eV
Na 4.9257319682175424 9.10029076713393 12.236228294603182
Na 3.0343134942547603 11.56361363481898 10.31803232750247
Na 6.316057517669383 12.238660424219235 11.267697412515329
Na 9.76142288239818 12.368023442962166 11.62887041256054
Na 3.132836589999259 6.389513200270293 13.57893391647181
Na 8.253893311460372 9.419503385886859 12.445190331118164
Na 2.0817749694567165 8.138528780570205 10.667199820170291
Na 8.217494534503581 14.332642672722997 8.946176399810653
Na 5.3785022786653425 12.631291474955468 7.833673092474596
Na 6.604086485221376 6.168659477496977 13.3389483824711
Na 6.719515463739513 6.949463090471522 9.907457776603442
Na 11.163969413738696 12.483000352285094 8.506877395841219
Na 11.125361748406513 9.340823924477489 10.507257778790827
Na 8.080868759461827 10.321488271684062 8.921888342799143
Na 4.745812489980134 9.271073848370163 8.41422405673233
Na 4.409796398595311 4.358628426468458 11.097576449948098
Na 9.825508492433501 6.386782758135828 12.193711770462766
Na 8.63362391457163 12.252380175577459 5.990686410117038
Na 3.3990756295422453 6.0673339017336305 8.20914920387185
Na 5.645503944497664 10.274643359696183 5.268475436975834
Na 3.1647855139214593 7.918268474530526 5.270470260828033
Na 5.935079866591809 3.7964807108259553 7.9304890113608755
Na 10.651252770188323 9.361686208488177 6.831763582000568
Na 13.700875397821443 11.244416772514864 6.617626814080851
Na 12.98383584016583 6.2103213830980275 10.896319751709076
Na 8.577908925641905 9.265827725101898 3.967491308218976
Na 6.9187944355134166 7.028202161758615 6.4116851530425745
Na 11.187198589359348 3.4507911824622135 9.845195759627007
Na 7.865264181615569 3.674290584206177 10.812837438162864
Na 11.551777573515919 11.35494456524018 3.9660315442236165
Na 9.814119612672425 6.592091673791788 8.640445242346749
Na 13.793903393522308 8.374669108139324 8.38782267312521
Na 4.386014007242658 4.707682532802127 4.974136388283258
Na 12.753681867539212 5.119258964331982 7.216605129583448
Na 13.564110303280737 8.037766360274798 4.9687836378051236
Na 10.303995615746585 6.288120142335267 4.984538726239375
Na 5.73051507012011 7.3080580247430795 2.9991877925042214
Na 9.278184604771344 3.5167291480067364 7.034388095589295
Na 8.808642961216197 6.432674869513394 1.7648657033357582
Na 11.47358226897268 8.396525832030406 2.2125558811049877
Na 7.627678737022065 4.275384026125849 4.154529071615258
