44
Energy = -47.53325465 eV
Na 5.190941565664245 13.696726840287022 4.21446856106583
Na 3.69639108194953 5.045798054898985 5.1270742438608785
Na 3.8870408759110675 5.918068254061066 8.558073187574593
Na 7.966000459270779 3.1097859470883815 1.37936063817714
Na 10.349292261650133 9.695153561971994 2.0535342974198114
Na 4.832524259491255 6.796379556444902 11.81985039339008
Na 8.104679279100827 8.541591277489633 4.071151583844254
Na 5.508377950671842 10.56158756798473 5.448745517029266
Na 10.516457191877654 5.706980493477561 3.1540200148015507
Na 9.036213332333267 1.3100221920234008 11.149014758353166
Na 8.753490603379202 11.923560057601827 4.749455063130066
Na 7.236967534777264 0.7811916072465561 8.088081423969784
Na 8.468125650952963 9.587230833940508 7.654500725574092
Na 11.143874136688218 0.9358254438879392 8.18912659214702
Na 12.055275638582751 3.6266905119375368 10.326811843140188
Na 2.915381822000534 12.196181184152076 7.013045177196847
Na 5.854125904983312 7.394874718877752 6.322118419904542
Na 6.491999715078831 12.837931199796921 7.745890439469624
Na 2.4531032325041613 8.54046426064591 6.27809195006313
Na 6.452372548771444 10.967597031761459 2.0676544627729445
Na 5.408793267674362 1.9216885860297765 4.195789645810925
Na 3.2829054301595253 2.379195741993934 7.583617827231891
Na 2.67619906101394 11.15852599327586 3.5977379273082537
Na 7.562602304656645 7.051336290916203 0.8867109348858928
Na 4.257770702947323 4.396025624557976 1.6656090248188173
Na 11.449401803661868 8.495761870431224 5.538093468798346
Na 4.58016444144149 7.919536076002821 2.9893141611631977
Na 1.6112587941150305 2.664914874374148 4.0917881826990135
Na 9.12729057418342 6.14431895471681 6.348791493660296
Na 10.806078571617075 7.090226167113147 9.252015734243884
Na 1.5731007477547432 8.00899384061616 9.82991029665503
Na 0.7829862598140745 5.186358243541647 7.124075091074947
Na 9.207410838873543 3.6814943244124545 8.711193999823475
Na 2.0881319287864217 4.300866472293482 10.780340111565026
Na 5.815624301035617 3.301780305601483 10.492696628187351
Na 12.165250501580818 4.703023142650867 6.592411676165647
Na 4.865581781662947 9.549615386684746 9.042998871891584
Na 1.2499382954558187 6.466525012983864 3.4353819837659216
Na 6.948966953279796 5.184416754224537 3.752745006068507
Na 9.22921732511196 2.6686377397097907 5.063793804698778
Na 8.81387495204043 5.123596364927733 12.023665817281755
Na 6.353029524883777 3.9287358486954265 6.977567948153711
Na 8.054202626916585 9.010191468327946 11.375488580300967
Na 7.2315627217262985 6.544573076374948 9.292171246895485
