45
Energy = -48.33838869 eV
Na 9.966398132055325 6.82144652658934 7.04801011744829
Na 8.883364355429588 7.370907908861509 12.626297253655899
Na 4.939691347060503 6.561022221340475 12.61614979353551
Na 1.6920755708162734 5.029642434895715 11.782618751543028
Na 3.9903425134328123 10.251365324777701 4.570060715163603
Na 6.090815737024308 2.02631086244962 8.76086573364481
Na 7.381127442402583 7.159320588530547 9.413203267279272
Na 10.25435077390436 10.191725127030358 6.126937484351993
Na 12.122262137075678 6.182349946845094 1.475516591362636
Na 7.327412543846701 2.103649791358421 5.08892457720782
Na 12.739276544894121 8.398992338205126 8.379783770750734
Na 3.018677837491701 11.32627235880459 8.146855656914726
Na 1.262211926004783 8.587548786831881 6.0541226352305895
Na 7.757892957329425 4.265054942146864 11.338639748299602
Na 3.5986181286178858 4.018677378051433 2.5391247497126375
Na 4.4244790251550015 8.19008268333078 7.85500335094294
Na 6.372857509676594 2.141077676065862 1.5517653714022759
Na 3.749922798543393 3.404927973483891 6.198538104341198
Na 9.263502554190401 4.169752582450064 1.0948001160684335
Na 1.4008915487142557 5.62063423462757 8.070552064258461
Na 4.609082762029915 13.43844898692984 5.729768738366861
Na 12.80495303226375 4.8450568156247344 7.5352898160794775
Na 9.542522041849889 3.3658326779042067 8.214341529190516
Na 7.36945519198026 11.475087148276769 4.105561814574324
Na 7.1564815715257515 8.312239572450956 5.6394216801534816
Na 6.117131160968658 8.545547817089282 2.084726162839665
Na 6.927952877722051 5.281328668829629 3.3651035264828044
Na 2.225336746470057 8.30865399801182 10.441623626277774
Na 4.136853129902482 0.7320610328854792 4.0119793539972415
Na 9.59260886943901 9.674157347658316 9.651867999118588
Na 12.72709845213279 7.296003650277857 4.831418122999013
Na 6.732724925381128 11.162060682027118 7.643870821817414
Na 8.375593938781668 7.762481129209078 12.626297253655899
Na 9.613179105582041 7.847769645515016 3.232092975157076
Na 4.551334358384782 2.9262271398747095 12.332107954566236
Na 10.80447425379656 6.0999732538989635 10.449965025754338
Na 2.6321437393072857 7.569851512233139 2.058942832127627
Na 4.472008940288972 5.104106361946588 9.552901784855846
Na 4.0794199600284236 6.606009819711434 4.913339018149972
Na 5.607089670408032 9.795025904106462 10.861105823320095
Na 6.830397166297341 5.05746219774007 6.838907544466811
Na 5.745831330135166 5.593131404974935 0.09214060222318428
Na 10.348539047996194 4.441612663893755 4.548229472682516
Na 0.907234316914778 5.20179591184723 4.521780068056623
Na 2.396790132966813 2.2797210766246887 9.366619448549411
