47
Energy = -50.98580376 eV
Na 3.0791290065113617 11.087334756289167 4.144296630288847
Na 5.296586303063231 9.275684851847814 1.7028027888124044
Na 5.42751251369339 5.7464128956335845 2.520358897007898
Na 8.934683778783887 10.664518109638294 1.9348485956971178
Na 8.436490516783236 7.205510970667405 0.6174477865949147
Na 2.0047157501367976 7.5375903449942845 3.302526338660018
Na 8.987264947896115 4.366851194917312 3.087008044063693
Na 5.9031956246755595 12.932863880127162 1.9362484204701806
Na 5.782603007302676 2.402651096219662 3.4865785259483864
Na 8.784970452836447 13.566284347393195 4.236423704229249
Na 4.747756090727549 8.054271299926071 5.148098684186902
Na 10.265154344694496 10.283743339585694 5.4141505303677055
Na 3.8378736528420236 4.75781262933126 6.179690960809869
Na 2.856736130919843 1.1408803445208766 5.374505233000991
Na 7.957665577362376 7.815218031522663 3.8887394544127964
Na 5.892757022594722 13.964178053982723 5.037984384608673
Na 2.3536980213562373 3.8909238983034395 3.0551092122575536
Na 8.83199498641553 1.4801114240723405 5.216047998191863
Na 11.322289923318156 7.306152620101819 3.293979483332414
Na 6.622800561078883 11.014083051232735 4.613182660763086
Na 4.196259957913329 13.981613092386386 8.220265671986077
Na 5.247998519535435 13.964178053982724 5.489470168206875
Na 0.5966862699117413 4.810660868406393 6.246363344264804
Na 7.443470620896764 8.995998921457737 7.204718954655404
Na 2.5935743746737736 2.2626462168128554 8.761558322063141
Na 7.140920779037325 5.041803010911718 6.103403973121561
Na 5.825030203129554 1.862283664042024 7.102039155149591
Na 9.94655241219242 6.7888777126445605 6.577646956408267
Na 11.504572444986245 3.932334184560242 5.852013087877391
Na 7.938167472606996 14.20471616534817 8.05810382208228
Na 7.9663899436613566 12.45718982062894 7.675229650762727
Na 13.189653278328992 7.21520292457478 6.596251187971658
Na 1.703455003535897 8.486156289568582 6.926983446318675
Na 4.736789455150882 7.447611369877913 8.502355263322924
Na 4.421534340564718 10.970956973734246 7.584887118287853
Na 8.889781651789903 3.0284394482049244 8.565709804091716
Na 10.270826453353271 9.273017150844426 9.213883060607797
Na 7.950269797018157 6.452300013051739 9.461191608208969
Na 5.339734045962968 4.216942872195601 9.620265118197143
Na 1.9680801967905321 5.839359780323221 9.631911385689172
Na 6.153897989711191 1.0086584184121925 10.690504222342323
Na 6.698601463150271 9.91718095314713 10.538346951506233
Na 11.331358891492487 5.676752731004178 9.634373641314845
Na 2.7997726204088424 9.352612045173942 10.626134673648211
Na 5.2939272248719895 6.911539668933248 12.015772407398542
Na 8.032699466137853 4.041460331908627 12.013964877219177
Na 9.036153887782586 7.663528189049636 12.43866077118145
