40
Energy = -41.63174024 eV
Na 1.8257098735438857 7.248664264932407 7.478472193997744
Na 3.779269481271051 7.12665967165676 10.128124602531146
Na 3.810791330279745 10.099052137976686 7.9924648607637625
Na 5.696327410076629 6.390540210279007 12.783143067968869
Na 5.817554351926313 9.723524340767316 10.826595383586769
Na 5.740092521061339 12.850937422442037 8.871735300196185
Na 2.7031641298579343 5.658749658433584 4.596112382636456
Na 2.0385574954254744 9.294672387952732 4.6501821946148505
Na 8.09187793439556 8.706753763113959 13.244604117528972
Na 5.3862056857102765 10.715204114200771 4.547429969263823
Na 8.178376942009722 12.190082299327182 11.159605038885038
Na 6.8678745568747575 13.538596135772957 5.670422424556196
Na 4.025053921630734 4.411841950393882 7.782318048056251
Na 4.486956545182638 2.6068728099201226 4.874304352819411
Na 5.8629954283166485 3.582806354333132 10.579043830994861
Na 9.004010034838698 5.082368127787651 12.540838309413893
Na 5.327600216373999 7.375777568684171 6.29574413311672
Na 7.276566932211938 6.561382135763188 9.539121403288215
Na 7.325854723806766 10.048288762500986 7.456232090445665
Na 10.522567901791907 11.00868159278476 13.224145544421228
Na 4.422561042179721 8.000174752757427 2.4765123505159568
Na 9.116531920664741 3.198743733611744 9.648558746175633
Na 7.38327513565301 4.207613905673845 6.705472243094481
Na 6.124191728884297 5.143424233653676 3.313333150565485
Na 9.594664527830744 9.144951117106372 10.03593446854355
Na 11.535527586715244 7.615701774111114 12.778425263726822
Na 9.439356097240879 12.928287783644528 7.792406550183653
Na 9.334828717495704 7.165503553802941 6.8440339904872625
Na 11.070635584121945 5.951552509978361 9.709722893601699
Na 7.7255363309770235 8.195586661286182 3.848317427894246
Na 9.252525380321353 11.22840546578614 4.605881537389952
Na 13.832852704787467 10.384263268866187 12.591661122925172
Na 11.833614671258392 11.99717629703048 10.051730968582898
Na 11.059499197770013 3.854450098238056 6.80769600891814
Na 9.509001736114715 5.150193943710452 3.9382790184237164
Na 13.24649061251825 8.69181845559654 9.697511283986936
Na 11.397200139840301 10.067351634219685 7.087253167940093
Na 11.298872766299203 8.254292516409288 3.991819130546892
Na 12.933509809242796 6.886616549821693 6.832612499675547
Na 12.957052998661341 4.977679208151792 3.9119474778367804
