41
Energy = -44.01174762 eV
Na 10.022497962600555 8.791586340086292 0.7724124131090637
Na 8.809585046312707 5.291900299980924 1.1680017591541598
Na 4.751814812274162 4.736627590424569 1.437119185701326
Na 2.294322423577299 7.829635163342183 1.900344591224054
Na 6.2012913181331895 7.996798210380855 2.0603678603169695
Na 12.283803246156653 6.479372309881497 2.184388232598103
Na 7.502220403457499 2.0928527654605893 2.491290949620048
Na 1.2163736677313088 4.656808309986904 3.3381715386914736
Na 8.020279443124416 10.791968933311134 3.682707933843165
Na 11.904405355693026 9.809757696595229 3.8011973844019407
Na 9.48755372725151 7.441286940793391 3.8719820900094337
Na 7.027050094486442 4.944141039957813 4.210230585695292
Na 3.9567697178136543 10.05490342313093 4.332449870155569
Na 3.9547976966629497 6.328448567191677 4.472381170247109
Na 10.454342255023372 3.842101286112302 4.331865252927008
Na 4.243730951585014 2.686826305800183 4.3981292693419345
Na 1.017468241073157 7.869799825180104 5.5080585809020945
Na 6.679772872810044 8.159088278647603 5.536408301603025
Na 12.20284759173955 6.738794863328304 6.020868672147453
Na 7.700663200346921 2.040584728074128 6.201536093253154
Na 6.0687191226950405 11.246239660641365 7.142452305671566
Na 9.708169744938436 9.71082181360788 6.743014893409518
Na 2.1778873089316435 4.469387638480234 6.906286873419187
Na 3.977624951627259 7.9041260140821885 7.567589015718214
Na 4.360662814287775 1.2671501532402665 7.531921612975961
Na 5.6815421192343285 4.791819185814586 7.623714997903729
Na 8.988234687965518 5.845473073444084 6.989358916319926
Na 10.538297723862469 3.175454971044626 8.290698859698072
Na 2.290708395423643 10.814949245821525 7.601674677876629
Na 1.6947816354144136 6.904252060129997 9.750476868561751
Na 7.248562057104667 8.148510448963789 8.883960975286453
Na 7.0929358321099025 1.9852869318240152 9.787966451854789
Na 8.498655694538865 11.103557480273546 10.033528339503906
Na 4.73897889631486 10.140495080238916 10.398051944246072
Na 4.96124356516861 6.590421138511986 10.916223887396873
Na 8.334888645168144 5.12768122623218 10.499047906331487
Na 3.547062163600504 3.526448325146514 10.216567749905268
Na 10.635260672798458 7.719171894056043 9.600348155652938
Na 7.711013316246393 8.277393013700623 12.30857260547448
Na 2.581298672375663 5.294089358489386 13.167603640509265
Na 5.987646559350825 3.9297530156006832 12.876792194352047
