40
Energy = -41.62261667 eV
Na 12.852656467744309 5.691157340663988 4.004540914747884
Na 13.803758634037992 3.9752754105541244 6.760968662829141
Na 9.602337514741215 6.3221184241103074 3.1725068876832427
Na 9.108825721052202 9.6234317784741 1.9918387044801187
Na 11.77172705119192 9.010737284726405 4.3196547101744605
Na 12.772945289027833 7.275740873182007 7.228752609749002
Na 10.411042672415409 4.517803586566832 6.332636139900486
Na 7.21791801613468 4.973992427998718 5.228008163094104
Na 13.751789360002213 5.470119670827024 10.098250453546996
Na 6.73141689063604 8.252214191797277 4.177310655947133
Na 9.164406638439244 11.082411193475222 5.251861775488567
Na 11.586125530651097 2.876028137676359 9.268810200107126
Na 9.249297638843212 7.778901912609339 6.651123771705543
Na 8.1690283992141 3.3402244777713137 8.979360790945659
Na 11.76460903502077 10.583950014240015 7.502581969048278
Na 5.110535682516745 3.524022796246152 7.340818125435872
Na 4.440325503948161 6.873288778317704 6.196495974477049
Na 6.399763767397574 11.498496454502122 3.0724784124035254
Na 12.55489866119665 8.66685723952942 10.569595781480741
Na 10.163354987962526 6.153929648716947 9.680521595366312
Na 6.46763861297443 6.548311697153581 8.999413833257451
Na 2.7814900849827207 5.380229816123672 8.968688366692309
Na 6.462112123796092 13.252866228983455 6.081248836350405
Na 1.3275893797558898 7.8696237710211285 7.229798177539124
Na 9.083365408578643 9.47006368891784 9.834898782224348
Na 11.48102733443616 12.034346326302968 10.579903447883948
Na 6.598319082205726 9.866784497871919 7.437347950299933
Na 3.861856941972432 10.318456035019977 5.296295735397387
Na 5.04682492746791 2.970089772909931 10.815345929068231
Na 8.997348722237259 12.729417627203189 8.370513601727184
Na 7.633379435838004 5.219693320945728 12.038864456790842
Na 9.711996504680334 7.827210204843545 12.862708936863752
Na 4.010602047363976 12.973243910719995 8.3781874291185
Na 11.898061278547603 10.463501954833859 13.660664754996978
Na 3.9147579017820937 9.08940094384009 9.534639981060788
Na 6.385768106568982 8.768008787818687 12.18969776063155
Na 8.623752699063912 11.298484124232624 12.872146584006146
Na 1.4182820781357763 11.063310074616675 7.63104283144851
Na 6.278030905523313 11.904931693624524 10.531060430296636
Na 4.251142869434517 6.280448311591589 11.883551876759935
