47
Energy = -50.81801878 eV
Na 3.545044225753217 7.652742301792147 5.8694905893436955
Na 7.46061775357094 3.1186950283904817 5.602501022502743
Na 9.035104915151543 0.7627486461754766 7.559399327299435
Na 9.141315188487637 9.621101284512614 7.938093785724947
Na 10.707525033912178 4.0744146154351855 7.278815661823065
Na 4.84623235349493 11.281996346936031 5.507636761273527
Na 10.451788387592954 2.7286115298990774 10.614527675601824
Na 6.253037092448626 12.054456805752311 8.813612970408101
Na 10.588417417314531 2.79707980102657 3.8376261977074755
Na 4.856497715759574 5.031092327507676 7.710046586579743
Na 4.2608740600358725 4.914930792634327 1.360406733549124
Na 7.4267650567958885 3.3591021224642263 9.25495250977203
Na 8.13095402290529 9.765421155589985 11.177976553458912
Na 2.6316560008573533 6.8255910186261355 9.616628815899894
Na 4.4078058130878 9.849661116368882 11.262545803633737
Na 9.412250568624062 6.019198840103953 4.4667713129987225
Na 2.9360429253356486 4.0089789746344 5.0156972997046125
Na 8.013020844036939 6.332691616974819 7.497464985542493
Na 1.566792766723671 3.3048176240519496 8.137415132233027
Na 7.756948930583095 3.8454164050300963 1.8462121544920915
Na 0.4039286022955435 6.568158649176125 6.701466425428931
Na 8.68248463649319 12.306636588483533 5.891840107797819
Na 1.3129899838843178 6.305717297122469 3.0594723886406308
Na 4.2188570374307615 3.376754059778392 10.833423472432342
Na 10.827339469056556 5.713135957181438 1.3403419132732595
Na 9.853225274687443 6.397341255698763 10.406258640985811
Na 4.273180985277106 8.675359131929394 2.6036569495418194
Na 5.862743804020605 5.737246253494346 4.248717564498116
Na 1.5501589696527696 2.6014867471431193 2.139741083586774
Na 10.529530329714573 9.303440244721694 4.232835177120061
Na 4.772322290383376 1.5369303833164303 7.353471747478433
Na 6.174342721942725 6.510925307863326 10.91244031200001
Na 11.808828934334743 7.582948773366159 7.340958705172606
Na 12.806464409632154 3.5138622450249555 4.997731291540804
Na 9.795595992003811 12.681259210537847 9.494462367371648
Na 7.601482809151884 3.800581836926796 12.68694793234465
Na 7.350026142895771 11.154702504652697 2.695786560894478
Na 1.1702291550523471 9.651301966627425 4.6234722087856985
Na 5.7101034454442186 8.73505839268066 8.323060411749466
Na 12.806464409632154 5.983143153789165 4.381574057657349
Na 7.169689951910403 8.817674098999124 5.120311119736163
Na 1.8355049300609965 0.7379309799918033 5.298998714308445
Na 12.086145430076884 11.249702858655281 7.003660760015625
Na 11.704335922373206 9.694752792706343 10.358526462662319
Na 2.5321313751688086 10.281474130044225 8.135106196631414
Na 4.920739004853915 1.7515682900485197 3.317267783549792
Na 7.6835756743728405 7.535081890222128 1.6835711193342715
