46
Energy = -49.58233505 eV
Na 7.609253549069152 5.30849490905849 0.12057401870887302
Na 10.278925858419377 7.429687321061522 1.475842439344453
Na 7.031722390755896 8.96980148033602 0.9649324576583389
Na 4.434383215800212 6.399467662667106 1.8345028839325772
Na 9.806554782008755 3.7949751026787193 2.6449620013499398
Na 6.060853886578931 3.229514652834318 2.8744374960504597
Na 6.482875253175373 12.138862700594855 3.0059929852633895
Na 7.625493739642261 6.512926465981288 3.4237530287553213
Na 9.13241650031882 9.777537768890776 4.248657099393041
Na 4.575684882678975 0.03667731257469605 3.9459315621713156
Na 3.597172156751291 10.018588090844467 1.6256948817610344
Na 2.5114396727076347 3.2891473666221454 4.924207384219117
Na 8.371696408241277 0.8677379256534096 4.51502039514024
Na 10.858715581230966 6.751177881247815 5.180719156708813
Na 5.534174429775887 9.022743740759337 4.233281710979637
Na 4.774431850602468 5.782479842165139 5.7915944446751295
Na 5.743688813421147 14.506832087347867 5.942403160361813
Na 2.1573034997854186 7.781078349446279 4.24337282065067
Na 8.295960248284455 4.213221821051836 5.712705583527329
Na 9.033432602591528 13.561660745640362 4.841677518634763
Na 5.541346315878472 2.2324510686234587 6.360085397186921
Na 11.660963424249971 3.278513870852844 5.999175253330084
Na 3.4291212243834512 11.919148294250261 4.854644230510504
Na 2.9574315765630095 0.19039752339948687 7.289565626665689
Na 3.8815596788997166 9.377790274247355 7.167131233074687
Na 6.927706669684921 11.2979273246691 6.67470909506396
Na 4.023471350443251 12.726168101134814 8.524495093134952
Na 13.26667395728995 6.518020727123108 7.843554085527697
Na 1.5458693788626252 6.633272594510547 7.722094141671152
Na 10.146885040926737 5.310926801786782 8.48498086676029
Na 7.419008442596485 7.697745187030577 7.048772730725276
Na 6.350094896399455 14.506832087347863 6.901896939844749
Na 6.724522789569874 4.447051338267711 8.759413218969142
Na 8.941198754618613 1.6606006833858933 8.069013154303786
Na 2.4324053366733156 9.664980607717437 10.316481954868463
Na 10.30211403671928 9.092240928485241 8.182841000677115
Na 4.607369455715258 6.961224378672736 9.434299012558107
Na 3.085433841320876 3.595202203369244 8.777126787921548
Na 6.140632833384737 10.158823823088861 9.974569056056307
Na 11.52905043751761 7.033919142123 11.0991821368276
Na 1.8775189046254708 6.124729812710857 11.369838619922636
Na 8.838974878988353 3.772792197508386 11.376543373580738
Na 5.65294305163788 1.2670209811255593 9.800059180147477
Na 7.977613678423306 7.217201330926455 10.86879049584757
Na 5.171422918454625 4.459408732019534 11.870889901011466
Na 4.703257713706419 8.055660905615468 12.730354293897895
