45
Energy = -48.49060199 eV
Na 5.728654422415179 0.2417825225305999 5.69329582208936
Na 6.678600162444523 3.272208979706443 11.540671745638658
Na 12.507101417963934 4.655458084276404 11.00982257285866
Na 4.168168091943642 1.932397239360656 8.774872298705464
Na 3.785771853070204 8.447466298005649 3.615548548857384
Na 1.1447384374193519 7.6919810705235845 8.78255520723514
Na 10.2905579445702 7.988351120590149 11.009207608707772
Na 4.702426681693041 11.728560252523634 4.0512257729246866
Na 6.359043634034434 5.932901709563172 3.987559282760058
Na 3.562549857281002 10.17989656755876 0.5776094051634557
Na 12.072649284481525 8.117252967933414 4.851236920045249
Na 7.9639924324015725 12.479137019173285 5.538192705171496
Na 11.151125788280766 3.0751405012336352 7.72515804341261
Na 1.7579165678263184 4.491080810656535 7.21062539045823
Na 9.294950612863337 4.9960258346770905 9.820904167768731
Na 9.111097580473631 6.287838628552585 6.27656154082045
Na 6.796947163340417 9.422060563409442 1.8870083303086842
Na 6.7656517466512005 6.891971939116734 11.95084144560778
Na 4.1890110901961775 9.052969649380156 10.134629746487963
Na 8.22359932223656 2.9180585854858387 5.14469016451079
Na 0.7136121027641859 7.657759668101362 5.1224300120386435
Na 7.8218354276396544 1.5918485474988868 8.461461606902176
Na 11.315491012638384 4.560725552812858 4.216223618468211
Na 2.331248739544076 1.4559192470364941 5.038056512023585
Na 9.96250863863488 9.780385180377655 7.469523629227786
Na 10.186815083795032 1.920790088974782 11.209880276966704
Na 5.728030988515909 11.283214655110209 7.892236202625727
Na 4.791593181962659 3.5402287341786414 5.818611693208272
Na 5.206654422489063 2.523079252642712 2.610003700377159
Na 1.2333577377575307 7.620008501170558 1.3885355955334826
Na 9.621697045196832 4.923545403668675 13.262214044895739
Na 8.290201702074008 4.0378051352216495 1.6610785127125929
Na 3.7908024977376735 5.405450257559124 10.25752577581018
Na 2.5463578262743463 10.394837199221747 6.770679154424378
Na 4.19817642426524 7.138818525660578 6.843112406079567
Na 9.472531741992029 7.187178161656073 2.5276457833768573
Na 12.083150993997997 6.6029991552428005 8.044467388634052
Na 9.900163413007714 10.485375380103472 3.477170973081043
Na 7.0119753291491795 9.099375655688148 5.35502821609225
Na 1.2116845367875821 10.790876022935585 3.2328003353611336
Na 7.620244321517759 10.48977415005123 10.991606129182248
Na 6.483849623778044 4.769738141810456 8.18642286771921
Na 4.820457667373241 6.450376270405317 0.8282329387722772
Na 2.6599865399972735 5.026788475723963 3.57431875564607
Na 7.289162569702562 8.006705953067486 8.72466081148719
