43
Energy = -44.59457726 eV
Na 8.789774351841624 8.151431213032186 0.06949329080331632
Na 10.35925775706931 9.520660629866121 3.0320719034052357
Na 10.533350191626948 6.103181396365959 2.2746221745979933
Na 12.38524128426916 3.8438935823059426 3.8789531949188207
Na 11.65515659854765 12.561194118465908 4.11373463091519
Na 7.077292339436036 6.022257219669893 2.3009470212032372
Na 6.768043735427549 9.612954507045083 2.5073535337507846
Na 11.23989878823542 10.056600289883331 6.606650589463947
Na 9.100181401969524 4.302835963195039 5.091526305238058
Na 11.58336732254062 6.924572560561516 5.4041630246739745
Na 8.310571079621106 11.790416925715874 4.814509019638551
Na 11.999514185965152 3.885924623092502 7.177396349867222
Na 8.005307798452387 7.765404406603937 5.305763074014325
Na 10.381594422887797 13.266733362432749 7.1734012393958055
Na 4.520931236240477 7.4672129835982135 4.221126409655745
Na 12.549086137975788 7.651915222017301 8.618417791833817
Na 5.728518435142119 4.286151082635541 4.823800425501022
Na 9.622234836641287 2.760542060091776 9.499228758118614
Na 7.992351304839947 10.076360257719184 7.977447973123191
Na 9.24155577674905 6.248465062686823 8.196606396118558
Na 12.722884263829137 4.661522338503555 10.382183963271252
Na 10.668892197403169 10.698219940399651 10.03145380276845
Na 5.270619398264871 10.66476617072644 5.665457462348659
Na 5.714352510922227 7.308909395524008 7.9146549275463185
Na 6.521207428668442 13.246524595704653 7.693719023489698
Na 10.43534777513443 3.984501673490324 12.823194221852749
Na 6.63418670638622 3.585319242764339 8.024536687461048
Na 9.040218483462075 14.347165543064362 9.959107975143722
Na 2.5288974551484644 8.816053240981125 6.508080764618945
Na 10.582578819328662 7.218262465377317 11.313336953874016
Na 3.2260906534497775 5.099836906895462 6.953649535123456
Na 7.257828680489171 8.374516767687453 10.913962616256866
Na 9.847238969000989 9.953727111079004 13.335814636321073
Na 7.565355642425583 4.9587147071358215 11.099653850520388
Na 4.570719827516472 10.59790483858916 9.101183252834058
Na 7.313714662665961 11.778461792483046 11.208701901221966
Na 2.4000985648344444 7.677029500371714 9.584563339768236
Na 8.618032328618707 6.746078469897312 14.096234342902571
Na 4.182086607764023 4.776437999535573 10.31570649869386
Na 6.572448261185022 9.895558790982738 14.074914787607659
Na 3.790177289525679 9.441858025085168 12.28188770201193
Na 5.321422055612357 6.525027542360668 13.283328333746024
Na 1.9169866783712162 6.363463543862961 12.67809390542416
