40
Energy = -42.2515705 eV
Na 4.4125436001529765 4.395769378253267 0.18193264930822012
Na 6.92794508264982 7.649071128937557 0.5104182144396655
Na 10.504375738670166 7.052827941130562 1.8706407746174865
Na 7.874683771122683 4.1683142455199995 1.9128346764813455
Na 8.957028788814126 10.519110941423396 2.9480038258484687
Na 4.6155251614736414 6.25679566292845 2.842892309567571
Na 1.5947191953520266 4.586197916797147 2.8683163795060893
Na 5.246055924875538 9.833512727402272 3.32188471708979
Na 4.8338010326890775 2.3270879791638714 3.268218584144361
Na 7.9283904790200825 7.265554700952705 3.8155905891839454
Na 1.9691452813977026 7.949249064332961 4.719263020675903
Na 6.834905377961814 12.81242638484338 5.117003249260682
Na 10.503245243242967 4.6647537428654005 4.839683882015347
Na 8.51406607947564 1.4159742174129082 4.744422761723462
Na 6.794941626864809 4.319216770617467 5.204214920952827
Na 11.077277072117136 8.462178519779524 5.531939931688962
Na 10.17510789527318 12.052600845448053 6.446691770321501
Na 3.308012530140311 4.293936753313447 5.931484902391104
Na 7.668493496476085 9.817557006637502 6.153514270291478
Na 5.231580280413726 7.376762930888994 5.873166111313929
Na 2.8650720478491865 7.291167603603336 8.15054740785225
Na 0.1304686111351872 5.556508746385907 6.9526116931570465
Na 8.590319279947956 6.6548945425280515 7.168634020257528
Na 5.708238218834402 1.6474546487023403 7.235883919445438
Na 8.915083321507254 3.408874974456028 7.846556412965109
Na 9.850620461268791 0.3407112275453695 8.05510716883124
Na 11.651574020184954 5.700406500324773 8.421283958411367
Na 4.0086790445900355 10.55696490519802 6.803526675565295
Na 5.75154526522133 4.950701425399254 8.45453186077431
Na 9.85910213148108 9.294283813893886 9.063101160445648
Na 0.7640586168343169 6.744973828807637 10.54434377188399
Na 6.1638161100601945 8.365996774595095 8.955905928006677
Na 10.648001560386126 2.816239503782062 10.683450247058705
Na 6.887160379614134 11.836967727579102 8.900120848354787
Na 2.76387581399804 3.709866087463688 9.457544903746546
Na 8.522020103533542 5.91643851324395 10.685173392453622
Na 6.871141353720663 2.624394347816735 10.697362433492298
Na 3.4179723876817683 9.835013146965276 10.526562838164148
Na 4.639256682966305 6.255408089538401 11.43249956223932
Na 7.051266230111685 9.304950032633059 11.894249555183006
