48
Energy = -50.56351644 eV
Na 13.003404346434912 7.480694051058543 1.5949505804221444
Na 12.175532022758649 5.500991402087507 4.4880670287292705
Na 9.576742794089451 6.366060982514464 2.2338548011897355
Na 13.030773903063443 8.928091536253808 4.80129475762952
Na 8.860944080275178 3.9702002044255233 4.633185809586945
Na 10.405548750680143 9.7322722156304 2.5381000992562632
Na 11.484647215541196 3.544515776880293 7.169968635456368
Na 6.19985340890268 5.480624313759827 2.7258097928533243
Na 8.692752886630688 1.3376584572082995 6.914047379365715
Na 12.604181644985585 7.124963241265588 7.773166382160533
Na 9.4090104228989 7.375253209271186 5.951980661905871
Na 7.1124997594775925 8.69133245164464 3.3668262837656613
Na 5.610459252517899 2.8139026947995878 5.881579129135689
Na 10.267463144328682 11.024801184565307 5.723018027002423
Na 12.933435073146342 4.626348761949405 10.095470686235533
Na 7.685301519000854 4.680318338525314 7.801442298897787
Na 3.7077542981655145 8.106429095178617 3.7173199948336477
Na 9.542370724676953 2.6897183289663813 10.092127839700888
Na 7.893032461854229 11.977437688320405 3.3945466787571807
Na 9.795024768249538 6.205542945104466 9.639396507636757
Na 5.753589716564454 6.758611453722318 6.140658320760138
Na 3.2510319149016667 4.629544787691694 4.305512722026233
Na 12.98882486127918 10.74374399464953 7.726771070780042
Na 6.076001677308935 1.8610974056242007 9.326019844614155
Na 1.9160026529132292 6.573181760021778 6.708481549254378
Na 6.997111433374516 10.02308313043474 6.6767181042072625
Na 10.58022325155646 4.6741260063572385 12.720725496056508
Na 9.801578747289305 9.435234561938307 8.962996207769077
Na 7.576832622426291 13.499015429700002 6.359122890282462
Na 3.5689727119900665 9.450316184319899 7.383963440079836
Na 6.862427865890101 4.622313485686299 11.319767087588804
Na 10.247235708159796 12.9254582174007 8.546477968409064
Na 6.343301241183172 7.887340232768178 9.613685984183222
Na 12.52608559233295 11.314158110421674 11.0103371458182
Na 12.067467041238002 7.874015131095624 11.578354338619544
Na 4.231635598575255 4.7640184272897255 8.826028880039841
Na 4.6988448605229785 12.591169419141739 8.103104187040158
Na 2.0571530800180584 7.310277630551945 10.059728126067709
Na 8.420670464403319 7.309535303666909 12.771959298542336
Na 7.229911159297556 11.346862000867597 10.330518931958578
Na 7.30793468597406 14.722366247809818 9.654159969686463
Na 4.580977099008647 6.904958678364521 12.591929649376283
Na 3.807788537738174 10.153095966195199 10.818654301234025
Na 10.114702355657698 13.804816053403677 11.842998889635354
Na 9.57821301268879 10.44063529137221 12.748754367143267
Na 6.143259493299034 9.856331601837976 13.384659874364973
Na 4.510568252031812 13.480302249665089 11.483165919275935
Na 7.287270225798671 13.085103876320941 13.57232064472944
