42
Energy = -45.08160609 eV
Na 8.542400269127553 7.9135097959846075 1.0470457063607101
Na 5.304446238789712 9.075600862445809 1.8992326132546982
Na 3.4729341765803134 2.8823633909708324 0.866763680466625
Na 6.063977944704805 5.536692265648572 1.7927789517324035
Na 2.474631308169915 6.252898399523124 2.0820932109845507
Na 8.800813723422268 10.862717850594832 3.179856167812794
Na 9.465740233371077 4.887334083649184 2.8722061211821117
Na 11.287882865770639 7.891223190286988 3.219015907725036
Na 6.715821887358859 2.072068776302472 2.819912841269277
Na 8.201950030512933 8.064679751188116 4.967370012706139
Na 2.244083581995329 9.3297592848878 4.290087013786602
Na 0.7534291988926156 2.946462386297307 3.2639184636631358
Na 4.749355436779537 7.223668462193076 4.860335484773404
Na 3.3354758098537025 0.46929650595518363 3.6498319971662387
Na 5.522324456257608 10.793976779312066 4.966291053426045
Na 3.9555480106199736 3.7904522549707464 4.153730646983665
Na 7.155221452858367 4.702738104076124 5.429993455940403
Na 1.3089927234855905 5.7925299714082845 5.651752071475608
Na 9.37784235299463 2.218835614195601 5.442333351676168
Na 10.568486365957812 5.819334507388808 6.594450338884387
Na 11.323357993940842 9.822291517557211 6.096299658911618
Na 2.1313443034078032 2.19693254405886 6.706833836849144
Na 8.318031322118452 11.488641372453712 6.969192450177623
Na 5.794158399325344 1.5058889415448253 6.455235346846246
Na 6.13314684308135 8.592597687043407 8.03905826784654
Na 8.436408714236345 2.4121253827537927 8.882191902487206
Na 7.496742083522792 5.586346078657274 8.805656097219495
Na 4.783329433177882 11.745770987947859 8.318707934882728
Na 9.491932123064458 8.538769801918756 8.751324784112567
Na 2.6917161215503085 8.252962477528573 8.009292035997378
Na 12.843249676108726 8.225126801009392 9.073581736901195
Na 11.303436276343652 11.53404960216104 9.28697778884362
Na 4.3302709295591875 4.989431124835337 7.472677860399566
Na 1.5125346045226291 4.7748177254338495 9.294937272123073
Na 10.50675839520914 5.596739628527307 10.517454844695326
Na 4.714607176615162 2.5387680967786936 9.791194929550139
Na 7.884593178878168 11.059243592052681 10.59542265056462
Na 7.404648344815325 4.033695497398333 11.966103859032343
Na 4.505217961442069 9.55162843419561 11.138985173473634
Na 7.6001549030658015 7.669116764089273 11.7903189057873
Na 10.862550149752837 9.176986721775274 11.977963977185826
Na 4.511166717142198 6.062640701383993 10.892303313226884
