47
Energy = -50.92985247 eV
Na 9.163042976734559 5.7514401809786335 2.0420596993344597
Na 6.495086538880298 3.2645884966967533 1.890902125646396
Na 5.338073210492875 7.211322268530471 1.8983732069452575
Na 7.678799255041566 14.394267840913432 3.4551910313709366
Na 1.4883680480137038 7.5090226290206035 2.6629458911257875
Na 9.917714866934164 1.9740131247091512 1.3941412714282266
Na 5.695284555061176 10.227095098783565 5.9735426397279126
Na 8.344465495067128 9.20514662839638 3.766763739283107
Na 4.061655855527111 0.6692571624859225 2.942181799712775
Na 10.610593971904873 6.233298836371723 5.2533118750300805
Na 3.7812599381026075 10.324516942933347 3.018583353319421
Na 6.801423194021472 6.0346512949626225 4.7383999532921806
Na 3.0466646478222734 12.759327581591062 5.734870731800424
Na 12.28969790137113 3.6519160333984626 3.533739563924914
Na 5.845826060791821 2.4165200099617388 5.307338756088568
Na 11.114482447667044 0.30667594611603183 4.617131773505165
Na 3.353018856870944 4.33700068835475 3.4559847608282857
Na 3.6713709150883216 7.495413729517755 5.225217952479542
Na 0.8286205897410838 5.472258828681086 5.905543097978609
Na 5.318545591398533 13.590914559544917 6.111426557812548
Na 6.502806592515523 12.889481220524157 4.128387875467063
Na 1.1927294713529046 9.655841242520957 5.83618548747673
Na 9.066524394697938 3.144480752786492 4.504283448958103
Na 4.075249528521004 4.672481791070822 7.106873428064764
Na 8.464083120098241 0.7001379801296398 7.1523116510567775
Na 8.989701801769996 11.824326702555547 6.654670164172092
Na 2.4489348348182047 1.722794843524068 6.120557446221076
Na 7.827451669563993 4.636454186166702 7.671614205293875
Na 11.729279233209411 9.349343388048686 6.392593114479449
Na 8.605070645322854 8.258150827606563 7.151077714084214
Na 11.225197679189925 3.100733936712797 7.232165659030606
Na 5.841326844003081 13.590914559544917 7.743233186015595
Na 5.455972340720723 7.564367751078074 8.240972866373273
Na 3.29076672305402 10.757589073939327 8.639810269392767
Na 1.8102088105578797 3.49430134699161 9.319800203977744
Na 5.388512638747653 1.8054099003282353 8.832496481032937
Na 2.1235606827705107 7.202442316685832 8.873037594711047
Na 6.902353623647127 10.507562448973086 9.278191496263437
Na 11.126793323971622 6.344765146219094 8.851450119212421
Na 5.07028475776675 4.9572190161368175 10.588429305371587
Na 8.82525654198295 3.2011762925159073 10.385878302356387
Na 10.385965201648778 9.970427242108983 9.765688347986421
Na 8.64003597519216 13.282781937362936 10.168485737305245
Na 8.071731525648328 7.1308498193731085 10.68230421155659
Na 5.117814790673162 12.563034271530341 11.329350358456582
Na 4.6601185718927045 8.826733295427893 11.459628179343753
Na 7.876970046074727 10.506478969927743 12.52156965164954
