42
Energy = -43.64900767 eV
Na 8.24786659802555 1.9309447670537276 9.97210905292078
Na 11.419127787035425 3.2348312639416408 9.82958343645389
Na 14.749604244278226 4.618898656371486 9.578136101585809
Na 5.521720129663166 3.8335334881009273 10.822434625205709
Na 2.8272515263563944 3.3919843061370396 8.645913070023825
Na 9.173655834634289 4.410661581991475 7.4241645096647995
Na 8.798946120838401 5.45350125066847 10.93099493769264
Na 12.552405170610976 5.071317913432138 6.984939236382077
Na 12.285926287883921 6.31989880804924 11.247625394654712
Na 5.820742905447432 7.088653503020833 12.039137795488637
Na 6.00737755100546 2.982338121280924 7.378611010007603
Na 10.715549944993324 5.097477465248242 4.145168016344572
Na 7.3395771187040335 4.164556477685614 4.527454661618243
Na 3.305901782161443 6.617120378420914 9.844227918548322
Na 8.228102913764614 5.92616195704246 1.599733164274536
Na 6.583363845692576 6.611781945785283 8.349817687408434
Na 13.76300335006361 8.096818101108616 8.463437131712652
Na 10.458193307196458 7.904759730003776 13.556095059982487
Na 0.5122046774598962 5.855523605505354 7.907593091118691
Na 10.180451721091966 7.558568586961057 8.441958817380089
Na 8.278555838231284 9.10086399813906 10.977862570765778
Na 3.784295699077449 5.72935373598722 6.2220631847999535
Na 11.80816180549921 9.81613218340657 10.843685527379646
Na 9.741441335982854 11.24933513756162 13.426221474063993
Na 5.2815312146566 6.693326380342581 3.338626551217293
Na 8.366909610702871 7.505774653983404 5.266852279897016
Na 11.970337908810844 8.262272019400253 5.369869961474769
Na 4.991763742870485 9.69740318230583 9.65585854601209
Na 1.9233662893155312 8.938053328286193 7.618907656981946
Na 6.583463730778346 11.964958493908926 12.359744205326786
Na 7.852207591382082 10.104299135489013 7.696000081335431
Na 10.502213811495617 8.576724964349744 2.2377166313020678
Na 5.121824909868241 8.924551612668887 6.008138638812651
Na 11.344364667954636 10.886997459475795 7.631717202489943
Na 9.397257370547642 12.444533861323615 10.122635994643334
Na 6.961024409243337 9.576151031313053 2.6875982593817853
Na 9.619724584824587 10.910776944199146 4.637048321139625
Na 6.009477831458573 13.100719319681806 9.248022319797474
Na 3.451010749167962 11.896090839679871 7.128212961874287
Na 6.163016456688058 12.0617856577839 4.8434726250166245
Na 8.674338455274711 13.396875028910118 6.871343186805998
Na 5.168882604757986 14.940591604904547 6.468232370188883
