42
Energy = -45.18549514 eV
Na 4.166098580266071 5.809241877046373 1.0537718294777736
Na 6.330774279596993 9.089088597246045 1.2835017031567848
Na 2.6920133689703825 9.587891712848904 1.5639584948154572
Na 6.705250531644006 2.4021439309985513 2.087601257691723
Na 7.421677174230877 5.875897139185935 2.7758208109584572
Na 10.239759864378252 8.145029137164018 2.6066898015884696
Na 8.468779527238318 11.767058208728407 2.759672898460596
Na 1.223420473274942 6.312078457375219 3.8068479896027076
Na 4.189189371118651 4.15163899986201 4.1577090168542465
Na 4.429994836074214 7.822980676237502 3.9061608019038454
Na 4.836237797194033 11.301018192635906 3.914402887481946
Na 10.22350463205727 3.564194123950612 3.1202973500754125
Na 5.106378609352752 0.826675516658685 5.144170527376716
Na 7.6863751066812025 9.034026956305588 4.763559210436821
Na 7.559999934356935 3.263652888863472 5.329877674287344
Na 10.6799388812157 10.722734124993371 5.3879405616748235
Na 8.829064376766178 0.299802298464205 4.474055327080197
Na 1.8040092525599263 9.558687332599503 5.648533859418052
Na 6.401983396388274 6.251112708206224 6.1544738681295055
Na 10.043043442004288 6.153197953288462 5.701830726856967
Na 7.383726682341153 12.149800483216804 6.268544316220432
Na 10.628888367123425 2.584216620390893 6.965322804702835
Na 4.73055045215754 3.3256107347353234 7.693340834874185
Na 7.453256905965307 1.003304930374627 8.132163688445035
Na 3.0897911988731046 6.47996243537846 6.8300738338261295
Na 1.4353042977687855 3.4615250560788193 6.467294259496897
Na 5.131794342947083 9.573320682253659 7.272252436376705
Na 8.063344856980839 4.466740214487454 8.564126720725564
Na 11.962338499056765 8.550812844426426 7.860487057249455
Na 8.493691814694628 8.160164505830004 8.212232434464712
Na 2.540792006001176 8.651941559630647 9.647207039470306
Na 5.406763096064421 6.574817460319947 9.411581913312853
Na 11.962338499056765 6.845196859814255 7.540936688145441
Na 9.693715610672838 11.379350627291378 8.827727675272811
Na 11.159173347426554 5.565506952887571 9.437476023485905
Na 5.6928803073614835 3.357430632535335 11.067545770222953
Na 2.240927625175652 4.96214050193546 9.926065953937242
Na 9.66598875354314 2.739546324956675 11.057667703333356
Na 6.508950265462369 9.61840080869792 10.764226998116643
Na 8.075076825668953 6.081524998054614 11.762004557188165
Na 10.441437453936416 8.80579582568896 11.106903984916698
Na 4.358180976511542 6.771995614729658 12.591198215261352
