49
Energy = -52.93042766 eV
Na 9.294618107338428 6.343932478252584 3.431669728022514
Na 6.475573364195417 4.116177495441447 2.6057667916179494
Na 9.464059641827681 9.811542623082026 2.67766920167872
Na 6.361386791968597 8.020963917308123 1.732985045267167
Na 6.725731357964618 0.7749151642470197 4.35736766167361
Na 3.5576166087896945 2.348452159078197 4.078214351800116
Na 3.642839176168843 9.53501239937541 3.8894201644093935
Na 3.53297275981477 5.823833455767333 3.6170455563528536
Na 10.701979118221242 12.002385283116565 5.3310867897780305
Na 12.372394130872705 4.966218863591768 4.67949843591417
Na 9.440669729683085 2.967108949866525 4.768630097422245
Na 11.928620014838126 8.634165361294224 5.058927366910755
Na 6.683429787224682 11.287566998483394 3.91698502542607
Na 6.385822590269508 7.2813678162084035 5.0330450831935805
Na 7.5999604349006695 13.136131343705681 6.886291341852707
Na 6.210576654720853 3.8292297668787167 6.1253939301489835
Na 4.515175611053031 0.8132746393435812 7.2025997567568
Na 8.706463193828279 9.407841272469735 6.466641812773424
Na 13.87672975866092 11.356202709285306 7.407584446763758
Na 13.634925521161303 6.778371320827067 7.454560826752479
Na 3.101053821389838 7.476567803403438 6.866850270012191
Na 5.484198023614187 10.023335877354633 7.166459224074317
Na 3.887027658184536 12.718646480913552 5.798988228540359
Na 11.480440628012426 3.179145526961496 7.863463661776766
Na 2.811362960164078 3.9997757579562343 7.307003890703345
Na 8.114461113063296 1.37565416512646 7.835139758251509
Na 9.663732838237669 6.051663201551764 7.013783546985167
Na 6.117067762725614 6.364068791846245 8.427866507254173
Na 14.369365213067047 8.848113921800307 10.329409890724872
Na 2.5909138127505305 10.070373947440373 9.499742653657368
Na 11.396892079433462 9.471215497120701 8.611139902924778
Na 8.411085716851185 11.13945924006808 9.774680793978614
Na 13.015850173925783 12.057746137021224 10.967733754425984
Na 10.947789813279813 13.430206263308774 8.576164836721336
Na 5.009669499006734 12.78756566740506 9.275650742005165
Na 7.982921995426313 14.603621851504917 10.365835415730318
Na 8.79003106590618 7.6833237312280245 10.129292364251725
Na 5.263576269568774 3.1365685752287895 9.85702838819869
Na 3.0671415502367703 6.381912220444325 10.345049436882121
Na 8.654896971041426 4.094069193494864 10.063563026426543
Na 3.822876090441272 8.899769900056373 13.173031509490663
Na 11.845742277801497 6.048606109944454 10.326818855149046
Na 11.254449141092339 9.217446631058081 12.26191613219751
Na 5.662748937912906 9.158271826328168 10.456210810589988
Na 6.133397963498022 5.956414366090204 12.181680315640218
Na 7.778945147980405 9.12911197434794 13.346480948422867
Na 6.073608538182201 12.114241141789256 12.562488961239369
Na 9.83192972278832 12.487767739146163 12.656095584611686
Na 9.601553525330829 5.967683913918047 13.176892455585966
