48
Energy = -52.15510109 eV
Na 4.243112503302258 7.303768819193929 1.0631599040722957
Na 8.0496053291654 6.4601356327445005 1.1853453959603997
Na 2.0017294633988336 4.474450357364485 1.0725957173746605
Na 5.537768714716465 3.9384610076578936 2.296531267683746
Na 8.963050674439044 2.8278928115388497 1.4993501109239267
Na 3.146938855559913 10.900077446906973 1.128285697210912
Na 0.7977423349973357 7.843916358393166 2.113908653814627
Na 9.530765144100862 8.386908191164665 4.064106669416185
Na 11.393637179504847 5.516950458542682 2.40809085024486
Na 6.693345832859871 9.98588122354905 2.3464150550856036
Na 6.108455957318339 7.026225118268866 4.153309731710457
Na 6.954119423095753 1.4904954817519545 4.834525927717453
Na 2.944351539753684 5.749399599588983 4.178262623543348
Na 8.559804676452726 4.6418232571881965 4.279768466112372
Na 13.3857570911006 4.665530921110462 3.823954626950162
Na 2.7983851855793516 2.353962975425883 4.084743540836109
Na 11.192891109186325 2.505882336915381 4.625178791710696
Na 11.54485145129818 5.851323923418388 6.113420153086864
Na 4.9161172967262905 12.405358652225969 4.086710102061276
Na 10.499527997166595 9.256833962749512 7.5195921159720225
Na 3.421262159917475 9.219530492534824 4.088648752171914
Na 8.041582449836662 6.718310415512489 6.889671891190158
Na 8.645317021533401 12.000249493940297 5.147806799712287
Na 6.474164763305398 9.813737787484442 6.3984577899348904
Na 0.6103824607156321 7.64497331743337 5.848766063912161
Na 5.373025299316399 4.033252826971846 6.381861323358222
Na 5.6015271883853615 13.025550656747763 7.46543149157836
Na 1.4231795309984319 4.237139065291091 7.061837321551268
Na 9.133212099809663 3.193646733767902 7.470307426547715
Na 3.5123010807248685 1.1858442393273674 7.375234741179307
Na 4.390378298716742 7.179818364674682 7.504803312557974
Na 8.462857690213946 11.701712660991666 9.011071248037709
Na 12.54913014749535 3.756294136810164 8.973111202616371
Na 1.6908802242207124 7.3416460926904765 9.424784757868673
Na 13.3857570911006 7.2753423058122495 9.26477561482687
Na 10.187322026673113 6.118378908426741 9.525935231029706
Na 4.796622808519956 10.237760902019103 9.883048827407539
Na 2.7109187683839338 10.480893500027165 7.189033620456137
Na 6.829260108060667 5.0094505149613235 9.600545552717517
Na 3.440080991618789 3.868679898857969 9.86968442104429
Na 7.626190555383018 8.445432880374803 9.889339393406367
Na 6.488942157222392 1.6229851807258702 9.255166749846778
Na 4.812179787988433 6.912621013182226 11.58132271288711
Na 12.018562622354729 5.59125034393209 12.302673293515769
Na 10.923723042948415 9.057674088493068 11.284162234013191
Na 9.46220371526584 3.020531644853933 11.289401327395051
Na 8.45257306380337 6.351665511537831 12.647620297883519
Na 6.023734567965267 3.4134872627284505 12.541379975675014
