47
Energy = -50.82262673 eV
Na 8.156259643991259 5.356253803183001 0.5977198420673209
Na 4.4631438674255985 5.818367407227336 13.442055534059763
Na 5.259653616317608 2.623483642290134 1.4971503939759907
Na 6.489901507145893 8.543692407973026 1.1511365376691247
Na 11.295200855112435 4.7618312974118036 2.4539597020264696
Na 10.78032050915525 8.216269446367326 1.4335076948379522
Na 4.693937434142247 11.564104910005826 3.520012247431021
Na 3.08395152651338 8.16634277452034 2.5358402546041727
Na 5.6922872756654606 5.743507574541747 3.0008005553046493
Na 8.239209433903708 3.361495281326066 3.8901859828331244
Na 2.316453709344662 4.451744627790007 2.7218714499126455
Na 2.2073774547157465 1.0623995672674988 3.9740175817724386
Na 8.46595609830743 10.716208135292153 2.8747149692128007
Na 8.970302326816508 7.118016704539444 3.9385218965735582
Na 12.65472785898896 6.954433441738295 4.730359347391899
Na 4.79148923341205 2.92510338222124 5.131001914500229
Na 2.373598962288986 9.668962257877805 5.979727984595903
Na 4.348255475795808 12.321217673652246 7.182930258708498
Na 7.783666806377207 11.857104579233411 6.141436040156582
Na 0.19056522596098732 6.785853021073578 4.741754888358329
Na 3.4405940990271087 6.297914607694444 5.596736748077077
Na 5.965613593997011 8.877793158326138 4.977681435351574
Na 10.962506027910209 10.014235750334846 5.163078843313546
Na 5.055143011652324 7.943722283293029 8.389584755938488
Na 12.166080952111258 8.042831228139303 8.163933337980643
Na 6.840969617028863 5.62105394570405 6.307183499970827
Na 10.313730587874227 5.018331490363888 6.754783542561549
Na 1.2684163498665495 3.5952505210793215 6.357183709367405
Na 4.405910579582353 4.39232279791417 8.580704700120734
Na 8.695954948369085 8.453971256313334 7.415020441171267
Na 10.502207100538989 11.26253597736186 8.53084217396078
Na 13.762232585342478 4.989745665208646 7.599073674115516
Na 6.825309313775594 10.870796852981107 9.528334738177689
Na 7.44043815657796 2.460722231840306 7.785471649012528
Na 1.2776881816712238 6.732222510771928 8.260560379026584
Na 2.968055826966653 10.200709273192073 9.760525897327879
Na 3.2482161627471053 0.9160010575961562 7.618554589634524
Na 8.64365086714525 2.6823974810073468 11.25851430987142
Na 7.774715482278293 5.728999087510446 9.683152213046657
Na 6.212733388963925 8.112965095655685 11.876760611952397
Na 11.278793884748055 5.200945543873904 10.313493561340673
Na 1.9911708536393693 3.189644718148992 10.432061732690649
Na 9.663224809341227 8.595097688570727 10.852307290350126
Na 5.220537922721716 1.3997379643744194 10.545856994556294
Na 3.0003687658255993 6.6682275575508 11.209530023102326
Na 8.826964930323363 5.792311243792007 13.032224034372739
Na 5.518899006130448 4.4495069034054415 12.166193224534727
