41
Energy = -44.24893059 eV
Na 4.168491960032996 6.175544971840799 13.880363131742499
Na 6.946301792021636 3.8929124640070762 1.3301866992018472
Na 7.369697231225223 7.823446460712712 0.6362673533221896
Na 4.221147028221545 9.666094513283143 1.7061797882269545
Na 3.5577201805247585 3.294415213099378 2.6560360095236115
Na 6.322472560499918 0.6333071654806222 3.6043254668781604
Na 1.77774344402754 6.83394793580224 2.6132765095549932
Na 5.1819941965808995 6.56578061056237 2.9623090413391635
Na 7.261817111751427 9.649281515454994 3.7715761147314844
Na 10.960772049055588 9.160248297245989 3.493874035055401
Na 8.904729318391178 6.161864123922762 3.4818364328153164
Na 4.967887832668839 12.15607863854902 4.935953647979201
Na 3.45575792870839 8.959368302304506 5.1953787435103855
Na 3.9637281326276423 1.711926552950159 6.405279442188799
Na 6.348633343185291 3.7562842203612217 4.7506931457507084
Na 3.0672528713817604 5.269354173696463 5.703492582974471
Na 9.663488227013042 2.583131518110681 4.20321347818537
Na 9.456776764659764 11.645707011883504 5.956289739249043
Na 6.338649232654117 7.010098427057049 5.938274565018582
Na 12.002702231092012 5.909153703138269 5.503988187846523
Na 5.669173940682133 4.271391041247691 8.052269084690867
Na 6.457069335830327 10.197761959393125 7.434648740834861
Na 9.55798346251925 9.929323453208072 9.499383219426859
Na 8.93910499343179 4.778045315681818 6.8008635656180125
Na 11.138362587870219 6.446999839760939 9.082565260165474
Na 11.406887818147954 2.7585896557159293 7.747225290674667
Na 4.1457660444321816 7.415025318224998 8.447553582259836
Na 7.682454392727451 1.3663806257061242 7.2150588261155395
Na 0.8693352621353478 7.577248629123313 7.5861394896076
Na 12.469215677795255 9.485059818780213 6.996864775429942
Na 5.104983814378801 1.7010384774694751 10.120327687758493
Na 2.3660914314043158 4.347649694387295 9.19111303437927
Na 2.9739363232216025 10.674026523437407 8.376228055461258
Na 9.438551910713588 8.238545658620497 6.386068038241053
Na 7.565074212959658 7.052305307237653 9.1174928466735
Na 5.681700793888167 9.50194802625789 10.878386145858478
Na 8.498913862356304 3.6831298510391317 10.185778467817382
Na 5.171919134748053 5.349516932070319 11.35545068201161
Na 2.2595810041122815 7.8717888083247125 11.19955022345
Na 8.273721674632542 7.281460494114402 12.34564595020165
Na 4.950359576955816 7.772769442004361 13.880363131742499
