47
Energy = -48.83493137 eV
Na 9.526799077597165 2.664460471228841 4.3120175136359205
Na 11.983554476501077 7.735723620898837 2.462370005434911
Na 9.314147328030788 5.42000836847521 2.115242704858494
Na 11.695383680175686 5.3349350306173795 4.934078543022894
Na 13.862843694257027 8.022062606368976 5.387221142275563
Na 10.5097057488676 3.5165917359388166 7.506698958844047
Na 12.993896128634148 6.270062948095825 8.242348219256275
Na 4.835064645372101 4.891151514773481 5.208268652790044
Na 8.768276765559664 8.600227790675756 3.5498291553785686
Na 7.159370957546822 2.6213099103361714 6.919520214245461
Na 11.524259536291115 10.803118313853073 3.888773697086644
Na 12.155096815275382 3.48359943186416 10.458663182219414
Na 6.124875751090538 6.57117950796498 2.6395603337791123
Na 8.199825827555577 5.77729511110916 5.559047093985641
Na 10.32560964215978 8.220585466474981 6.730175314032445
Na 12.845596987506907 10.863379934036013 7.041450991163507
Na 5.562441803808219 9.873615851028088 3.183679475191131
Na 8.647332553390907 2.943341474911491 10.443937720132126
Na 11.671484302442364 9.27544660915399 9.908582962491323
Na 3.664429148194768 2.5558440985889748 7.453264107836606
Na 9.800008646292424 6.221594212389169 9.752957059059508
Na 12.948778864529405 6.584117686384714 11.8045664857781
Na 8.36074563574152 11.996939354591461 3.811327199397699
Na 10.166993092199629 4.673128693109593 13.119869251824865
Na 5.408308235790966 13.387227577512851 2.6995204304812557
Na 6.37955471233149 5.611461914939163 8.485824465884853
Na 11.881769832920945 12.915595804120018 9.507659169527972
Na 6.745797689909859 9.13161734503421 6.551691175689559
Na 3.4706068530740675 8.352191470676773 5.659822528368493
Na 3.0783968259487215 11.76491126172645 4.617898780857355
Na 5.45197677631777 2.215965215573447 10.268278197273847
Na 9.242832453000716 11.585900583552482 7.434055362280163
Na 2.288330748934995 5.702632077617972 7.500249866872004
Na 10.019353977805643 8.102236307441622 12.75216698598473
Na 7.618959486433349 9.044043211682107 9.839740566015932
Na 7.0546620192289735 5.94449843875326 11.976584908387577
Na 6.099515762307926 12.93629670175584 6.154495959287424
Na 9.394355676817598 11.57576863220204 11.441526992353948
Na 3.5459906987099163 5.038240465701494 10.678265011338443
Na 3.531519932186713 11.252562614259151 7.893501987493292
Na 4.248514185931938 8.17683262141722 9.126813806650379
Na 6.538055003992477 12.661365919384458 9.430778125358389
Na 7.117671266515915 9.422740859221094 13.450305881128608
Na 4.1638319416474845 7.78083249784036 12.634073866027167
Na 3.9977845399880194 10.935482322931453 11.157647991310785
Na 6.449147348493772 12.760774042834306 12.836705699793022
Na 4.169847042486615 10.761826233714503 14.569001131779041
