43
Energy = -46.09219484 eV
Na 9.40549489893764 5.7972410699795764 2.2292107520298488
Na 5.623915324361001 9.3436194866965 10.054458862020802
Na 2.9438686355006833 2.650643681645829 3.717767244944512
Na 9.538702128211968 2.6959510148578953 4.153315841483198
Na 12.645020779860277 4.534724539478503 3.6050079000151807
Na 8.423058827937947 3.560263986791135 7.6601526239260656
Na 11.204873044550446 6.001762502202543 9.339811519238703
Na 7.72859599118338 10.559724114956726 7.547903690705829
Na 9.787813337834011 11.582951388246027 4.804620001108692
Na 6.116804663327176 1.7098841151935074 5.438986275612658
Na 0.49114839502743335 5.349298632852498 2.8106442310417403
Na 1.6721682326309981 8.256260726123124 5.220924759222724
Na 3.7873212815958133 10.857779975245519 7.1601899581405615
Na 1.1047369755290284 4.7382899019460725 6.31728705091427
Na 11.865403669341218 2.8954643541379945 6.921186132951889
Na 5.734837728858231 1.9961796255433968 9.378508949629834
Na 6.315501093138352 3.4327152896053037 2.0765321745334604
Na 4.447003823100909 4.371759390292967 6.886274850264903
Na 5.915892825491378 13.15187564918429 8.752578941462785
Na 7.417484503048164 6.957713848376691 12.462766390003157
Na 10.49454644588307 5.902376748535261 5.765206219054125
Na 3.169589019362855 4.68103805850702 0.5908772899359676
Na 8.783737284826982 4.017288177976408 11.127930280868826
Na 10.88856807936171 6.600288579041872 12.901105637531964
Na 8.074486115123063 8.51352315093447 4.640052333689736
Na 7.73317167400367 10.518779323894865 1.9767612999523159
Na 8.202862651145029 7.120465458316619 8.090653605294184
Na 3.819836907309159 5.960701060992507 3.8295914718190742
Na 7.083299141277126 5.258973582047904 4.892267137061177
Na 11.024503447260331 9.100391402605448 7.151808035054608
Na 5.430813997381837 3.732993928986849 12.558211138511428
Na 4.6276460680559985 9.770992118406214 3.6674586100125426
Na 2.4128320368948875 8.040464301971383 1.3913468208904864
Na 3.7377761008725288 6.854554296558688 12.175846297926025
Na 2.6867281101456983 1.444727047218878 7.157834904388337
Na 5.227138673794603 7.8228975670178444 6.547896966060857
Na 2.6238651388504994 7.3813407043810875 8.685988510423007
Na 5.786664489712816 5.593496607214823 9.705704364250895
Na 2.6186640193748163 3.9279710245528325 9.95994885897373
Na 6.244142498427142 12.548718837420207 5.020805953341637
Na 11.407713508288893 8.45609305911543 3.487840834782781
Na 9.590518502361578 9.119045083543345 10.53071022312722
Na 6.141947042890392 7.169473699473775 1.5867221698679066
