50
Energy = -54.42990864 eV
Na 10.648378119167646 5.4460939260163235 0.10805080178003301
Na 2.7547841658963024 5.4713434045393745 1.1425804742791519
Na 7.048929451432331 5.09032346723024 1.2517362134117855
Na 9.67469754230969 2.3327790849336854 1.5503849713994353
Na 13.010429462855257 3.7674735223192144 2.4557697724193672
Na 9.075399175377866 8.369685738843621 1.600594552342459
Na 12.508768908056199 7.690995991612689 2.6449730581129516
Na 4.510600620354684 2.424295521797686 2.1614974257382054
Na 5.354853397586972 8.428759112898128 2.029247059120658
Na 7.5610815130463624 11.627562960266587 1.5640813641416542
Na 10.180460310755878 5.26499319955789 3.4430930887906372
Na 4.377584408696037 5.3243493758514475 3.9662021982856492
Na 10.72475308028256 11.117904133497928 3.447299195904877
Na 10.952751919878501 2.3103701809110087 5.192230091178842
Na 1.478707983848479 3.7602010508860384 4.284528928526591
Na 7.417324370220394 6.690612063208423 4.420578730231058
Na 1.9523074430388507 8.036207365601502 3.659852190633601
Na 4.4122260344086 11.472957513429709 4.059663231072983
Na 7.414501804318675 3.087222288205701 4.321318652070814
Na 12.76546593834884 5.396684469739241 5.8507705046670075
Na 7.6440184316941755 10.054498615467953 4.558595061199498
Na 10.643858366458852 8.282511759617257 5.630235361672772
Na 4.451669689845299 1.9313326123366545 5.802034707469168
Na 7.730315070817989 13.335175208687787 4.939409483335749
Na 4.64953561137384 8.418159944014388 5.63170850289538
Na 2.076512845127095 10.190980515001687 7.263421970327338
Na 3.280907262055478 5.372798357105641 10.19075368933163
Na 9.207718784454435 5.071925613444697 6.99461937360463
Na 9.482739740311743 11.151990568956393 7.574934274214503
Na 1.875188724593462 2.925435128255382 8.029305860240413
Na 5.433866798349631 5.0299613476550045 7.13294521158653
Na 7.648323124502321 8.24031392798135 7.518184563996141
Na 5.816280199281044 11.428010138069164 7.513605881302337
Na 1.8130532930486296 6.457855621183632 7.072056399829318
Na 8.145610969485556 1.9091449254916162 7.632160501223682
Na 4.437237751236372 8.387863831079226 9.012234958529413
Na 5.253635907979451 2.4795338165789325 9.702056038349987
Na 13.047246832106744 4.953878911357751 10.193466866100108
Na 10.432002924475793 7.257605787320819 9.426111110429789
Na 2.132725530761638 2.521555345300959 11.775096586432095
Na 6.792982191409287 6.04417699563779 10.032313053841843
Na 3.573156284853151 11.086832715936936 10.809357919590218
Na 11.68147195862079 3.4731313509178863 8.704592884588235
Na 7.443160139717229 9.768692855513105 10.590023066284676
Na 1.2508157182381412 8.346081950225773 10.493398474620186
Na 8.871013442224458 3.6226543434617566 10.880367642364206
Na 1.8989260639549297 5.7364517591455995 13.267841699602172
Na 5.342687734894569 4.304765431370695 12.881028357552909
Na 8.339814400263245 6.785305822031388 12.801690731429792
Na 4.635567850466416 8.01681882416498 12.488255658605595
