51
Energy = -55.27986104 eV
Na 0.644264279070988 4.45168441945998 7.208393068638289
Na 3.5238671244474387 4.62864625432783 9.998372366957687
Na 1.6074063237129732 7.593974743899819 9.207587531539094
Na 1.0639082720298814 7.581811311637762 5.659531436894207
Na 14.272216944145788 10.188092767987836 4.30911500681989
Na 0.8622187024216729 10.693521307584758 7.5502901998331815
Na 4.857535046546959 7.930615907033296 11.181983352775601
Na 3.2127216660879223 1.8469135663801424 7.679629042934114
Na 4.912584842622317 1.4775940008347153 11.090126982450169
Na 3.976455637151524 5.130792489362806 6.50366391378433
Na 6.057153250121682 1.850154125079056 5.165763227350112
Na 6.5476361011542625 6.540704539859653 8.55168218820666
Na 3.7076451036731526 11.092710885024246 9.982773652461777
Na 1.5443492585715137 8.389395260408797 2.192171631567334
Na 2.057861043335186 4.979077498692751 3.518245811521959
Na 4.132771905356228 8.948726445117252 7.2625104588523515
Na 2.7106650939317514 10.828308631245932 4.3807774115493645
Na 6.816424101832357 11.085340120846583 11.986871823764057
Na 6.4602074398447185 2.9720597893538074 8.442151759900126
Na 7.4066531889009015 5.006116583574158 5.62324336341854
Na 8.543242623052837 7.764482396310612 11.505524935967708
Na 3.5744286237797223 12.96069704726517 7.03699357840101
Na 6.732127421932383 4.641066523428828 11.710027566248732
Na 4.719966575851313 7.553000657770094 4.13061499699975
Na 7.114546221203523 9.870527921331256 8.806080873531455
Na 9.556027337028661 4.768897146659389 9.097346442839362
Na 5.6703889843869595 4.311381989340462 2.674026901156253
Na 6.203627939557993 11.259777976468063 5.386552206771452
Na 4.228354600746951 6.868950920979864 0.6575151787362029
Na 10.85859256809445 5.788284927412621 5.859122382286037
Na 10.127329950782967 11.132077337726322 10.389879318410172
Na 5.352066757240601 10.062685326501667 1.9441155776161014
Na 8.693753948891832 1.7728135190260794 10.960405051613401
Na 9.65587354411417 2.254488021635938 6.658561886922039
Na 6.899711934473242 13.169915752553333 8.923750198692074
Na 7.6807282059525415 7.158509650448279 1.9385196020854067
Na 8.142981343685001 8.308172099203013 5.577047527100674
Na 13.166534952740317 3.28536911111958 6.749218499830877
Na 9.415324391643392 3.988234510196475 3.024670948036912
Na 10.330626027704067 8.15826356953218 8.437428530203983
Na 9.514447487769896 11.546120093302907 6.7812590134999935
Na 12.089585768568611 8.200259863925533 11.752334757808793
Na 10.76509860101445 4.689787984669599 12.300198672309877
Na 9.078017158961632 10.387142938304894 3.032461905985342
Na 11.939747730575748 2.1953896415347027 9.822759438133113
Na 14.272216944145784 6.7856226190894375 6.307791338573673
Na 11.047624367099786 7.3207604624093126 2.455939802444143
Na 13.484061129885056 9.44538333062628 8.717973280896224
Na 11.849020825272738 9.248515419469495 5.33265828629612
Na 13.235581277825334 4.728544490798891 3.5277063837371525
Na 13.04307203876138 5.745651162784233 9.46906492873797
