53
Energy = -57.89589784 eV
Na 4.978459097082838 5.966562160140415 13.632652773881416
Na 6.3992154325822055 3.1434660811898336 1.9463633838561545
Na 8.683479186663034 5.855153338137848 0.8618981363929566
Na 3.5252146148845602 8.450321668529874 2.022149578302918
Na 6.8586885728817 9.105064271777426 0.9507616198706804
Na 4.40762888872099 1.7708469594576934 4.812921230934201
Na 7.7943472484836755 0.36349208341087735 4.117150932926254
Na 6.132882847484702 6.369159058987512 3.282533543812424
Na 12.924293915583329 4.471424955762795 2.901536989512901
Na 10.009440217788605 3.055750285535052 2.936389890338505
Na 0.4470488138411963 7.330694278702706 1.3374858167060633
Na 12.166173405117096 5.755595160048881 1.9109764699767613
Na 10.338853994070163 8.974617852059806 1.8817806751874633
Na 1.4602480177553574 10.37623768434202 4.18227541603549
Na 4.971398253876836 11.479581601494445 3.2581919517702755
Na 8.401658984569444 12.1479809765708 2.206299675772217
Na 2.863094328844217 4.631336949297084 2.589289305117057
Na 7.517791124672567 3.600207535151775 5.377291337065232
Na 9.776629110078936 6.399884975541654 4.350884150478691
Na 4.298745741960624 8.691932665720087 5.5001836127944195
Na 7.794839812216268 9.536294472949153 4.402084942298325
Na 4.103078554608318 5.102543347775613 6.040565120512795
Na 10.239920435824645 1.5336601281208353 6.574272279557408
Na 1.0747394692219006 6.871104183650104 4.9055286123139545
Na 12.447006405656918 4.3205991589692125 5.452554319871926
Na 10.175468544846469 8.772980911440765 7.300041742903823
Na 3.8485286209392027 12.019651508985447 6.754802596448373
Na 7.188350204735911 6.880615104965861 6.663404615995073
Na 12.924293915583329 6.5773466061674055 8.520174839710393
Na 7.272468564499045 12.881640789215517 5.655115686607583
Na 1.5206228324024222 5.524351169886447 8.47407076104617
Na 9.935112521991234 4.903533855205371 7.878005249188541
Na 6.752465054501266 10.12391766457646 7.891879775647305
Na 1.0836535271464338 3.2046086580641533 5.6044422534363
Na 12.6754078780281 2.988782649099037 8.961163277205289
Na 6.287492516147374 13.323163843823696 9.16585577045419
Na 6.807310343127548 0.8131104689513643 7.619182954882508
Na 1.7392189426541396 9.23939208250751 7.831252349174132
Na 11.279180931864838 8.789882239197425 10.819357153257307
Na 6.476453632952463 4.138910337840633 8.909781130207108
Na 4.6158489617677585 7.35276600310013 9.020771079437345
Na 8.210307646748568 7.172690889102642 10.092586995096479
Na 3.423009340705444 2.294026689405915 8.382682970575111
Na 9.30640527978736 2.1646536981314806 10.110141405525505
Na 7.836532239547079 10.4595735210029 11.247040311928004
Na 11.02717016007596 5.142466950778472 11.448364114454572
Na 4.182064964283168 10.648650833712926 10.298549113140734
Na 5.818807769325623 1.5213588684695827 11.100898863814994
Na 2.0793717175761737 7.833135865854453 11.35181305438463
Na 3.9003409750342217 4.6540296401494174 11.343573793202015
Na 7.517118953712333 4.518839834527332 12.393398178228972
Na 9.145193975790182 7.594754617057376 13.455008460900714
Na 5.573869398179998 7.7022379037472914 12.489565626283722
