52
Energy = -56.09449174 eV
Na 4.078618969034109 8.224059967241972 13.3571545528301
Na 1.6270205483322882 7.056912543836234 7.901556542981383
Na 3.530485030185616 9.653387705435298 6.433470355026822
Na 1.5501654996837997 6.567722594411506 11.514297126711051
Na 2.276400623614935 5.767983285246931 4.5146474239170065
Na 2.6957305080366862 9.802001832630836 10.174971382806948
Na 5.620564815790642 11.030387593760004 11.914100976260631
Na 4.831448794669413 12.686028717095047 8.805282875623849
Na 4.458208489966518 8.23386407620183 3.038322733918185
Na 5.241501876379845 12.636790990894998 5.219522235249467
Na 7.257718187369058 15.150294924024836 7.3976398205325955
Na 7.299889777650985 7.774232300930171 12.097318540794188
Na 2.810961400486019 3.9202870230547315 9.240213278228419
Na 4.605939640857042 6.792425962996865 9.92971399398186
Na 5.126514717211892 6.342597928529508 6.390090599549284
Na 5.010022133268529 4.68365522061364 12.481578502525354
Na 5.570307549666107 4.7301722708025205 3.0896806416126346
Na 6.338302627921054 9.410523150687144 8.708427790747391
Na 9.23897955073576 10.500958886858935 10.659280997469953
Na 7.845890273749234 13.642279861082734 11.077357258585591
Na 6.935515365939393 9.545125673017562 5.169873367865296
Na 7.974413388024076 6.225973483462973 8.47994827410755
Na 8.42975295351534 10.754456531932341 14.074654445214057
Na 8.184560066170796 12.04547995815823 7.544525729861166
Na 4.166828278579166 3.0164302149422824 5.969620241845179
Na 6.284604037200296 3.2783782187082657 9.245849233117971
Na 8.70398128346548 4.593816091807597 11.826164699312471
Na 10.681397655351116 7.356391894074961 10.261830494649502
Na 7.729490139216535 7.425242564672418 1.6626603718597817
Na 9.886523786128116 9.123679419926603 7.134093133788297
Na 10.349097573308567 7.331143223198355 13.8482557582018
Na 6.7135708003735335 10.905215136041017 2.0773365788738367
Na 7.763793068978676 3.268666590053355 5.871568672614597
Na 8.561755737477199 13.116931419008331 4.263806389255948
Na 8.598947271666885 6.461064765242016 4.863230102143159
Na 10.06062258990195 3.2337208202988257 8.775878398637412
Na 11.384185633840278 12.50839586810765 12.4373454350608
Na 11.418203987633131 6.042175249352797 7.000475378362384
Na 9.024064996125514 4.089073143015719 2.3877697467630106
Na 11.781724788025564 10.339631733919228 15.151341978469068
Na 10.747842115871848 13.79946683484349 9.088988962212422
Na 10.105870684099703 9.763144463924114 3.4808225577257583
Na 12.486684964036526 4.990093154222123 11.627358214611705
Na 13.167385269950008 8.875613682556084 12.270652279166852
Na 12.548108720389765 10.57377063718348 9.129766709753214
Na 11.70945136219052 6.475041397834865 3.229372004617428
Na 13.524283945338714 3.633189459161269 8.359499226908587
Na 11.560840233001796 12.138892358722426 5.961861956445908
Na 11.380342146214007 3.2452718542269587 5.170617923397872
Na 13.21600499341345 8.929255005893216 5.5779748817807295
Na 14.119742108015128 7.221315453418492 8.9734234057303
Na 14.495674819823504 5.611557806289071 5.4614207000175945
