50
Energy = -53.73061447 eV
Na 10.700821937528163 1.1529678666463716 5.6234239915723405
Na 12.331016373251124 3.8302171990245113 7.4041967680044944
Na 10.871921710262768 4.616847889534759 4.182327675549837
Na 12.854731495073164 7.3032098244635595 5.545317960640378
Na 8.0428192349918 2.4600987073188216 3.3994811927117397
Na 12.25923632428992 10.758589638333046 4.555473392951945
Na 10.879705418389214 7.943306093430169 2.547924920163789
Na 8.765431601296708 5.289308372672695 1.2895875994562516
Na 11.475003943225715 9.923040311870619 7.842174974619236
Na 9.475976662228334 11.477893208102142 2.521359729160287
Na 7.248197801688963 8.494644393727267 2.016526226626782
Na 13.29942406546786 6.999848408370509 9.145751485531536
Na 6.354321175362598 11.390460518566277 4.071119693711604
Na 9.587765832906026 1.1532278045647348 9.273347912720695
Na 10.76564349973477 4.36886276887117 10.557853124896193
Na 7.397362651254704 0.17628270239387572 6.342831912457235
Na 8.550821069685144 3.507752071818911 6.981277854387933
Na 6.292343781752643 14.627480482153443 5.546916927302753
Na 10.008805329431876 6.550246336679353 7.495066068999594
Na 9.342399004378006 12.603733536942041 6.355693977124048
Na 5.2106176969941185 2.965276810631038 5.299182216968225
Na 7.452099785039326 6.0962434552709315 4.67417841243942
Na 8.9942650076825 9.22406851555252 5.248410561108091
Na 5.2822542480747545 5.194382952313577 2.178493762196871
Na 9.456072736903716 11.847712124628536 10.220844749048707
Na 12.948556440686382 10.462657892003733 10.928541880891162
Na 7.671310062258285 5.972329398973837 10.354576959262943
Na 7.511757979850984 3.1011596917427573 12.157631958397541
Na 6.058023249869223 11.924623818870792 7.717825213293071
Na 3.3083425577565606 12.177755716807935 5.573346686046537
Na 5.99570708366401 2.2202945257869557 8.981036545728845
Na 9.22779712597316 6.0463898792248365 13.544728259711263
Na 5.046822657993265 8.831939846814269 6.328265552707533
Na 7.92552528269186 9.127427905673205 8.557904353424206
Na 7.597354124593602 14.737595083409774 8.96399466298989
Na 10.467388804858015 8.098144502449985 10.854745412468402
Na 3.8380561574379355 8.866078802061509 3.012038329628939
Na 3.107363646300737 5.910245345039477 5.00489979156227
Na 2.701634724143562 3.448470525140724 7.790921949756342
Na 5.631376428169719 5.669205358657992 7.670207896066501
Na 4.141088650493741 4.7278630992634705 10.849804091773223
Na 5.95242872294823 12.1962407719303 11.10801651752343
Na 2.7642576716812752 10.64411616178884 9.136520296258634
Na 5.613048542066979 6.5746234916893425 13.426100032908824
Na 7.738270674445343 9.426496224928798 12.595325321738851
Na 1.4854652458758062 9.18549986215818 5.824072156769522
Na 5.0772980512010175 8.416899859572835 10.24594438960189
Na 2.2808492009870722 6.962930187296564 8.43750527027352
Na 2.1078138240978124 7.580487908365723 11.883630630896207
Na 4.17638248909195 10.024036402144548 13.24324311184871
