54
Energy = -58.81815708 eV
Na 4.927226107690649 7.93164093408439 13.126535286267751
Na 6.301457083510109 4.568048209631156 13.631757342602377
Na 8.488152352972289 7.62674852619891 0.19371526888964802
Na 5.97317225221221 10.444694712378736 1.2992520170742998
Na 2.7524736731222985 5.196989869187774 0.3077619232080618
Na 5.0985085741940654 3.173671068532553 2.4842736175963247
Na 2.59424291246794 8.92030263808648 1.4857145032191619
Na 9.698085070358985 10.686144396247107 2.1403258017164846
Na 3.566642127518716 12.144677136401967 3.7541430183617903
Na 5.5763052119292205 6.67952986252906 1.7724579403889733
Na 7.4106021592597475 2.317256821998243 5.193561920855183
Na 8.650645165709811 4.673469779727258 2.737323437764239
Na 7.069146608811195 11.595671958681455 4.67710781887273
Na 11.25294485311196 7.310895636235774 3.1244982679238986
Na 3.646212131335294 3.3541967933027537 6.061964373670287
Na 14.245740904745356 6.2260868086533785 2.628418540078071
Na 1.490033921969439 2.9110051779943205 3.214287838468178
Na 8.024556026523317 8.24334040681662 3.6381710708510693
Na 4.696741937739276 8.921115720416944 4.379937975018204
Na 1.188735069690361 8.973365382550792 4.921264245454903
Na 4.289771385225216 0.35559734084661326 4.772186117665496
Na 2.9249832477165807 6.021473809847538 3.8485638694824797
Na 10.329482291071473 9.858705295477568 5.644794253932629
Na 5.149313411611705 13.7888086238837 6.90093267325606
Na 11.1944342876585 3.1863098870135036 5.851835239295409
Na 6.186311593065236 5.621380458629286 5.206771988372013
Na 12.95175803069418 6.973070992876702 6.349953830177536
Na 9.122819805503674 14.382750246902605 7.348110347273716
Na 7.099742693184462 8.483940157832379 7.029184240239516
Na 9.577362984518803 6.135476549312456 6.256120350810375
Na 3.205934256988543 7.038312550679716 7.41701406918087
Na 4.000311696559821 10.622059765393153 7.259398686677044
Na 5.6390971082315025 4.992483516232219 8.601545643131917
Na 5.541204473114338 1.2261635553491828 8.29405863003672
Na 2.4903192111542656 3.4994942124434467 9.282019812328922
Na 7.87738068503981 11.491555996762214 8.332607204043786
Na 8.662192112085252 3.2604931237763024 8.438275984247143
Na 10.86929977970023 8.764565001083518 8.987512454113043
Na 0.45389810768291455 5.1155868821972925 6.1292982072594775
Na 11.785866706660281 5.185767992382534 9.103538957847325
Na 11.537759747836835 1.6631085216199843 9.594755214783568
Na 5.461792114491296 8.419778718411022 9.923262231843825
Na 8.475732550859771 6.487230440902604 9.828368159308997
Na 2.1334844696141535 9.259858780569473 10.167658782929522
Na 8.2870212073679 0.5374929379829676 10.759120391241499
Na 3.5511359944408323 6.093539818802465 11.536827880288275
Na 5.890205057279987 3.1518092553220813 11.472436259690046
Na 5.062493471168272 11.815782982835643 10.454629580159972
Na 8.161429980221385 9.684170307260805 11.636007643699228
Na 9.40933600371843 3.7046173456493965 12.02424803206645
Na 12.914656505122823 3.9299744851610554 12.125734552848835
Na 10.829971160887142 7.030875163063593 12.340586372799171
Na 4.7167392509778345 9.299343977739056 13.126535286267751
Na 6.954756615902882 6.409191608332963 12.962879128880248
