53
Energy = -57.67565315 eV
Na 5.529173636071633 5.639591369392138 13.45381072526937
Na 8.723656883650271 7.084864873070701 0.7753935282950684
Na 5.566955870497638 9.068631779731563 0.9289638351149283
Na 7.925246485224698 3.4891145213250123 1.373486232824877
Na 2.6961371964364305 6.786734093526379 1.6680236013012744
Na 11.806923369342357 8.320298437349615 2.2974115080445534
Na 8.788245063993955 10.39211015977507 2.311672930910346
Na 5.6639617719427475 12.34835536989358 2.6276323975586493
Na 3.9623989288397143 3.2995664427959555 1.97267621312192
Na 11.006026736182646 4.724024822924466 2.828468552285621
Na 6.005448653139094 6.1122613357532405 2.9637960545889555
Na 2.7611415997737185 10.105342950584587 3.159258971729929
Na 10.069562558186544 1.2444372727411797 3.4759350283949173
Na 0.07408737036870236 7.792752176386757 4.009461132807121
Na 9.176671981000547 7.421631379853804 4.366765983909586
Na 6.0700085478015975 9.446529381635498 4.492076856442911
Na 1.2908271752301623 4.291983605137078 4.234313984059338
Na 11.131162109299186 10.294724122887851 5.385151217644082
Na 8.087886182076069 12.280827618933941 5.447137910955914
Na 8.251004339550695 3.7951824566640004 4.953415183741317
Na 2.6668818242395953 0.9262570984948112 4.55671573022901
Na 3.256689204868612 7.160884118090915 5.237992955101583
Na 12.448108355662008 6.769984622103988 5.639445160125915
Na 4.127497834899192 12.123645001251544 5.975730334044423
Na 4.595686346211709 3.6587632589844885 5.497581192155592
Na 11.572546604401511 3.1532390843461604 6.208572059184887
Na 6.502057507212597 6.506909174301782 6.499450611502079
Na 1.4352456981368897 9.85645850752271 6.79266079842099
Na 8.8677057135002 0.8853378249431555 7.002123766406546
Na 0.5613923888434957 6.243344533029209 7.3723906479464185
Na 4.897669035307263 0.7248178049388817 7.56071561027542
Na 1.8678507141393697 2.7300724375483387 7.639576760689869
Na 8.403712743714404 9.344624739315272 7.508191121184032
Na 9.744891979065912 5.837362818000839 7.77003261334758
Na 4.762148986866213 9.21999361348666 8.034880213859207
Na 6.929457284511624 3.550531517119519 8.507547330018033
Na 3.8304218507304038 5.593838494507889 8.64185062786834
Na 10.298583378265995 12.080928254050457 8.465336570728956
Na 11.708693586817029 8.707510189244855 8.772079121859864
Na 12.927318117954117 5.2014510119146635 8.997302786147483
Na 2.9572950174788666 11.776673635167459 9.51344620247408
Na 10.238110835001981 2.8725970498107145 9.833114458893895
Na 2.016521475346658 8.304288322331507 10.169349590896546
Na 7.317586913276343 0.6444300686540824 10.353489244754575
Na 7.005223337586828 6.887357883501724 10.044257077544255
Na 4.211022435665107 2.6251318512557646 10.698501474032662
Na 1.198214418399207 4.711743644963193 10.71225158780084
Na 9.0610891346188 9.682153509195409 11.050650763320801
Na 10.308357398719638 6.186433413687303 11.349135862838116
Na 5.10270951004284 9.519346452945035 11.62220506207609
Na 7.436297841257764 3.918315221116244 12.06877869051215
Na 4.28718873126819 5.930351671912053 12.2370519015414
Na 7.4848041229873425 7.341765787507279 13.45381072526937
