50
Energy = -54.34167837 eV
Na 6.7250595206849635 8.344722802115633 13.621919663366404
Na 5.495067607672697 5.155313681309182 0.9697941024401632
Na 9.18416372148718 5.975834357676944 1.2079160985355522
Na 3.5732264542607957 8.358447675013618 1.772261857211197
Na 4.147818589219994 2.020031911678132 2.475325136674922
Na 7.8875118923954 2.7322007772920665 2.5754944316358603
Na 11.53407048219269 3.5875995544803545 2.8582109905160995
Na 9.482028485923614 9.524095156669235 2.0017891601873394
Na 2.2811518560830923 5.074750583418159 3.1408171636278968
Na 6.020204589912796 11.008978799055866 2.3537297524519802
Na 6.7593413099209325 7.587993780799833 3.279588965632029
Na 0.44670533648522603 8.200307566986716 3.9323743687165846
Na 11.912524238320879 7.119983465934333 3.534898392499119
Na 5.540712336919683 4.407046120682925 4.596359677477201
Na 2.8087070722270666 10.963770962063913 4.462474496956449
Na 9.20263590275055 5.184941565846771 4.808623626745139
Na 6.183379054821911 0.8341394223846748 5.375009935393763
Na 9.857451828513048 1.614863590926869 5.573717276789635
Na 2.7169594645485478 2.4819335233085096 5.804300927871791
Na 12.08625452792672 10.76429787423463 3.9701166232662275
Na 3.61018995467317 7.6009604274197375 5.348577798224623
Na 8.72718979886354 12.230302546014341 4.499205718226732
Na 5.341684115081591 13.542148078707664 5.002294336862143
Na 9.558097609181996 8.852187507542231 5.6024303366078945
Na 12.368584023379377 4.289282094967397 6.276920828043184
Na 0.8233509712004434 5.6953347031539 6.6373266130915765
Na 6.836237735865645 6.857631146476109 6.78966700247622
Na 6.073012182819209 10.21526447001687 5.855240237723392
Na 1.096905762611144 9.243513577318287 7.41686133775127
Na 3.6380081502549833 11.910977474804454 7.864749791180413
Na 4.311821946279789 8.520536944985796 8.801367174843003
Na 7.462233881431893 3.3905974737654367 7.550831034551747
Na 4.0747938641249215 4.959125099297183 8.063098050843555
Na 7.053249354462966 12.781073808125717 8.054724694035496
Na 7.885733650201471 9.326992111040004 9.025777084144227
Na 13.071505108492195 4.939322762994676 9.803238514144118
Na 10.608195929522727 2.5847955302590493 9.036205657669417
Na 8.064960917624068 0.023397741749930718 8.34225718457092
Na 4.724369381703445 1.4482284113384891 8.8424417850861
Na 10.06861029728302 6.183199169008677 8.286777643987435
Na 1.3224013017810994 3.0820679197455836 9.201980226815605
Na 6.853284374725831 5.9351273890842355 10.216648319633743
Na 5.439429382738653 10.98954285317289 11.037523766770475
Na 1.5687575469024657 6.67023026166819 10.076739018721595
Na 7.447173896314607 2.4861713416902136 11.066216137814186
Na 7.855450171800773 8.39164702354769 12.558380926594158
Na 4.010997154821091 4.087696309793947 11.512666297632048
Na 9.976270690284753 5.05992455810147 11.78046242719992
Na 4.43886326710793 7.613055494805078 12.249900347020771
Na 6.820494063033235 5.125243354361647 13.621919663366404
