53
Energy = -57.97203734 eV
Na 5.510636065973269 7.819384003601676 13.629028042786857
Na 8.021832316396134 5.32057879246471 0.972520423536753
Na 10.535712371349142 2.8819507568643172 2.393981234089925
Na 4.3844641902476855 4.616741294188087 1.3903312745247995
Na 8.668193661446619 8.95809292080666 1.3717879557282173
Na 1.792627611532118 10.997373819552148 1.7105127844869155
Na 6.89058819126979 2.19369424197729 2.7830607090430695
Na 11.20455903760331 6.502942192964294 2.7179427330507604
Na 2.7244546471655124 7.717263979328369 2.174891536637157
Na 5.341277027334459 10.608775925852 2.232314022301295
Na 3.208398054418228 1.6738821249053517 3.27663241659575
Na 11.665804623713564 10.08643845497153 3.1705635414281357
Na 6.138059853688467 7.2339301985245354 3.263338114188258
Na 8.63636781748336 4.800668438672674 4.560527072537536
Na 1.4873571961210628 4.838608926699309 3.969480602106961
Na 8.490588552453842 11.848982773342962 3.8888379086834837
Na 12.59943128183459 7.676074547808745 5.9397058297052325
Na 12.025750371546177 4.0195635797669915 5.542172447283392
Na 4.87000608151921 4.257299339638345 4.971942882959569
Na 9.19652400974102 8.451690512907783 4.962326077796806
Na 9.43029590771907 1.3748426121131634 5.560081722333527
Na 2.5235171417832625 10.922063770716349 4.9832851689116255
Na 0.09961021585834401 8.312834204178296 4.587684770632952
Na 5.105919087634603 13.312338826384051 4.5325873945654545
Na 3.3209957189506953 7.457252398462448 5.772596903753482
Na 6.067560691679109 10.189328248454464 5.832355207832924
Na 6.668132115099608 6.779782357818751 6.774837402855237
Na 5.663359864920102 0.7969104760514064 6.025179783413368
Na 3.8476643854320307 12.085289807674101 8.000732305102579
Na 2.3208023649099054 2.523417548362 6.741189708349502
Na 0.7134933516493254 5.825578549358074 7.506158087199037
Na 1.2457573488075255 9.383148550550057 8.060633762948624
Na 10.045340204746294 6.045265539201005 7.805920162325415
Na 8.412784202000251 9.335093298777233 8.624098592651318
Na 7.427495524735408 3.38494175250181 7.751816293042833
Na 4.134496128224366 5.021857463889315 8.527171358590342
Na 4.7282931007166455 8.711559547362645 8.990285556816714
Na 13.323519696951836 5.234277671167355 8.717908882522241
Na 11.811583143426942 8.609738250033844 9.504884534097311
Na 10.894464063155883 2.498678953900051 8.793792145129052
Na 8.095227960868788 0.11916815842953726 8.741012941853674
Na 11.018230556963315 10.890337647830092 6.718853953466984
Na 4.8021171447115405 1.6476954051733148 9.523124007943276
Na 7.241172837138279 6.110830561169777 10.240949085868024
Na 2.754854089094173 10.521999420422818 11.184603676832651
Na 1.6225135717709742 3.3978880936146516 10.28006590738526
Na 2.1391548366510986 6.958471263660346 10.784745377324283
Na 10.698787303980282 5.328184072325033 11.284964915966874
Na 9.145836098659874 8.479293510794603 12.043390534142691
Na 8.045191119094996 2.750700741667543 11.286303926689792
Na 5.356091288787146 8.070460269250885 12.492621724636424
Na 4.646688505876384 4.402674337180911 12.081969214463815
Na 7.792331257027272 5.550073658550311 13.629028042786857
