51
Energy = -53.89769766 eV
Na 14.261228294611055 5.640163246848271 3.871298294977898
Na 13.915819250172207 8.519171960126972 5.6207492852991585
Na 14.17330022519623 5.694634432141447 7.548246661846905
Na 14.156332807341942 11.69411562232059 6.605845365245676
Na 14.036672672750056 8.865682691159831 9.105792693467569
Na 12.01690234751225 11.849176662549 9.250612413178562
Na 12.407333219210214 6.086405478236837 10.4673001354249
Na 12.563024108758615 2.8984329637195025 8.902274903132664
Na 11.484427340292013 9.222641051258245 11.44071764871594
Na 10.997615866678991 6.440956243283405 13.714898020290494
Na 11.733661472558184 3.9828361695688375 5.503546233139291
Na 11.158500583737451 7.496753469305546 3.713659432308349
Na 10.883869616749877 10.343904341079346 6.006224272763654
Na 11.474010745717878 13.716743235919008 5.734003416542471
Na 10.869446674367262 7.255599930598337 7.517075248472317
Na 8.880015516643267 10.0742769103589 8.876166565338634
Na 9.241836042242209 13.665176741676802 8.258958206240273
Na 10.192341269529766 3.6135058434918474 11.557787167134961
Na 9.391164442977841 4.0785387698704145 8.140077139191073
Na 8.808836667789688 6.9235448658598555 10.357621683549795
Na 9.66854303268245 10.439322362545076 2.5128079927816733
Na 9.712063709352641 12.287927879309148 11.804745789218055
Na 8.58496154453182 9.139126867753433 13.267329905587882
Na 7.698949827198565 5.5594166454010265 13.520394367181753
Na 8.95769652422099 1.9872514061372613 5.085854281009656
Na 6.9715838929953176 14.452589688749176 10.651712147453622
Na 6.845459307344883 3.895055418707918 10.49811006076846
Na 8.652683606282464 5.4698980345426955 4.932336205476024
Na 8.136620460985313 12.387086695608483 4.981463678121139
Na 6.405097589975812 11.125123641940077 11.367639894165864
Na 7.871451614426558 8.793493210058735 5.3086503995446686
Na 5.496802567563727 7.930093754158841 12.311731206127519
Na 8.192378474711603 7.135614171752639 1.8488853550021884
Na 6.105533895043579 12.47911915849547 7.790952702397778
Na 6.369212662919065 2.4983916547897502 7.256595104432633
Na 6.444016982985692 6.137687203466092 7.448038916703882
Na 4.224473781566243 4.574607804715987 12.788716168333712
Na 5.578875201298389 9.1634125913898 8.566295241660303
Na 6.170255911025185 9.919240188523304 2.049629142404071
Na 6.128538789596211 3.520135926973858 3.662833200710993
Na 3.8025678253697355 13.358731933959556 10.310410918634608
Na 5.202376386738647 6.970165551590695 3.7494753228077062
Na 3.6680050131997546 3.078046533626067 9.388111663542626
Na 3.044512215581022 9.983561135949339 11.085654984187345
Na 4.853502294665925 10.565625888591928 5.07358679336523
Na 3.6748234647760047 6.52025049061962 9.793607514505348
Na 3.693828348651804 4.386439968860334 5.866302386640086
Na 2.748170176851234 11.248413434655983 7.6853531983513745
Na 3.0936226282291805 7.810509404919831 6.321225075964655
Na 0.8247612866936187 8.523251828955104 8.880410034546692
Na 1.0350312480314476 5.250509602861543 7.89748302101913
