54
Energy = -58.81742169 eV
Na 1.351615136172353 11.70565812414841 11.228995963812611
Na 3.853839157283495 9.924867042663431 9.81622806056228
Na 0.8874703345297482 8.24623594666362 10.560216975114743
Na 3.7941050398138882 9.077485653444102 13.087825893900343
Na 1.6229213015006998 6.518391729438462 7.396515252070567
Na 3.510325282244867 13.298184731886908 8.707154138448422
Na 4.839353757975406 12.610128470063849 12.083951395434525
Na 3.7381011638341146 6.220999211175904 10.742841927341031
Na 4.895712498609701 7.379161618631653 7.573627962218483
Na 1.3997424789175656 10.293474765189373 7.478005243716587
Na 7.359438477922705 1.9050969648268443 7.368866453959083
Na 4.960989139097925 1.8988095634583606 4.72568573048673
Na 6.742117763065495 8.261193156663298 10.412876526994719
Na 6.647208546671992 6.655525604700345 13.489673872388352
Na 6.708651587947796 4.177188858253243 10.789143826972754
Na 7.288671677206117 10.280331335415967 13.344684808050758
Na 4.093850610735222 5.38334343906429 4.576833658467861
Na 4.350292931285872 3.8999252023480455 7.841526965858481
Na 9.485176384161786 4.308365289278807 13.32742402509588
Na 3.1386325279436074 8.77509513127634 4.616648349807751
Na 7.88958147278379 5.52780346119786 7.829709582370658
Na 7.0426229168624905 11.68830495420954 9.282319979659265
Na 6.349423282719928 15.172777829215006 9.805895345878538
Na 7.593514134682307 4.5949363282291 4.616724115841831
Na 8.336136066145677 1.3503791964356935 3.6597778492744863
Na 5.058997099496913 10.856763245484096 6.623854941676037
Na 7.103154461476142 8.20657578856771 5.11548684010218
Na 6.453884552627875 14.043789938313104 6.385406881023465
Na 6.185728483143178 3.7403535799779735 1.6993003527772441
Na 8.946803487523061 6.145779841166212 1.6408217166265633
Na 10.318021275020406 8.046539603028421 13.555892770207366
Na 9.96593394148424 2.9493316140590777 9.79652233731725
Na 10.565345284421406 2.773536968043528 6.163111508641794
Na 8.841204168652574 11.586465997268421 5.678926199193272
Na 9.362489758932233 8.795916704430324 7.8840403731051945
Na 5.742054698228468 7.53367828214207 2.107047554185518
Na 9.578076651382835 13.925671975738894 8.614024450633556
Na 10.371805348790685 6.91122312646569 4.94347623213405
Na 6.083728302517196 11.209269177981298 3.379454887203088
Na 13.397655196526081 2.711882244577278 8.375440863672319
Na 8.424726359187485 13.511266257632192 12.196214896169572
Na 9.545310813379295 6.538450727663902 10.733612040255208
Na 11.529584720730712 5.680561257709986 7.976212194825666
Na 11.004953678640588 3.759510848870423 2.8171306225410992
Na 10.01231464797119 10.572277892073355 10.952795357303419
Na 12.6466888523832 4.9892266939215215 11.376313207809906
Na 11.867112144706493 11.24646339105533 7.741107024593147
Na 12.543801755234911 7.3076258467815105 2.4610727063375273
Na 13.563149096558107 4.821811495207931 5.204407882023133
Na 12.025003672139388 10.567809724015602 4.189740593789836
Na 12.6251205539388 8.361486353793369 9.980433528045985
Na 9.163894986875553 9.496288638696614 2.496134848547208
Na 13.542982016703416 8.2540944275257 6.2536972508259
Na 15.00726870698484 5.851067750801967 8.589184010110957
