53
Energy = -57.49153997 eV
Na 12.388717269365703 4.084818855823471 5.364489043228957
Na 10.349689952173069 6.3187598948731605 3.1548685109426775
Na 7.8529424506753385 7.624268758887012 0.3932908411201111
Na 12.941942832361281 4.741579929576144 8.870929084644482
Na 13.318563084609732 7.517857536879208 6.482846173067641
Na 6.592901831309623 5.307034256856341 2.5452044409773853
Na 10.388769855304197 9.66171187976183 1.738671316872355
Na 10.281261319327294 2.4487974747806627 7.960629380999968
Na 8.80058629824561 3.341657701586034 4.781276967649123
Na 13.742208114174197 11.150913130509814 8.207133545316637
Na 7.956672836367632 1.5896315208886609 11.00880207785686
Na 11.213219806718927 3.07899788465374 11.333198901750977
Na 11.055979931752258 9.847879787412579 5.166389977585636
Na 5.014045338669198 2.7638167503134508 4.430123250764398
Na 10.069540078276354 6.243444955174197 6.789632124377936
Na 6.448972166302792 2.127768009530502 7.729327651478381
Na 14.04825388207571 7.95222298122032 9.949221469410457
Na 12.800890308782634 5.947230096134094 12.917613621674047
Na 4.593891612374575 8.66088458353668 2.082327161158463
Na 7.019024871095076 11.018536189390495 0.9826291318922454
Na 7.7412914986606625 8.589353990243143 3.9558077198810593
Na 10.507389198829284 6.742175014632549 10.648456416957533
Na 10.884774548791512 9.655220710527141 8.648366302894201
Na 6.444294256958989 5.548968686149383 6.201787205803138
Na 10.643091869936251 13.023081611705994 7.049161715520845
Na 9.006546667999597 12.429321536337985 3.585963739138304
Na 12.304798207260593 9.662727626450678 12.311941864233972
Na 3.4482968550591506 6.054428162246369 4.100268890128838
Na 8.02272025594741 4.677626722625935 9.436396577945368
Na 11.035923025697661 12.692242364279773 10.79437169386894
Na 3.304914550151284 3.9627960895813388 7.426699534857994
Na 5.278357215580437 11.830802247564561 3.906769266601461
Na 7.740783031739844 10.983611929106866 6.572460291078457
Na 7.13855231453103 14.354092516986519 5.880732614245924
Na 4.827544413757798 8.841239859256293 6.2032870177385995
Na 8.719164682720553 4.403984260055076 13.271536124313748
Na 4.949042391942526 3.9421830101114566 10.977874164096848
Na 8.7790221956279 10.048929384307154 11.408069555200369
Na 2.1569436709943934 10.069026813646136 4.735903416666035
Na 7.690011289549677 8.151767024402949 8.469808971317937
Na 9.828268524250463 7.757317781253039 14.234848956982393
Na 9.946702842422985 11.40383717391018 14.337389486622852
Na 1.4945776116352838 7.005209795496559 6.764834838311942
Na 4.356835749273796 12.228370497408807 7.297434110830241
Na 7.711670320926286 13.068801922543258 9.253951508685923
Na 5.463546821307031 10.37746799487189 10.324652344898226
Na 4.571109335350841 6.837799038509574 9.054830331024666
Na 7.135806478057926 12.885579060700326 12.61608078085026
Na 6.839355819096628 7.022467261987692 11.932774289265726
Na 2.2357472290136005 9.557172166904463 8.96515476056903
Na 6.551010092255877 9.651681040658193 14.158604787972909
Na 3.504465034894993 8.042306170978453 12.238662424979257
Na 1.5466572363031774 5.742443309832419 10.102661757813477
