51
Energy = -53.17024324 eV
Na 12.750629352973341 7.236965427353808 4.490182669022241
Na 11.699693097545191 10.495789822054011 5.4136077789678945
Na 8.644628252345935 12.081550438389407 4.798904526588181
Na 9.35056586886257 8.26650785536196 4.071262149827387
Na 5.996496763793733 13.340148890085128 3.1299378711650827
Na 6.488156528158626 9.899326917810878 2.9725298856325617
Na 13.848066262414735 12.248275867118469 7.57039297998708
Na 7.115494035036126 6.503713442534386 2.1849719453572884
Na 14.26674103016332 8.691125883363565 7.1832490627539
Na 11.390219058605107 4.264482582241515 4.967053798846741
Na 14.769231603757 10.289484555692008 10.343704322700068
Na 7.948432139568741 4.522317859033128 4.875115893298918
Na 9.745921432446035 1.403160049631394 5.541751471301292
Na 3.470677394759041 11.456147801338165 1.8872035758804666
Na 10.134470619849372 12.788324234479415 7.853773693689721
Na 13.42880826722549 5.286484406778837 7.586288492026946
Na 10.193161365726466 6.830896690965221 7.101968150879767
Na 12.194924626164408 2.1267626877238417 7.936091816349066
Na 8.319198312775178 9.710899060349234 7.387055362070266
Na 4.263183348568613 8.096999135967224 0.9440489172804999
Na 5.0952860026424505 11.404181430551027 5.950113951055814
Na 11.452983632609111 9.719836200633374 8.89250696132797
Na 6.155906029094039 7.470855569335636 5.614679164101454
Na 12.28805553471964 12.826913802197282 10.696781746919694
Na 13.220015436906143 7.124892348543099 10.453731232823264
Na 3.0433999134082277 9.055111716481782 4.208840138951734
Na 10.730977591529122 4.779812133916627 9.806759276281314
Na 3.806160150208522 5.736000982392624 3.4337173643878773
Na 6.575034533974865 1.2678137250748236 6.471865293742449
Na 11.873055456415875 9.653322727762463 12.38838473609037
Na 5.394095652164549 8.466729081001919 8.829915318456754
Na 8.6337653446453 7.604096823188112 10.51941819034385
Na 9.016423065823794 11.105896583772124 10.98579882479734
Na 6.245358889832524 11.88690907708978 9.299144362292761
Na 3.1318115704924687 13.026781107934166 8.533679521565542
Na 7.17651858601715 5.2765778813463715 8.278126325143774
Na 10.628345216243089 6.1219304965445005 12.935654497317918
Na 2.097510631446067 10.002278979115609 7.3516983076888565
Na 8.879775172200489 2.05761074236067 8.98352808933643
Na 2.848463779391975 6.736772064891108 6.69623363915079
Na 4.482099949411066 3.798589398413503 6.120932616750504
Na 8.11620107606397 3.8450899314478475 11.848313812657933
Na 5.4816112495479405 2.4008443949441127 9.633425198020635
Na 6.081431882593256 9.242678771033843 12.381168558028433
Na 9.022059019223162 9.060374672880382 14.076846747789777
Na 3.4249533831922276 10.694593609247985 11.178909817108638
Na 5.283202162949169 5.969107153333469 11.275179998058897
Na 0.2707433827800645 10.815243332202028 10.125776490440416
Na 2.084828248832171 7.612494221002259 9.98657706081954
Na 2.798328745072268 4.369040137334572 9.231677921576585
Na 7.1332879733431325 6.190436204221987 14.257332597710448
