51
Energy = -54.80354432 eV
Na 12.144028157292402 11.173498406856025 6.129356409848908
Na 11.352239791157057 13.963813602909735 8.18344332380282
Na 10.736366224850242 9.777208411206425 3.226223832231225
Na 10.109628950460374 13.515105670939962 4.153533237819774
Na 8.482864052126734 12.379789750374552 6.983425789545608
Na 12.200206315702419 11.73007945468315 11.294956295781212
Na 5.848261757065039 13.988946134118349 5.2432633757255775
Na 9.327144840554897 11.939663621559726 0.8147528958944918
Na 8.702796200423363 13.02604131658143 10.420564946823253
Na 14.441668343549837 12.268569521798545 8.516511636286209
Na 7.441438826825515 11.271303744396059 3.559936567999276
Na 11.935462613059476 7.53041021865331 6.431422265792591
Na 5.363166880283488 13.016925970206977 8.969141650356892
Na 10.50996090484929 10.030979994547348 8.97412725534768
Na 9.86479131350357 6.352410398691774 3.683068012334324
Na 9.028816652139202 10.275607917344269 12.51907145567495
Na 3.9273016398095835 11.239149612495352 3.421036364187645
Na 5.408775395551162 10.64424799553444 12.076392057604577
Na 8.632557952569154 8.806926298426502 6.040863784767499
Na 5.4613501780135305 10.525790626864456 6.49145604369364
Na 2.671304769084234 12.573765844435943 6.573336581881877
Na 11.177103279312057 7.709920916564829 11.748972148019156
Na 7.940831183259036 8.394286613714932 1.3694852931001156
Na 7.146808845733823 9.77926228442382 9.375418367857284
Na 13.712078029375949 8.83564519333267 9.252582142882856
Na 9.18791019264888 6.658766595984846 8.865931901682323
Na 7.294746994570372 7.248303737322905 11.883311174194068
Na 3.1222052204517805 9.96089883240573 9.273413482769486
Na 2.5490848880142236 8.770582293659608 5.904600726880332
Na 12.430256722200795 5.299920653437541 9.445862354194105
Na 5.657678139432106 8.05075948063076 4.073487650268074
Na 5.3374299917364425 6.916849753893446 8.320315224664402
Na 9.295987772486924 5.071633147293472 0.5765465547442191
Na 3.680575113368833 7.272821987665239 11.552075507868745
Na 10.624618843925616 4.075944724520382 6.5583299723706086
Na 7.3311441625692675 5.325521966630403 5.839314208127291
Na 9.379754957278498 4.358161158420126 11.767042468560197
Na 6.305347235395908 4.982526736206476 2.502114157164503
Na 1.785051471824093 6.4016516379801125 8.54745493441148
Na 3.7121743844100425 5.328417020863917 5.370993828676919
Na 5.612335572957009 4.120740054506812 11.778858471112631
Na 8.972616766839991 2.8029393942176664 3.5561600091028924
Na 7.381163019589671 3.50159153555486 8.788237186388448
Na 10.765153505493869 1.9866192397210614 9.501838929792251
Na 3.8079582530551925 3.3412529693607707 8.365351728522471
Na 1.9790258218271406 4.001501493301307 11.28349981934547
Na 5.724944048756523 2.258570194778896 5.248180403314712
Na 8.727659093482105 0.9528103446398127 6.764779157338295
Na 7.649791215973683 0.9824218926750676 11.059965901096911
Na 3.956915820936008 1.0591353780402635 11.16776065490407
Na 5.578487247153815 0.19127730088634842 8.191918303921351
