54
Energy = -59.06839352 eV
Na 7.988512973222582 3.0411807410876697 13.368813436646464
Na 4.552227804111019 6.858509613976206 14.054984810109717
Na 7.957617820911727 6.138898610396333 0.6791504224427094
Na 6.849403216866567 9.576138376522433 1.2567854464758696
Na 5.235108056501366 3.6521475137233 1.5527897719888852
Na 11.126746023037699 4.681006631662021 1.4711603835687346
Na 2.269638834005448 5.808535444818267 2.676204445260174
Na 3.317806744534208 9.496313003817589 2.363121113124525
Na 10.391091975186209 8.378861147632472 1.9699794846104834
Na 8.590913483254841 2.3714107290749453 2.5881883658880454
Na 5.690703414082944 0.5330394110408555 3.4164742272293838
Na 9.278548228645665 11.855515417996425 2.5963571550795006
Na 5.576270494288109 6.84905817721351 3.311559319320577
Na 2.8051129825949164 2.723355653347507 4.50327618717512
Na 5.854677098862004 12.066135246311681 4.014281315700755
Na 9.066995835084793 5.788106871155534 4.113236922001871
Na 8.063451068906769 9.318690117677697 4.593676198664982
Na 12.470161787063125 6.509948924068847 4.616477916574944
Na 6.207075135613692 3.647735145477133 5.036294541829031
Na 0.02297284673708032 4.974465887901694 5.584304757654832
Na 1.0240031095465258 8.433063607453915 5.103476876963776
Na 11.359304305269086 3.057855535910542 4.959543214749011
Na 2.2574630605353585 11.931403411411642 4.952501838080668
Na 11.58970081114121 9.992227924488327 4.916064258677307
Na 8.463819730570043 0.8435818297333564 5.880830352512199
Na 3.3137589786414217 5.911164345198826 6.184656305917432
Na 4.455446972706562 9.379470479097685 5.779427731374585
Na 6.717957606045719 6.8236426303677025 6.663378732373037
Na 8.901665142166248 4.1259578463909055 7.453063992182748
Na 4.509495144409676 12.435452660318262 7.740414129579041
Na 12.345314569959447 4.973361490156685 8.00793850432386
Na 10.100558168102223 7.681658574404498 7.216134706605719
Na 2.182047383772281 12.618213898276913 10.556864058359972
Na 4.819916937045723 1.0612481579540314 7.1610715910353
Na 13.464785829546233 8.339593712377713 7.700830080224027
Na 7.5564665090861 1.5821508114687963 9.578380128192247
Na 11.084097240206408 1.5614180938785793 8.296945390516813
Na 1.6910878444846047 10.195726138389745 8.136455482532627
Na 1.9157356054735162 3.3492064904116656 8.280763541197139
Na 4.329451764392149 7.897380227641713 9.196841227106335
Na 0.8403428201229967 6.789968120974856 8.683714404483439
Na 5.353033603216319 4.27162406216165 8.725900943478411
Na 7.338558656052169 10.094843624289366 8.193387480699224
Na 7.778179373723317 6.717984465391443 10.041323414509868
Na 9.981527361419484 4.0072344917637155 10.8801526190108
Na 5.149795655249561 10.979853907653816 11.069168348266947
Na 11.260490984321962 7.588688209312078 10.560693018123077
Na 4.0604828148059875 1.7741652210114232 10.755703415596964
Na 1.9968970232802723 8.969985869958018 11.587027472949899
Na 6.42426025921216 4.1667392996073 12.172559023348425
Na 2.967724953324306 5.31073701499136 11.279717307415615
Na 8.327262686072265 9.74331576763325 11.762343721533218
Na 5.405325831971306 7.68010777373758 12.741230305725356
Na 8.85385770808184 6.576773908744419 13.368813436646466
