50
Energy = -53.66974379 eV
Na 12.805777021496866 11.699223604475534 4.579604655247218
Na 5.867168987079478 12.910907919277141 4.837274390746125
Na 9.364487247902076 12.279527786794409 4.77779297966691
Na 7.351785166753613 12.576770030447168 8.005503298529021
Na 6.963556538502491 10.404804519262216 2.421164413511616
Na 10.958107100058164 12.170645917145777 8.10970570323888
Na 10.46870194177888 9.48771117858544 2.7484136177523832
Na 3.5551973465122124 12.716012252065209 7.572538324385504
Na 14.101312802036269 10.292300326131882 7.479716157896087
Na 3.747917524571876 10.16838354236475 4.826144339471432
Na 13.595753338686647 8.18029689955775 4.320105505946566
Na 7.267651450861803 9.603830951490016 5.744049215824534
Na 8.11229948063403 7.233894830458747 1.0792727443995271
Na 11.48437195280283 6.157822657858306 1.8083229853834073
Na 11.747192910832911 9.155188598924013 10.114196119119606
Na 4.932932337119219 9.628630787186875 8.37736635056649
Na 5.145459024609436 12.349290686040147 10.78635272593357
Na 8.327965455474446 9.067035571007398 9.132051254641096
Na 13.59528199878485 6.8028018730410205 7.993149544898971
Na 10.888750375513304 9.10577444331708 6.3891451783389135
Na 5.476968702024649 7.170333901715555 3.637899462454525
Na 11.912257892257461 5.070986416082066 5.246286964995201
Na 8.840649378349836 11.655747268432524 11.26299896814446
Na 9.134398909417191 4.242802467023375 14.791599937544241
Na 8.872149201221188 6.623837848417676 4.556816877595178
Na 9.357237832486089 8.225555003807534 12.740194737591516
Na 5.9358049771972485 4.300486792660362 1.569568322249861
Na 10.146676946515337 6.173830181033368 8.244954800414465
Na 1.3771910283303002 9.75702617014195 7.650762390667867
Na 9.118561079199567 3.541354525460898 3.099734540551889
Na 6.686609572474959 6.362786886695394 7.358583037394861
Na 5.97175895040859 9.15884435188465 12.027814710108013
Na 11.670981316411886 5.664050591039802 11.378775773637608
Na 2.549762138032504 9.669911758844446 11.030324315408851
Na 3.2936823446693237 7.037530008993003 6.506138469767915
Na 12.320778838424973 3.455539052164643 8.486565184663945
Na 9.02451738725272 3.2782021220201614 6.776197024309195
Na 7.896185272251708 5.788519232403085 10.868092025136152
Na 4.546333409906986 6.4087571612958305 10.218876122038077
Na 2.8336477019287933 4.697631372634504 3.8338032010276692
Na 1.1397794792256843 6.513357903198308 9.685374063314004
Na 6.112273954153977 6.2412657660545126 13.944138878462532
Na 5.8820074387853785 3.7617728105310575 5.166881182505037
Na 9.393611784844078 2.756138692765767 10.465016971840459
Na 2.5794648999919976 6.8569889997044715 13.163839564337454
Na 2.9711795058402726 3.8936802086544904 7.632947767429038
Na 6.269298328496809 3.002308052507859 12.488958621550287
Na 6.130721853031173 3.1400945079933154 8.972570297327211
Na 2.8447397940427703 3.6168041573006766 11.30749056776547
Na 3.600593609108971 3.8850551069379913 14.791599937544245
