55
Energy = -60.45195244 eV
Na 10.498112279739505 2.0959032873913754 2.228757272089676
Na 11.222269743241574 8.166877510070234 9.23172699242234
Na 5.009279824183122 4.985589528748781 9.277280260503902
Na 0.5374771943538031 7.735811826215397 8.913397127656712
Na 3.842316064063646 3.4398403189007474 12.221709914584228
Na 9.884390269134014 5.487889723220896 0.9379545339976848
Na 11.792916128987128 4.85289971342073 7.734522933699372
Na 6.546869443457733 5.948978408853922 12.485528937469867
Na 5.730467169589091 9.4444464387901 11.590299802129298
Na 4.992650109942547 5.041124606911442 2.960173791871579
Na 9.293725461845026 11.013319677179902 3.5383208545829405
Na 5.068617993332954 11.955789209867953 8.889554591305005
Na 4.280995577519138 8.24961955778211 0.971964668765095
Na 3.964257740818764 13.49052539115044 5.490219092195543
Na 13.051125066931217 5.244536682218799 6.104284756183616
Na 9.791275805743187 5.163220336530188 10.95312771578653
Na 0.8608833963554747 8.78296960852898 5.44942079078269
Na 5.096076593325861 3.004200370484047 5.936066059032082
Na 7.4889918408980725 7.694276155760902 3.03333239845431
Na 4.429839075243293 1.4213229806891394 2.1969496507937825
Na 11.144791312036322 8.201807599177224 2.860337715254488
Na 1.3969143606143484 2.1202806488605135 6.882825836709251
Na 9.1440612501464 8.574048985738711 12.239081040818448
Na 8.459688328326882 11.044502858668682 9.45120049466784
Na 3.9239647623035827 11.754356840226974 5.487659998705955
Na 1.4291870714828157 4.360484042088643 9.539306207945083
Na 8.46831970344802 4.309743762734324 4.082711788295005
Na 7.423663213235113 0.8763112411218816 3.9799725497621314
Na 4.115527184388462 8.467123023630219 4.398526568334069
Na 1.523129021675402 6.486792250743123 2.775984599951255
Na 3.394885107704685 4.426791886314911 0.11797405696899921
Na 8.295064238460938 4.086941965237866 7.815245430995851
Na 3.0829592471755882 6.916566111051096 11.664884174697585
Na 1.8807812541003561 3.167717042788901 3.682906057770209
Na 1.4880558209369394 11.237090160065703 7.868443635758186
Na 4.0949824176365714 1.4911105660832584 9.102484067363077
Na 7.669141162244553 7.516678116511425 9.229994512380378
Na 10.5044623597866 1.8605700561585365 5.824579780218031
Na 13.051125066931213 7.962475674455974 5.946351010128344
Na 7.167964538483486 2.624194047650085 10.97647615856001
Na 9.693747823508508 7.2544915818808 6.043445761234987
Na 10.373032890727357 1.836418073305194 9.413085009998834
Na 7.034572337249798 9.776263876908098 6.255529617941393
Na 5.991934438333159 11.052375469077512 2.718287821825188
Na 7.565546956445148 13.003308667540418 6.145972683735381
Na 2.346749430816809 10.275511842888125 11.045848711449372
Na 3.9949843775945384 8.613300046112258 8.238688779694817
Na 7.2700776529176565 0.6791923316745301 7.637758356975498
Na 12.032663598370975 4.9144731036762375 4.0361026762801515
Na 6.650350030637329 6.15006501254102 13.31289104714075
Na 2.709352213870067 5.6719495075909325 6.335931823019892
Na 8.364007948707673 9.311332000424903 0.31071355326508526
Na 7.2499519817180715 2.914658663334923 0.8048809184181163
Na 6.210663093010832 6.34365698958688 6.160543978350335
Na 10.67462206899309 10.701735664158472 6.672242473803817
