54
Energy = -58.90243139 eV
Na 8.260833072215151 7.520714332855674 0.5225777157862193
Na 4.5458098341691375 7.56201716688816 13.22107774934847
Na 7.195582672696263 4.339093455509309 0.6311799702204856
Na 1.9061317107648867 6.576191293402458 2.536135260845665
Na 3.941541764245956 4.125186272916487 1.1260988058842802
Na 6.696438598216137 10.35277501435742 1.507012064215577
Na 5.551110969311947 1.0530202770857253 2.4812196143246172
Na 11.136840100971463 5.208650857748614 1.454960773714747
Na 3.233737908993863 9.89907869962863 2.6637601811555336
Na 10.670328791292992 8.947007940954801 2.418451682751049
Na 5.515842015188955 7.061539719331678 3.0901411670440306
Na 9.07587897336127 2.2482198233852464 2.3568017235588523
Na 5.728573855644554 12.167950517557061 4.387434775681466
Na 3.299786486392731 5.865088253231513 5.8323472436197346
Na 6.069198904907538 3.7982419611946434 4.378485907730551
Na 13.160814170841338 5.127182750467351 5.2061745345607235
Na 9.271662176691917 12.116499229457334 3.1672740437914673
Na 2.463814521293838 2.9241831658831683 3.9600504892324055
Na 11.338748098420844 3.266390823425722 4.777871894681988
Na 0.9193503209579297 8.635603431840535 5.376137287858202
Na 4.424456650671112 9.223685698926138 6.005171563198028
Na 12.358363390001745 6.690461215330477 4.789227535605888
Na 8.181936786649924 0.8719491492053424 5.3313171004364035
Na 8.910735997193083 5.87798525152321 3.875769054678413
Na 11.31255714178418 10.207675599179389 5.6551299304547324
Na 2.269898250322139 12.020339136908163 5.522079826757308
Na 7.889705550818603 9.247160899185022 4.7449021893229375
Na 4.601227529929144 1.0351182915864356 6.327081829283383
Na 9.780463533750845 7.345265368310327 7.25090135468821
Na 8.605720927773769 3.996077108638643 7.090689723661426
Na 13.136340455758525 8.203542836252813 8.067227578379617
Na 12.108271732122725 4.708173428792541 8.014255580695938
Na 10.806186585302163 1.2662870208337222 7.805193683726042
Na 4.686357411901298 12.229653887131942 8.270423110393955
Na 7.088652654366151 9.536868895823611 8.467917388954133
Na 1.7012133968818992 3.1273522576604122 7.727844190751191
Na 10.447829232925272 10.19576598691585 9.58799440471233
Na 5.181729632646 3.9747093379564293 8.263782207741793
Na 1.8959373751269497 10.023350051722906 8.61557771035967
Na 7.305013764526129 1.1465518248069129 9.046266804635552
Na 0.7461236264958796 6.576551463183632 8.447257994838186
Na 4.192752523811217 7.331430060685752 9.112707914734825
Na 7.535382141069275 6.170037533112678 9.879593037329057
Na 7.545491171619463 12.297691109530145 10.669849733119934
Na 10.94726153656486 6.852791753898265 10.734324501338886
Na 9.74646820580243 3.424764559768284 10.554215257756553
Na 3.782963616210017 1.1351462393571485 9.94204684733576
Na 4.693734857161195 10.213496317554256 11.282108308310757
Na 2.7661925637721634 4.511130260634698 10.958333659001552
Na 8.051627904699085 9.031614237668009 12.059456716247295
Na 6.104294789505491 3.3438456106322847 11.732039375648515
Na 1.7993338323211407 7.991763924206719 11.639888256830279
Na 5.17949311519095 6.844002089646559 12.567100161377839
Na 8.588202336407239 5.600321224089736 13.22107774934847
