54
Energy = -59.18587924 eV
Na 9.867330943052975 7.197297128638575 8.041735929949667
Na 6.577960048531355 10.180679304744617 3.4065481408799205
Na 9.485458414804288 8.5618464498204 4.670161624712762
Na 3.301956445686837 11.12155471187724 2.6788963885314616
Na 7.161202641333656 6.777420140154916 10.144696717352733
Na 4.079302392731418 9.783690591544735 6.0603963816734465
Na 9.808947460759368 5.010020419040092 5.405223621274579
Na 8.354914733088737 3.7961183784266117 8.720451497361138
Na 10.744970251325995 5.878903807768621 2.172065502270327
Na 4.089593079693993 8.186225049351346 9.435689451654067
Na 7.021648495445104 2.9987136711631384 5.576768188826135
Na 3.9926656039914286 7.5498591564937865 3.399414911376175
Na 9.735002925262835 2.4704818499937655 2.9269508822234354
Na 4.589782797509883 5.045320225632518 11.848870876246623
Na 1.717208393789063 8.157709784913765 0.9676525580128332
Na 5.307063128782645 8.580853765339608 0.32570263667839494
Na 6.304274007433212 2.6396710986593264 1.991906245345765
Na 2.6149284479734898 6.6351906514235095 6.472398609640857
Na 10.544379395654095 1.4893831838174998 6.423295500272858
Na 10.263164306299364 1.7326551192912614 10.430923012059155
Na 7.513343579215382 5.547829139391627 13.351758254218371
Na 0.755445598035058 9.106320220198615 4.4406786285471505
Na 8.887173728400606 12.113518942911865 5.150577525362768
Na 7.1767009683849174 5.991641598327018 2.992916626057313
Na 8.763881582862156 8.742094923405936 1.111076196270577
Na 12.763362109118018 3.6333046026098694 4.497552634830865
Na 3.912144201883336 5.183310832920274 0.839631804412772
Na 0.8922906825175693 5.514637398565097 3.4101269773305845
Na 3.9314766382784585 3.9271304401579026 4.404855293312369
Na 10.938024437563566 10.49146969184334 7.668449013458302
Na 7.32468763858933 9.82648261249979 7.601084839143269
Na 1.8619606001255578 12.328919901369636 5.936233427285928
Na 7.851494833744515 0.13658234335219568 8.111567113073278
Na 7.7678876848924805 12.945519397744604 8.58117946600691
Na 4.466621274516393 1.0983973013205073 7.144234576100319
Na 7.658133482479867 13.521977429631818 4.553018136614277
Na 1.310213282404051 3.4147362959008825 6.808994068285049
Na 12.645253975776747 7.107581638958244 5.8136847528320255
Na 1.0143323776658224 9.508158609180276 8.143608968929975
Na 6.418162875556345 6.679196639660765 6.3582356174082415
Na 4.651522769021192 4.402306365644825 8.366124685583204
Na 12.893541928195146 6.513276904035244 6.669551097033295
Na 5.459021285879207 12.959479941076621 5.546641973314469
Na 12.893541928195146 7.799224765795595 9.456573404037988
Na 6.01576836790427 1.7875549634232248 10.53475100560725
Na 9.945975782761737 9.265632131460833 10.92629212252617
Na 2.521389129758055 2.3594958811017275 10.147720050335824
Na 4.135204346398534 11.896505634514215 8.835361838984834
Na 12.16659713576465 4.259572001572905 8.22895961405281
Na 7.975775050294461 7.286493758274562 13.345025043113017
Na 1.3774283910745564 5.838693178344463 9.645160786575305
Na 6.5386739118111645 10.252779656274 11.106435471932413
Na 7.986726943339011 3.8201528433095966 12.512704127277885
Na 10.69165603503335 5.613595997718141 11.326654654393243
