50
Energy = -52.61893451 eV
Na 2.9818011759305763 10.499979372096762 4.5097998494029525
Na 4.427387035838469 12.17483321247932 7.40525374388447
Na 6.4186803142515805 15.387716273930828 5.993419343690145
Na 5.835833855241749 12.42182000189376 4.0777894894127025
Na 3.0038132981487116 8.535389059055472 7.387048689898952
Na 3.3598565094268653 10.36755225314203 10.210879164063742
Na 3.7282445243972324 7.0294726459807775 4.268685881447704
Na 4.575254132876147 6.659725138411573 9.892723319719448
Na 6.7707689947625 14.341705222026702 9.311650386912415
Na 9.177232756829106 13.97615304709491 4.27209895447786
Na 5.659005587613753 9.428478009421525 2.2761786782426743
Na 6.1129235673399815 9.277257836691456 5.812976613128381
Na 3.7520701901037024 3.4880197701791493 4.690549863689825
Na 2.4039903963691867 5.141921407401704 7.438640909704009
Na 7.88344017750188 12.10204974655949 6.883811500388509
Na 5.169043727464453 8.740287331723096 12.667862716222743
Na 9.72832873306067 15.03356859887632 7.640019830369589
Na 5.861922159393852 5.777564315504784 6.742675583139202
Na 8.857314379436415 10.424411379776416 3.8491185155954524
Na 6.6601267844828085 9.58144652803302 9.230249349127849
Na 4.330570704283859 5.465075257627738 13.135269999310209
Na 6.019003025221446 12.065507776320652 11.734126606788477
Na 7.4556826119777835 6.7956970303944555 3.631739321906889
Na 2.812983584912354 3.6507863900539936 10.661974443608683
Na 7.993686264125697 6.2714667402651365 9.310785111958412
Na 9.538912504475867 8.94896987664569 7.486690326626544
Na 8.465601875521402 9.705758018940456 12.472049369194849
Na 9.50963263188522 11.994926194482664 9.901089085121939
Na 11.344633357235852 12.157211701222657 6.380340083139127
Na 9.444378416920722 5.578094575673866 6.331989348213743
Na 7.207871017091502 3.1856565405253643 4.722648688674225
Na 11.055896856040867 7.8498250214859775 4.193392952014824
Na 10.078349107914121 4.673818505558869 3.055356490855185
Na 6.2884150827303555 3.463259397540933 10.946498013443875
Na 4.734446274898498 2.4648954461491965 7.849323640124407
Na 7.842937991788532 6.2460129367899775 12.83091134460648
Na 10.970275397102101 7.381604918579812 10.526356645220426
Na 12.47130500979889 7.027756827349991 7.330551867851995
Na 10.928072144883116 7.682045681124037 14.041059420504622
Na 11.713060532400972 10.780752826952257 12.40359431432163
Na 12.456625889443172 10.207792538496175 9.091275409572349
Na 8.219306483355233 2.63646113802765 8.142633916340827
Na 13.776460449080652 9.812498046982212 5.7622321877264655
Na 10.479532149139956 2.2227560303472904 5.523670506691388
Na 9.661327671134053 3.637224541766148 11.274171727961036
Na 12.544872621072205 4.9399725225149975 12.581712272369177
Na 14.11026244974757 8.333531063212401 11.977608984064345
Na 14.30206346295708 5.491167526371686 9.76242714772263
Na 15.456350457232148 8.530541501762128 8.58708237420149
Na 11.615446626498137 3.7517209852900963 8.471775632702284
