54
Energy = -58.33478572 eV
Na 10.059898172799125 5.600413868980867 14.542664393581704
Na 6.974520031014164 7.349827146462506 13.79809406627376
Na 13.717424126090389 2.0359164816245587 10.837488202401289
Na 10.383898217716512 2.6682912401522683 12.491963464033951
Na 12.846512368597502 5.274885293671823 11.874810053036876
Na 6.94849221751924 3.8726656441122618 13.165660269088661
Na 11.763357215928819 8.506270634830335 13.115725511890897
Na 8.541294209179583 9.688125732230777 11.933491962075264
Na 14.023609519540695 11.130675041073154 12.154266794499986
Na 11.021654050950985 3.2688813247669612 9.090151719595777
Na 3.7210202731383837 6.096413924130956 12.695330658142863
Na 9.483829218746001 6.1661715176610725 11.234252320540449
Na 14.341184175047397 4.78927163765445 8.4278636197511
Na 7.64280796997188 2.527548654737236 9.989784601582754
Na 14.550839489450123 7.994127225272427 10.440555732223256
Na 4.15943374305564 3.0166987952864384 10.741302949922817
Na 10.595398117261327 12.27898127328991 12.808304403733215
Na 6.134394362260779 5.979374416573999 10.26403241109848
Na 6.644379968557241 12.612529334024494 12.112620682151958
Na 8.341043064127403 2.2441800803165495 6.360185080187268
Na 8.432029868646817 5.387943239601856 7.722293619698723
Na 5.213492344579848 3.799233629175197 7.329129224298962
Na 8.267216192516763 8.8062318565782 8.602104398304336
Na 11.653215432364652 6.968631452283722 8.484655005476368
Na 11.56724050906255 10.191228456640117 9.995919849956511
Na 2.7073287208209567 6.052644993713719 9.2049929225788
Na 5.022924160685035 9.152779058132957 11.03750437726504
Na 1.746979761301327 3.5776358809326454 6.8778242952361435
Na 3.370147466214687 12.320443430641605 10.703777150552753
Na 11.307411805926698 4.210328852251785 5.779127635557376
Na 13.843486368214055 9.477848789314587 7.255488403647625
Na 5.637777086242722 11.246519183003771 8.138035636435044
Na 5.269100691008026 7.388642474569893 6.871792937517509
Na 13.673569360552754 6.562176429928488 5.281238657987502
Na 9.8321954866264 7.668504555117961 5.439997271756217
Na 2.4005473321796624 9.482683650515204 8.40527165110331
Na 8.904293981332096 12.577881676757078 9.558164682147833
Na 7.422606125777904 5.350809255253968 4.267030508310229
Na 10.558948352852811 10.878939235361766 6.65587436219381
Na 1.9427712235762706 6.96331122048071 5.664673744037322
Na 5.691924107227181 14.576182704294695 8.845574927526506
Na 7.071669950562502 9.924469868542227 5.191608206158595
Na 3.91581256030773 4.4172757360995965 4.111268355721155
Na 10.924765941335313 5.963303252143528 2.6631204404578677
Na 2.454289350255977 12.915314718204321 7.437850178216614
Na 12.172108282073944 9.347037280865573 3.67931652728507
Na 3.2896260770731525 10.243520196252167 5.024722018987396
Na 4.817953506493263 7.6859318257789475 3.1000085422823664
Na 8.29572597020514 8.369063807422373 2.1526845806799315
Na 8.144000781304925 13.564060650283482 6.2133572534144506
Na 4.944542550371656 13.377587062183137 5.061619438956496
Na 5.791773542459773 11.166108077897151 2.2165577037938524
Na 9.382454630275607 11.65598774357106 3.257020633645417
Na 7.366309731834885 14.500070667563914 2.8258496744206236
