51
Energy = -55.28525585 eV
Na 9.177938371079845 1.9580734987089645 5.157246592555976
Na 6.941552889106627 3.951383742657228 3.194775925094629
Na 6.895286568973812 5.085862115372741 10.036982553278236
Na 1.28142960201683 5.873145811763605 3.538490662315245
Na 8.398101326307204 8.106053896651655 8.616798846171049
Na 7.839405429017944 1.5627303085072068 8.546086226490308
Na 5.018926462958641 7.525001746279862 7.831948061388273
Na 4.398943791004834 2.2709729315745157 9.075893243375626
Na 2.8264340201109612 10.667004080884288 8.485395134019504
Na 10.519259923840915 5.027957997640951 3.8573869640041294
Na 0.6404201871355308 3.262625315513501 8.921503046093505
Na 2.428532500788673 0.5969103755223486 6.699771553002023
Na 2.021423223054352 8.30129792403928 5.997416273443618
Na 4.516283950864438 5.699159518494359 1.0941505783465864
Na 10.30155075768856 8.579831108508639 3.0948326795616783
Na 1.2525541308138803 3.1321079135001186 1.386101250864666
Na 4.943206007968742 1.8100381250608355 1.1016389447264592
Na 1.1325666331508275 6.615519786680225 0.12421825538913206
Na 6.30435423013496 4.281920857171853 6.69867932472705
Na 8.495820678249757 6.190187271777203 1.0277353474738706
Na 3.0838798216252665 3.803476982596772 12.20383210302127
Na 3.589367511497883 3.2504721489230883 4.032099231864335
Na 1.2945829278981256 7.526915144976375 9.399129584722631
Na 13.071335259296278 6.1513235256098975 6.572427585634208
Na 7.4812133646871315 13.507226693099915 2.8320226855576984
Na 8.001624325191083 7.018058783975116 5.2178424658664095
Na 9.700219194438365 4.7761675811467725 7.495548968244311
Na 6.3725591968507915 11.00649684843467 8.589538684184
Na 0.175886507788019 2.8119338724975864 5.0618624228321165
Na 8.45768880999376 10.438830190646826 5.680370271184321
Na 13.091462321699355 9.871771347401724 7.399071949420176
Na 6.667895293930774 8.86476329687934 2.464843168113461
Na 13.24285792517171 8.888664043343143 3.6633726615264663
Na 4.963801606626173 8.493885316522679 11.007841689813967
Na 2.859869277988572 9.004886742218442 2.4665540288712804
Na 6.890734174617319 3.6903882845856755 12.714017068560809
Na 3.435701956794184 5.233615649382412 10.688596064702232
Na 4.9437125316553585 10.252777492386018 5.377276031670867
Na 8.116655490187355 12.305720971355797 6.238125638358399
Na 2.4559432815730124 0.03828633542605058 3.1299715332951275
Na 9.462383239617143 2.48637733031707 1.3420979092855685
Na 4.709853392209732 6.62686861466325 4.405688947555229
Na 1.4748627878768032 11.615966760946762 5.150690073617382
Na 2.740910084964167 4.885915647380752 6.968023514972935
Na 5.692327877714029 1.0305831610014653 5.55401351274904
Na 7.770515326239141 0.06936073385747908 13.147457430596157
Na 2.064616187761228 0.2532564269988324 13.332839924581055
Na 4.828909420852111 12.087822894182775 0.8490715271118662
Na 5.229913852511459 12.6457321480042 8.34424642183921
Na 4.851384095659639 11.615966760946762 4.600377033995546
Na 4.925584881842806 0.8634978554805722 11.37715659037618
