52
Energy = -56.71464987 eV
Na 5.277443080311965 4.4555572491184074 1.1294513418140906
Na 7.952696022719251 7.479443776524229 0.41260762289695735
Na 10.30025992645808 9.522553634038792 3.0820045071281092
Na 8.683516616713206 3.5669835368952336 1.4397355176961684
Na 4.31485400320409 7.900969449695547 1.913834435129253
Na 11.282697830633964 6.1832901452199565 2.4482495138003815
Na 6.740089674293958 10.344866563636094 2.859304678772401
Na 5.916440247207253 0.8498269891046809 1.7327873957815156
Na 3.1830355387251896 10.855373633877374 3.9315182682307563
Na 1.8012918809820224 5.160310336259316 1.8818572270337541
Na 7.641381528407543 6.595469246301716 3.5073513415395423
Na 8.260899345873462 9.439985768445927 5.986943064811934
Na 8.713142899963838 0.2838725469530169 3.907151163105149
Na 13.489880103554421 8.488190468961834 4.67205781171833
Na 1.5125191783681342 7.782906223873824 4.547102778027474
Na 9.10237450915431 12.527402660882782 4.725795753796023
Na 10.640366366109417 6.975196733279069 5.729548431706077
Na 5.06160995766052 8.29447116740417 5.737252731461195
Na 13.45449197210184 5.064113347698306 5.746009386787648
Na 5.68679993571449 11.992153046028914 6.17580449483634
Na 5.352722191979755 0.09178582010126844 5.574771153778177
Na 3.054923749264595 2.1025403353077734 3.6075283881927485
Na 0.3821224221460965 4.305253683294981 5.233496002712183
Na 6.722944755212176 3.025671369836692 4.208308550660057
Na 4.154841844389444 5.301012630441593 4.388747536497578
Na 10.219940312333131 3.5315378611776027 4.824642493230658
Na 2.573987187195584 5.85267384375549 7.412196287521785
Na 13.489880103554421 7.3275450890918785 7.519090914790196
Na 8.23970684862512 1.7458750518549844 7.3299769643964225
Na 5.037055083799289 3.342831774541017 7.315936990351942
Na 13.939729945312203 4.081217344691634 8.927046361941635
Na 2.1348425137913014 1.6732064802341702 7.254539420784805
Na 8.589113517459419 12.572307559512431 8.427360073977678
Na 6.53686471526969 9.842505877163827 8.951718833475049
Na 10.830747421039272 4.354742478277622 8.334248342112394
Na 7.502493985980554 5.494289100774567 6.720254604845532
Na 2.837144595510056 9.624716447966774 8.006450068427437
Na 5.219303343221755 0.6315471136850005 9.321664643875122
Na 11.433317229051271 10.548681673299136 6.859660079416055
Na 12.777695335242756 7.572570725183668 8.454404024821763
Na 9.10347172845507 7.436838415907972 8.896596215651769
Na 5.243106814296107 6.714343673254745 9.339036373722035
Na 1.774448626946597 6.889520342329239 10.61601438136184
Na 4.894643636617017 12.733477701084176 9.609394708397081
Na 3.34033976309778 3.572265762423284 10.352632397182463
Na 7.44329639373913 11.599499807766724 11.828037825435985
Na 10.921818524296237 6.374081891092593 11.533202935645805
Na 4.362421460664356 9.48951536129845 11.623228917661825
Na 7.445873102333201 4.158014970511534 10.326830495625194
Na 10.453579954247637 10.052036126677473 10.482494694199106
Na 7.66314810751158 7.91980106686394 12.029631772508486
Na 4.811028393922408 5.847763400062357 12.697097384392132
