51
Energy = -55.45677767 eV
Na 5.398198662741843 4.976168588976676 0.9423812107286931
Na 5.924729983732285 1.4777357183102793 1.9636006111031197
Na 8.541121467865452 7.050518401728436 1.0417418209169051
Na 9.00935326908716 3.4066101865304694 1.7182365128180608
Na 2.7339688565616274 7.096614245785932 2.4036783657402165
Na 3.0611725232102382 3.4626870431234757 3.317151177691565
Na 11.917952898379601 5.587817885239044 1.7674989823770715
Na 7.531209943408453 10.550348941827377 2.4083421801875415
Na 3.805111801230072 10.52334075805493 3.3582434144632405
Na 0.2970990304075141 5.448592215907789 4.804988832246068
Na 6.084494450333006 7.542861328327688 3.4545494646502064
Na 10.938904463013825 9.049586559740918 3.0344333905267016
Na 6.473280741648602 4.004410110328848 4.326460762693766
Na 8.580691621501268 1.022974213472322 4.535970354892522
Na 4.874727801913591 1.0276853590344535 5.515554336656622
Na 9.47008940005466 6.015742750948983 4.284621050366042
Na 11.663728655084176 3.065495962709496 4.357970013870076
Na 1.3051984524673501 8.927663439089155 5.464486004323919
Na 3.6179411455514883 6.116040392290569 5.867651438128478
Na 2.0948013702795536 3.014885949725304 6.896506640083272
Na 9.978510721179282 12.36527500141371 4.4282527337706545
Na 6.302816200344358 12.486928656678828 5.383919521156262
Na 12.846035480427398 6.571547565999252 5.17404018377316
Na 8.548819945979105 9.39910115228739 5.573066475221077
Na 2.4813397075906276 12.12724743350288 6.655589953656706
Na 8.92799796378013 12.046952164888515 7.90702279678494
Na 5.094633351388983 9.426403334305173 6.303933697178601
Na 10.374855224711663 7.07032422246929 7.849869197242883
Na 11.881562662786136 10.053370823747219 6.582511203038898
Na 13.856360819180328 7.56889665752733 8.373521413200859
Na 11.104047402510542 0.7819317383282027 7.129873932005426
Na 13.856360819180328 9.982366734818852 8.605016468181013
Na 2.8229332782905017 9.374798694833324 8.699331944779871
Na 5.329153267559256 12.05833978751608 9.009500253431344
Na 9.092898908424866 3.658159506428833 6.9972753526845235
Na 7.546776806252085 0.6660011835517657 8.204859454292356
Na 12.494897877962687 4.125596208773719 7.838347037532217
Na 0.8872208121007787 6.39030551231455 8.263956889601708
Na 5.4988442109551405 3.547816787238013 7.888214492930755
Na 3.9311576394649794 0.6850092168632423 9.060232061480377
Na 7.046219944780396 6.50909668245911 6.801710804338648
Na 7.4542588823074665 9.083749985092576 9.206148822947597
Na 1.9213531267108237 11.749682542192051 10.772794620948138
Na 10.0003427335303 2.549449735230364 10.200395904624136
Na 1.7096704195738712 7.706000593064815 11.523866737626317
Na 4.746274828932803 9.533088806249907 11.697708956005235
Na 6.239953231138225 2.587811226513945 11.238165138049444
Na 7.928373567235568 5.486174997285641 10.168439464243109
Na 2.7974446334758283 3.9786065972639935 10.440066206799461
Na 4.646365550049988 6.677249834525431 9.392726116380695
Na 5.108415015991863 5.892817410807802 12.67345644695249
