51
Energy = -55.57882182 eV
Na 6.092674426239946 6.223772642461282 0.559264451764702
Na 9.527768626676435 5.303716888222963 2.155010604872297
Na 8.966848346074377 8.85154486225401 1.4378013409429955
Na 3.3378980042293906 4.092439207521773 1.8580707209561065
Na 12.353320119840639 7.48428720188322 2.3234234777012266
Na 3.0373949858916687 7.429675617430245 3.0319748378468856
Na 2.1247198883191376 10.878057433222237 4.200006843256882
Na 6.546265260311576 3.097324019945702 2.5360668047432435
Na 6.7648976532542395 7.153460985638124 3.6797370291187987
Na 5.415732606274267 9.996269448391116 2.1216835515775614
Na 9.82078567420593 1.9930195442462313 3.838451107146254
Na 8.09874039605057 12.44815682762476 2.0834384868483866
Na 11.942646021617184 4.784290544956662 5.403336318640796
Na 4.577633902670199 5.088348403638204 5.3249489811825415
Na 4.648812230802314 9.209263125286821 5.785611772745275
Na 11.266958286991215 10.911539427783465 3.3420887864803914
Na 13.625032288610186 8.802743985189656 5.2658107757731205
Na 8.251700252311746 4.6200084491116 5.353108231958833
Na 1.0704515987769256 4.61861281355904 4.856362515911631
Na 1.4130072787818637 8.00994412681457 6.31686979972188
Na 7.96744373409237 10.308537426489632 4.726355875931854
Na 3.1151405866250204 1.6961636319814046 4.52129772906722
Na 10.211207582374376 7.730572333353881 5.1380776594044875
Na 5.399157676682812 12.708018441163004 4.798294533375786
Na 6.380133415749375 1.5046707807674928 5.895326914781558
Na 9.035121849748407 13.513675696879357 5.403338970492376
Na 3.4776589325380414 13.513675696879357 7.425594773465905
Na 7.053665520164831 11.581636006375936 7.835595565701453
Na 3.2710019215977257 3.142608441306285 7.954918332188357
Na 7.156368392531579 7.738112333241264 7.315665353343481
Na 3.8528914702747956 6.529243022122333 8.720338653667342
Na 0.35336181705287517 1.7118101642627939 7.25139576109941
Na 12.389696459072042 4.024000628259378 9.2436258055006
Na 2.825664521665601 11.263940191741822 7.843912976191
Na 0.12282985521807784 5.27693358115762 8.149102636917766
Na 6.06811153120001 0.932989646485558 9.560327457930175
Na 9.685545290853472 5.79000773605243 8.350997434351944
Na 12.517633745694875 7.688451422576138 8.362007007478859
Na 10.872156037517943 10.793858731812836 6.953514387845153
Na 5.057013604059787 9.610165125647521 10.014960941946295
Na 9.613791040403006 2.236893060534025 7.558802900637775
Na 9.225610632040073 9.243931932128495 9.743588316345821
Na 1.2933453431915565 8.42057340956934 9.976789937158662
Na 2.37171262756609 1.1689411043992437 10.56096515190062
Na 6.5383000202375054 4.23405819870688 8.312360077891118
Na 1.5688625785692214 4.696646096706932 11.11846163845199
Na 10.757807468941296 6.411630947988676 11.569644978878818
Na 8.719114587554735 3.401861482071868 11.001246824322218
Na 3.800975150486811 7.185898986945433 12.402399440351804
Na 7.052048699526363 6.64508854709972 10.914726467067428
Na 4.914009022890127 3.740717596499013 11.453968021171793
