52
Energy = -55.03686535 eV
Na 6.275765189544281 14.585412715923631 7.3191041401269485
Na 5.106719747647789 11.634489904654677 5.424540402852805
Na 8.316197436609883 12.780338596020034 5.1857076867296765
Na 6.997057316918784 10.427207013822299 2.654706345783078
Na 1.939658994559926 10.359123547877312 6.323676110062761
Na 0.24426158448774787 11.998476270871206 8.913568029794604
Na 3.492430722913741 12.959423978843319 8.181230201297574
Na 5.856388633975386 13.262593725602072 10.887146060015024
Na 4.06766078342357 8.567894924702017 4.142562235592732
Na 9.51595905225486 14.018159130781504 8.422689392197832
Na 10.438922457902672 10.368620539284343 3.945420382185223
Na 7.04984980074697 11.236579657453408 8.325718199000752
Na 0.8682529501857447 8.55618856259052 9.29424795945338
Na 9.259587367180291 7.418330078067528 2.8624624172245956
Na 7.432673936573934 8.884495128381703 5.788720239495687
Na 4.371518036267659 8.914171982068668 8.30798825659858
Na 11.758147748320658 12.91592627870585 5.91330488863715
Na 1.8533812056316878 6.761180576849072 6.557731555083493
Na 6.2091218764680365 6.130322358748381 2.9284601588192545
Na 9.004729822753747 11.95997575594711 11.195061676685276
Na 2.8471471852204786 11.129853325777932 11.136628226182083
Na 6.120837454665594 9.782142631033826 11.442230337386125
Na 2.9731011943124064 5.041589516267941 3.7340436359063043
Na 10.395318880217605 10.351923133576335 8.151511651233301
Na 5.328222899223203 6.078454965224027 6.44034700518484
Na 13.371684302673273 9.750249229230008 5.802161063353495
Na 10.484318990615526 7.461992458275127 6.325164805608059
Na 3.0707302730878414 3.350025917816104 6.8789173962415235
Na 7.31077365555679 7.275849555208221 9.192464391004084
Na 3.3426634530165447 7.609367207908522 11.51542668383135
Na 12.720294183234637 7.56370189188767 3.2016688050619244
Na 6.018103859882215 3.176521510897185 4.724279645420451
Na 12.14388039552271 10.63579853366545 11.317851121212572
Na 8.422854012528314 4.684487994315496 7.043940039261944
Na 4.541044277374931 4.926915280809277 9.74508830114478
Na 10.963038214935445 4.636389817147534 4.361804772832869
Na 9.267991259777892 8.507034957149418 11.804218297937368
Na 13.82173093476861 11.769577742141115 8.52749618307086
Na 13.324680981123734 8.29196286189071 8.982918709544474
Na 6.3855602992458556 6.344189351261357 12.590599306018696
Na 10.508382409527831 6.137351319326637 9.670617782542973
Na 5.994044984327392 2.0813848158501123 8.137641288202296
Na 13.71971436425626 6.011835633128995 6.4175833376298055
Na 9.235046007772167 1.7540191444366011 5.201849694281107
Na 12.59067849924514 7.374835136872246 12.311772260208851
Na 7.758113946913279 3.921785533169912 10.645236002549087
Na 11.720894549435254 3.5111206097727243 7.603208901180634
Na 9.71487578509582 5.333957790452055 13.303148687180725
Na 13.990533881867417 4.965965435881456 9.971855174459751
Na 9.250583836558977 1.3696745180922356 8.629905390171828
Na 11.113843201998733 2.9047072244157874 11.093441067673481
Na 13.275016579904488 4.183368647307929 13.44802913510245
