50
Energy = -53.44460078 eV
Na 3.677490995458592 7.833017382784489 11.463857032953246
Na 3.5420613653593382 4.651203322819768 9.503119438444372
Na 5.825200553838304 3.459218369096676 6.936810467925194
Na 4.3537648994199865 10.929968265720728 9.611195341907615
Na 4.553941994554959 6.818338898034201 1.7468905397976668
Na 2.5761372919730743 8.31125244295422 4.237108530498164
Na 5.214243685118168 4.875375052025312 12.719194846528705
Na 7.923691412359913 3.4717951814066152 3.9955115293618246
Na 7.401824701304086 3.327190679674869 10.097261979186097
Na 6.326948899775987 3.9609005369668977 0.6846282704848423
Na 4.264710034766239 11.01847881884651 13.217273722266599
Na 6.059895886198862 9.758172298926764 3.575554627284149
Na 7.015072805073943 9.336791957223495 11.445382073971574
Na 6.284140009930995 13.422992475878306 11.272123914500366
Na 11.252263610604398 2.0689959864638396 4.007619586479511
Na 9.889750219303014 3.727840362421278 1.0940600000799738
Na 8.963046124301194 5.578078763823862 6.878878311494222
Na 8.030026695304352 6.72647814947647 2.244885033760512
Na 5.503531304657997 13.479164806382178 4.011312219798489
Na 5.7942927722371405 6.625306073961686 5.249733992656109
Na 11.187359468287653 10.82766780736375 7.106836651078502
Na 14.712454117625917 10.239482630639703 7.141083665750453
Na 12.603448537285391 3.8678179109629296 6.77115133389528
Na 4.3616717816351755 3.355328042572317 3.515769838072911
Na 11.133272677110023 5.599937990916095 3.906838886061957
Na 1.5567779003385533 5.114774281971904 2.541351031953943
Na 9.290599244054489 8.576920742103285 5.048262867779786
Na 9.43518337375929 2.153204202079239 7.2086988451452925
Na 9.755436176707946 8.146320388066275 9.342544799172789
Na 13.15655135033134 9.34345854504017 9.93737733179905
Na 2.4527501730944703 5.050723785730404 5.971122142714018
Na 6.775257912319261 9.478838946870987 7.365938151918741
Na 8.335535359704188 12.025791221730623 5.3677049111378485
Na 10.823313835143756 4.648822586905509 9.772011880938773
Na 12.297541393184481 7.433350136421224 6.821587447392446
Na 14.194419405386297 6.070359090744575 9.38223758200255
Na 9.702318101170203 14.430796834966076 7.862482330984032
Na 8.663224705401971 11.61739035778369 9.367990534862544
Na 6.384242353448108 6.5607758906401505 9.261231697631509
Na 3.8453779536118207 11.123140635934446 6.045663625910106
Na 6.060439838280226 13.525771745791799 7.628415075275055
Na 12.523845255213981 12.799133190776994 9.658490991220045
Na 11.925637566801916 7.0497983275788965 12.290592387700075
Na 8.475257518855228 6.0827454222635255 12.255269310492636
Na 7.790143332493853 11.651494073628005 13.990707367031215
Na 3.346028641702351 7.985217164736879 7.8241668791892485
Na 9.431035124659733 8.497581739380598 14.619329174734839
Na 10.67636969215535 10.529280615430881 12.084895801674218
Na 9.84233862997229 13.98904988558502 11.759640846309022
Na 5.860610842385782 7.973480747426111 14.460204784576376
