53
Energy = -56.10470458 eV
Na 12.829643292983777 7.387074336160623 6.682641258308774
Na 13.07004383755795 6.176477456329307 3.396436586067141
Na 13.993212677178164 4.962294040007637 9.22139226584435
Na 13.117752088123579 3.9291173189439155 6.035470793173036
Na 12.678565696272358 10.714659423191723 7.4628208506427685
Na 10.208250902929546 5.581859168818979 1.6519403437339824
Na 11.312968689190019 2.520746674720413 10.459176916774956
Na 13.191584593397996 8.194816100578315 10.002781714166918
Na 12.109468704738411 5.696074725305046 12.128269336626973
Na 13.354840247157064 11.514636492647469 10.6558301484329
Na 9.999060335116297 5.683553722025475 5.330009828183939
Na 13.74507759537573 9.705021773415513 4.192507080578977
Na 10.031590256252176 2.512803606284521 7.044014871906783
Na 11.640435661789203 9.283835941615278 12.895366132867057
Na 9.490039777637808 8.860218834345291 6.7750858761562265
Na 9.0842672257546 4.090486350613072 12.870040456206816
Na 10.60329543723834 5.661733742788515 8.816887245194511
Na 9.929736100815674 2.643077494290701 3.6281863478295477
Na 10.489829437303062 8.577774333633094 3.299817039566439
Na 10.005435514050298 10.463894394905658 9.854482385726081
Na 7.342393291354105 3.8552489592695642 1.6746886884010115
Na 7.973366801384996 3.2995459019835742 9.668409319651715
Na 9.03529145835741 7.440662913954272 11.281254382589664
Na 9.595851029699032 7.092422614775496 14.682839335365056
Na 10.988718877250356 11.762136073815224 4.588103810307997
Na 10.867254720653511 12.90413622735703 12.451549891947279
Na 7.295364954319302 6.521950214165916 8.31835900284036
Na 6.338098227375526 8.19739638772049 14.058578721463675
Na 7.963737685654997 13.211802496904733 10.816647144552027
Na 8.469119026443028 10.624634370320097 13.181554095184639
Na 5.999067714008033 5.559995842704704 11.660174514524993
Na 7.030450478468614 3.7674025875663277 5.45927190135879
Na 8.656771882078168 12.41028462773449 7.312997930649979
Na 4.863531818542833 3.7811709649154217 8.57753345570418
Na 6.245240735509333 9.171734432038598 10.478345679056556
Na 7.328359109969538 7.054561358794085 3.63035965369632
Na 7.689959612001976 10.507316930274829 3.9308667449842973
Na 8.56643373729129 14.03237926849331 4.124163500629735
Na 6.041656119644864 9.504881081048335 7.030856273605718
Na 3.4308376939295706 3.099215020119362 5.42528283868218
Na 4.684586235893495 6.385260858137339 6.089798628740274
Na 5.384378211837732 12.37173235409557 8.896060745899257
Na 3.2652868774622203 8.446610177584473 12.70653659450694
Na 5.064261165624226 11.551519845340495 12.656155930870169
Na 3.4059406449221155 6.844530018979729 9.676000833520428
Na 4.48948693726733 5.0772194843714535 2.806416627765231
Na 5.697995266530474 12.898853533291085 5.368212096895692
Na 1.4887374785514098 5.178291061686935 7.401539583246182
Na 4.314767842708934 9.278616787397052 3.954277478547353
Na 2.8554844932314953 10.328894312425716 9.857661179211535
Na 2.037780159055771 8.629970317488107 6.928924467564028
Na 2.738214233814527 11.909948917647874 6.550357883189582
Na 1.695839128952841 6.598364290225267 4.103769205003522
