52
Energy = -55.85341715 eV
Na 9.000677682348686 3.0757987852000674 11.534183046176995
Na 5.901250048861088 1.4040332989211677 11.004300617789212
Na 4.592438787266239 1.1680301797627932 7.658267793534193
Na 8.270624380789368 0.8933047834782375 8.426209244763244
Na 6.200290456313428 5.044485093645252 12.119870016141633
Na 6.8936010123271485 0.1236499398076943 5.062616766503461
Na 3.2504160984497696 3.5932342032003177 10.342028586012404
Na 2.8127130813855916 4.340045760574293 7.0506205170953224
Na 2.8418620848150886 6.154005099372019 12.800276668958746
Na 8.93481832101751 7.3388589606921695 13.27628732251654
Na 11.567785405102335 5.496607648922468 11.659686403364853
Na 10.53673256607861 3.8600061517257807 8.547278998115619
Na 1.1155631455906883 6.641459399297794 9.390350098141832
Na 5.348890549720593 3.289195757396592 4.763921413388466
Na 6.689050754683215 4.061169477184204 8.466008530208294
Na 8.406076575168155 7.144879146764741 9.872184544286158
Na 8.999007750036023 2.999385504817211 5.500633923619024
Na 5.642064756077907 8.647441893247786 12.649730939331464
Na 2.471188406792012 4.861460146762991 3.5551057712832046
Na 7.651682446494883 2.368814234279631 2.1245921498740308
Na 4.457398120840243 7.117848912073429 9.625270160253653
Na 5.542248072164549 6.714979761268068 6.32142433030416
Na 2.273654187338229 9.404594354599721 11.794707634337962
Na 11.378561589239805 9.158962067171263 11.258840514253755
Na 12.166588315770365 6.988902201365909 8.539444156335644
Na 12.204470861489371 5.114286098466477 5.475806866162228
Na 10.847120178034885 3.9558525761430783 2.468361260522741
Na 8.303302455972227 10.669479472274165 11.424516019445809
Na 2.457413250798518 10.179677319929255 8.402069462112198
Na 4.85032897229295 11.717655828470336 10.909631058936162
Na 7.699338321230725 5.7324455707991895 3.4512073827743217
Na 5.286350439600985 4.9733300385044465 1.057551870998542
Na 2.069726334701522 7.61521807573303 5.98121654613954
Na 13.712640199188067 10.10297595194539 8.791934955779688
Na 9.259244967751602 6.599314443057251 6.498476328738654
Na 6.3151663556107716 9.915462346960972 8.193813606086575
Na 4.528234357945177 7.657258782008066 3.1212291972321022
Na 8.810404083654513 5.495072168125422 0.1254440968506197
Na 9.928067385547278 10.207251847983073 7.693421561797179
Na 12.54765641719561 8.788461928015678 5.496016222812859
Na 11.226643348548434 12.68326132003293 9.732740786642696
Na 7.6914293170563575 13.305856430832135 9.147810985474287
Na 4.188227766405233 10.456736814986314 5.305684760015095
Na 7.61977695187426 9.181303694542509 4.785068429903938
Na 4.373073375150767 13.172071707290105 7.620161591439201
Na 10.686500058094051 7.561531231740188 2.751325790555469
Na 7.5472681506604795 8.696058041044878 1.3266531540290398
Na 12.777339084730626 12.288791123646046 6.24370641121677
Na 10.289363113839448 11.253337950271202 3.8827129031318357
Na 7.164735705135783 12.587957810094984 5.395941931338633
Na 10.022320369597972 14.25039676997487 6.6324752178783415
Na 6.819445435952122 15.803910405063395 6.839149474055165
