54
Energy = -57.10889202 eV
Na 0.48879433103708003 7.076787401853032 6.904908240529163
Na 2.965890604810494 4.220524363838551 7.2765412009990085
Na 6.863159632429036 2.9674518434332167 1.7495386193774531
Na 1.141330649604206 9.482272935378116 4.443079358255368
Na 5.088450661235204 4.52888084904724 10.229802541602794
Na 8.558752096833246 3.37733021005358 5.03635798685921
Na 3.105744751891897 7.150700155497659 9.113200228370278
Na 7.873851116870831 2.5108412197049916 10.77469716280799
Na 5.058969625274245 3.9134123848079088 4.554327220277195
Na 6.113703426654023 2.490490463143195 7.601258665316993
Na 5.139404728871126 5.981758186888356 1.7191177443004801
Na 3.5179567120992656 7.021718300839736 5.205787569743251
Na 3.989099213716396 9.102368083655602 2.297907319202812
Na 2.3188142785447616 10.240626690665964 7.646495921534376
Na 9.377591187517972 1.33866108250543 7.757788964066032
Na 8.774684352310954 5.7643269318545345 2.4862837267388924
Na 4.590852771633367 10.913917591723024 5.153941845490091
Na 3.8275999786634034 10.695361009312208 10.589451911533818
Na 4.86930909590694 7.508434245465973 12.05613535362027
Na 6.351394601419748 5.925051647699584 7.204101770393097
Na 8.144360939523724 6.092479146755852 11.558373952180562
Na 10.522095947341745 3.43987787732692 12.658590289116885
Na 9.380316979655806 4.835193865282405 8.4406924687669
Na 5.860903392496955 9.07184583886136 7.937816973744431
Na 6.735310998674935 7.960103689753226 4.376600470135328
Na 11.729325097407727 4.166017715987526 3.895694112761682
Na 6.647463950978682 11.363461132580372 2.4913726806372356
Na 9.44731992481098 9.523556279899212 2.769146487235076
Na 7.359176914861232 8.21975747694004 14.273057423674224
Na 4.98596776906103 10.825797013076507 13.73314783163881
Na 5.350611425479374 12.616364320295629 7.97478910596824
Na 7.249502154178951 9.887343699037917 10.943044088005935
Na 11.895683246421516 2.6202072468774875 9.732538750896628
Na 10.090452997037039 6.879128320678872 5.515930044613734
Na 11.94595517149854 7.298538090228221 2.1816943969113334
Na 8.293625204168436 10.529325461656498 6.037953919675668
Na 10.663663459796236 6.270811818301881 14.351400013906169
Na 9.380011601356347 8.320491780891407 8.68256275940588
Na 12.727055290431574 4.761921255897216 7.274877384812217
Na 11.922887348961995 6.251328446644078 10.613765456702907
Na 6.830458527876979 13.884556065893271 4.964125095722389
Na 10.267707684161568 8.902653419223796 12.239201414371228
Na 6.548118648986738 13.289979960220963 11.15562156940928
Na 8.658613493477965 13.597279449289275 7.977559887594778
Na 10.321402424612764 9.388015015573993 15.762589188141968
Na 12.089265904550306 9.808996279913956 4.845090258004457
Na 8.339248736677439 11.68775963769394 13.980499951597771
Na 14.088676928811083 6.842253442098708 4.86753935306314
Na 12.973193550519587 8.17440350267048 7.8160906939362995
Na 10.43549664883615 12.919150340930226 4.869724686684882
Na 9.996469791440667 12.316721468925985 10.90830074301226
Na 13.022300343689148 10.016052134236375 10.620541379070675
Na 11.344365347609898 11.349258745058659 7.866937722562572
Na 12.026030276674698 11.585471873651853 13.618259921245858
