55
Energy = -60.09273575 eV
Na 8.044438353678679 9.47792312752118 10.832233799592732
Na 6.999143396537511 10.964174571166138 6.976517532129921
Na 6.181729993826547 7.065301560572982 12.593748704186202
Na 5.637001265855138 3.4644668962864706 11.401015015830316
Na 8.503837037515545 4.384142441733029 13.624235003267748
Na 3.2022156527687713 11.581213262117483 6.954965257030248
Na 11.165369440827764 10.754610778522487 12.405724302134375
Na 8.354853271317673 14.503557457578674 8.64575884430111
Na 9.104998735591126 1.93376896258903 10.954320665392805
Na 13.343430418969895 5.835145620612242 7.905799127050227
Na 4.479127711394787 8.271918631929172 6.185802270598947
Na 5.277467731002781 13.007911347295884 9.617667085283706
Na 2.055742625589577 5.64278917118193 6.165546510044236
Na 8.12452023709177 12.799328695772159 11.944207504030702
Na 7.432247265946184 7.55151197463811 7.828466739234563
Na 7.382639859194993 7.777063994558452 3.8179072471750217
Na 12.569671346569322 3.7831941075586966 4.939379325471875
Na 10.25286991028079 7.3917587666261975 12.90840572151706
Na 4.818011130934169 9.437571610014563 9.536117136625608
Na 5.970618275541252 13.874397235895733 5.700427732842132
Na 12.74368226952216 13.356626864755738 7.436254160600865
Na 10.2949591514762 11.390103573049357 8.8484674992583
Na 13.917233171558491 11.601714162384908 10.343551223448484
Na 13.570341808133646 8.08235327192275 11.090853093198108
Na 1.50420298387968 8.987750747594426 4.729178399685063
Na 1.5761487937262386 8.44813221882356 8.366179310379517
Na 3.4045682945733873 3.3377442832598456 3.852618674459563
Na 3.744056727739516 2.683336102706786 7.747914171105313
Na 8.46772580940291 5.474867118028376 10.3714336590129
Na 6.721801909667203 4.177146998334033 2.456449622467775
Na 3.992068982772913 6.8360604620898355 2.9899070874539206
Na 8.617290489228969 0.19026196661233988 7.63313783142368
Na 13.413759289801426 9.587931283374626 7.429886257805323
Na 7.234916321997588 3.190245853316176 8.154023780704158
Na 12.276346781193293 11.278578575217463 4.251470818800929
Na 9.835605161231152 5.72651244165318 6.209225227476046
Na 10.776299712524887 7.826197078861943 9.205094273847521
Na 10.963931661438648 2.930801572420841 8.112347451576696
Na 10.002355887908939 9.36032099414958 5.841605928257072
Na 5.988287489459756 1.3203499605946096 5.212949582104047
Na 9.694694209777113 13.29556682207739 5.714380586621434
Na 10.44324204885019 8.886756116034704 2.286996220584551
Na 4.722456987867586 10.650358327546279 3.7270415953419853
Na 2.122820582852459 11.347560749543685 10.570654165395378
Na 10.093146893276922 5.415958055882342 2.6981664837877535
Na 9.169089549796126 2.5406714356400544 4.802151355715378
Na 8.106138540965235 9.855929678786145 14.297089205167532
Na 12.763062372483208 7.407847210269282 4.5634208424156695
Na 11.814866800029431 4.673967465259588 11.175117924282631
Na 2.7602015222667418 7.885300382671116 11.857182262332257
Na 5.865541597154895 5.036403836830056 5.630035129190601
Na 5.061909645124302 10.806765424344833 12.723182132836508
Na 4.447737839186413 5.904827206647675 9.180011548989246
Na 8.177235795525956 11.410295182635211 3.3267871707482617
Na 11.330876960881191 14.111544066217807 10.745527503493914
