53
Energy = -57.82468829 eV
Na 12.924634834282852 10.68452056546746 12.023566234450383
Na 12.520506415526803 7.052616377656936 13.279608860429338
Na 10.570809129923845 9.882896848095633 14.667262740665667
Na 8.729072430630577 6.8501437242679355 14.161428454679879
Na 7.123666369100997 10.114573375771018 13.79201195044875
Na 7.032256647422928 3.8893708530356954 12.961580806100892
Na 14.70089786831077 9.560257545005705 7.002248724279649
Na 13.447722867918632 7.964994179394465 9.844250207155385
Na 9.507834749774691 12.085423769555645 11.841538478948046
Na 5.895337283423411 13.062241174861382 11.649018094555665
Na 10.099199660511179 8.660198918630716 11.294926021450523
Na 10.436759844231622 4.452060685732562 11.996816732780077
Na 4.947401131493062 7.235112414216222 12.42687322464345
Na 8.313284510636684 2.8460967969254996 9.49924704686443
Na 13.603464702031262 4.525463714187323 10.491836150811798
Na 13.94768714732306 5.706250435736117 7.099207902025275
Na 8.577307926675985 2.5028508960512257 5.729673833944894
Na 3.30471523685284 10.237956115534336 10.998806249130679
Na 4.786092658901445 4.241215016289532 10.1233803401516
Na 7.66871315884686 6.2642560239835525 10.582814350973969
Na 4.266075664287153 12.74084266245702 8.407429364460407
Na 11.528447697284356 8.321281010380256 6.323548537940308
Na 7.893886823332467 12.63489338587544 8.518865233434006
Na 11.449014088946832 10.965249754344944 8.662115234524899
Na 10.590696058020939 5.763609759725938 8.694410864367052
Na 6.715865151672455 9.99164775516348 10.39482600221273
Na 11.687971203493467 2.7530075735321073 7.76997718399917
Na 3.008129790969647 11.95648907191949 5.017585872486661
Na 5.425896872273037 1.9017907929191722 7.485549368773897
Na 8.52486088252597 8.550270172999463 7.965736737332185
Na 4.810508578205597 7.532337262572816 8.74868063395589
Na 14.00618253756805 7.550788779621163 4.049394934894472
Na 6.416430024401796 13.090240259601662 4.833866270163262
Na 10.79145721593744 5.207782387167061 5.077584455480097
Na 7.003983868401453 5.314370514089433 7.001491120191235
Na 12.469935105172151 11.020786710317132 4.384251107068513
Na 2.1296517335220337 9.788626566417205 7.591575069745173
Na 7.703025370500829 7.990106220287177 4.4890833303708755
Na 1.71526021849806 6.960883712615114 9.966580333251867
Na 9.246795193835577 11.065195728075237 5.656864394545195
Na 2.9142240665641057 4.600787340048871 7.191868654776125
Na 5.738540042536008 10.227940324529602 6.572227133907993
Na 7.932960400200977 5.017926114461503 2.770902942631003
Na 10.700990788325326 8.187076863409644 2.742049176592617
Na 4.178732863654167 7.279356588233823 5.309111694141995
Na 8.68993878180921 11.188041182945087 2.321181474878725
Na 1.7464627022497634 8.88293924564414 3.541184494400829
Na 5.039120011705917 3.7630305192096944 4.359060537892818
Na 7.596892928390745 8.10603596249719 0.8206268837425215
Na 0.39315264344261996 7.0548662214244455 6.411109997936145
Na 1.767789379752611 5.203707066531158 3.710500499439409
Na 5.212821645303801 10.112480585695566 2.845626796110189
Na 4.61171011786201 6.568906868930753 1.8987236613722076
