54
Energy = -58.99692322 eV
Na 13.132311933337824 13.494787722386345 9.659192594481087
Na 10.479083174996699 11.688070197055305 11.946795532132576
Na 13.257546380165303 10.027774102585349 9.699494132926263
Na 9.86421767342682 14.892696370170086 10.052317713667852
Na 11.461088686749752 8.006117705414344 12.071532267110566
Na 13.044936747243478 5.618538348726371 9.399882670593934
Na 8.788550929062234 8.269674404206507 14.268914366925172
Na 7.778048427093467 4.747706192770026 14.392496256368101
Na 13.086077098122002 11.669966475702541 6.300409030076678
Na 11.092545860442685 4.470881230073597 12.632674389835218
Na 12.208937858714876 2.629616578446882 6.916809996180201
Na 11.45141462763217 14.834457804634516 6.830437675307262
Na 7.015387964039254 12.762418870968286 10.16868739099212
Na 13.596394290394636 8.237485528039478 6.746270690930477
Na 10.141494343917918 11.770485270180014 8.355064562910972
Na 6.672622467500461 11.222141694058921 13.54554745147131
Na 8.068299826209 9.433835292590373 11.02834779641318
Na 10.386379581561222 8.02703543407612 8.782340370733548
Na 11.759973520031368 1.7750267997629527 10.370651441848388
Na 8.296915939441465 2.219628498874208 11.76011376803117
Na 7.844293769619474 14.249700398069704 6.913208207049794
Na 11.29759785556915 5.874176286667009 5.764508589968349
Na 10.345046359853052 12.785167488516674 4.115710996724887
Na 5.366696391856942 7.6522668418368225 13.03309248113446
Na 12.294582595259195 9.114505343938756 3.435924919034996
Na 8.290254847378568 6.0199452510035965 11.297619305322852
Na 9.845213369613017 9.444736669548611 5.589009994507629
Na 7.016525439031208 9.946715294419683 7.851068796763377
Na 5.046118227692231 4.158276439628599 11.926990336947611
Na 4.439167745718862 10.197358468791146 10.609977115699289
Na 5.657281791481787 7.102480744839387 9.447480466735053
Na 9.970715027612263 4.268207861423395 8.88906507804237
Na 4.674262488737399 12.427613551520366 7.174927238267362
Na 8.62557804021917 3.2951523616477036 5.553992942543827
Na 7.147847413467945 11.540146032026 4.58833797755111
Na 6.618668286003868 3.707379180453224 8.836353779908057
Na 5.349585923910971 14.382692427823283 4.160355318397367
Na 7.909383830590046 6.397219791081571 6.9166280504061
Na 5.428241229517731 0.7810372922675065 10.07881961029106
Na 8.715630619528795 0.903330948801025 8.312710622794373
Na 2.5351210823903 6.719726362559071 10.45432243297452
Na 9.085806294227858 10.16143439537269 1.9867759289090272
Na 8.892757168684321 6.85885022874682 3.261323752882926
Na 3.3319684268188325 8.876844581935435 7.282683468069055
Na 1.0792179124967314 5.895299337108707 7.104718609796997
Na 5.963884643040767 8.29615786682597 4.973447441748782
Na 5.2943973686804915 1.859413844542199 6.2954953800701965
Na 3.730738680317225 10.940371325887261 3.7939255523129427
Na 5.894247796036663 4.913565537892699 3.66511995757933
Na 4.3574759066917945 5.40046933677992 6.669072630828835
Na 2.932359416403555 3.323023382072662 9.051746904648772
Na 6.210827535278773 12.267954352131067 1.3636543236168384
Na 5.832201058862746 8.667832732946742 1.6510340063650029
Na 2.7979043826881367 7.22689094365559 4.011480733429484
