52
Energy = -56.54527952 eV
Na 12.710237579119315 10.506069939329693 8.554767308425241
Na 11.62933865378351 12.982570588651477 11.018847083894629
Na 13.004053218794436 6.9702024879212034 9.248453901836697
Na 11.89237076939375 9.465510581605722 12.034739004089834
Na 11.188424903363874 13.91690158334297 7.634673742220969
Na 12.763944032254493 11.670705498402015 5.321473227052388
Na 11.45801607759037 6.0419087879947595 12.504578487379732
Na 8.176930482160158 13.494695138074722 9.67991930492184
Na 9.382761771477774 10.245198797055284 9.775498244002144
Na 10.438907038640297 8.287213225002063 6.684396414150691
Na 8.946380449080541 11.605126427670191 12.999793441298024
Na 9.854262355484018 12.960413942783587 3.3706891004610906
Na 13.510524086091099 7.895143887085536 5.652418900420496
Na 7.875474367922266 14.580261404276078 6.086167403331776
Na 11.491736138483471 3.5167981965909463 9.967303301795129
Na 11.110603395104745 9.603326976334717 3.239110946210602
Na 8.183372179577677 8.046779650074342 12.73111958977626
Na 9.112023281185266 11.405083982434059 6.404137539258383
Na 6.08672896907448 10.644714099167537 10.96038635745543
Na 8.348414781172293 4.181139627570207 11.568116021415994
Na 7.774820454365016 8.47551208158536 4.304999935238498
Na 11.35429491576073 4.7111832849062 6.675705384810182
Na 9.584221509265426 6.695274712245381 9.623173268434895
Na 6.402797676246165 11.797130914757743 4.051466021515276
Na 10.530241376702463 6.225902779479793 3.608043071269523
Na 6.888535922983935 8.90510569449018 7.668074240737811
Na 7.766222355896105 5.527520740181849 6.825237240214989
Na 8.341813919894912 10.186900436123777 1.2813715608730067
Na 6.054630351822934 6.870962176814118 10.263797852793676
Na 6.6409028165776745 1.0929276186092798 11.438915441278981
Na 8.461287565746545 2.2411804875569126 8.145801630161909
Na 4.091186881091706 8.154721021298593 12.737763102372458
Na 5.566701669495194 12.107889666831326 7.652811490290723
Na 8.577470378295509 3.3321252834838253 4.246133762455326
Na 7.524777009160006 6.136895339342824 1.397906103007057
Na 5.487091528242528 3.5990843779141954 9.34856727882966
Na 4.9795770681045655 4.477207345261744 12.820808750687794
Na 4.943170494075958 8.844412039415664 2.0072847882616203
Na 3.317156063961811 8.99973875505464 9.114192330587999
Na 5.426417618940762 5.882423050634709 4.038786087249082
Na 4.141172566259351 9.32173642756283 5.534763006516342
Na 4.251002160253512 6.072928843698789 7.179835791272478
Na 3.0371161508219453 1.9470537209745815 11.21809975806776
Na 2.4933201439529347 5.618838753481035 10.404428557909576
Na 5.483037634687036 2.662852910607896 5.865054138653465
Na 4.852017960632651 0.3157091800301222 8.459985111460687
Na 3.6657184938534275 5.569731583350577 0.9786123005116418
Na 5.542562355437795 2.8941533974360674 2.218091617158453
Na 1.9951960607734147 7.350015748860015 3.554466501396298
Na 2.2323331482121236 3.0289382753710474 7.819257020341124
Na 1.016615448790767 6.53708051236547 7.049390068721637
Na 2.460440543928597 3.9474312443696395 4.285636232240217
