53
Energy = -57.53621047 eV
Na 11.721318169108542 10.310364608398077 11.068063683763464
Na 8.934038921685355 8.867924622062612 13.052584853702669
Na 11.025532592366197 6.485632151311991 11.166757584673794
Na 11.64330475686471 2.78817901967149 12.101737236043778
Na 6.027623603159547 7.164144772002957 14.36434594698693
Na 8.605295161016777 12.069703085103253 11.097121357080255
Na 8.997996114563392 4.940212466303196 13.808494085933418
Na 5.706836400989841 9.86794571099662 11.445241415162519
Na 11.368742843734653 14.143537059776762 9.868021870619566
Na 8.921600121616263 8.801841363689093 9.419513107147692
Na 8.801994064981335 3.619128769061733 10.49660720462785
Na 8.129450449453586 14.430108835124138 8.29731517662649
Na 8.481605641810765 1.2510149462896336 13.0092460287193
Na 6.9926768576145575 6.411969340908559 11.024964450676926
Na 1.656723181471776 7.049485986840689 8.757518985112567
Na 5.177693836305346 13.290253739559555 10.1538649915832
Na 3.5204489821465215 6.912896232039313 11.888109298377591
Na 3.186776266240084 10.779244706768864 8.288781674686419
Na 6.874258031565708 10.987294598126224 8.123807149054919
Na 10.680840210678227 11.490719601553145 7.81147027683393
Na 12.316515365169511 8.066020891228748 8.041621662077619
Na 5.690895666438686 3.722581985040136 12.90020008927467
Na 10.917531774568237 14.6887704627882 6.160284310056617
Na 5.005229912055577 7.8115926871521335 8.527998241440939
Na 12.151671479858129 3.9235856772577833 8.632563820385029
Na 6.052452713661334 1.1201520240977891 10.338013576790095
Na 2.4355201961732322 11.95322066500882 4.733716997536374
Na 11.815300255914627 11.674045079556107 4.4719972899174385
Na 9.447247493674576 5.9289863033620485 7.77661743569911
Na 9.842431893828115 0.6705240712247033 9.522065313213911
Na 8.366452001953563 12.34241151489236 5.121882990672269
Na 13.689798642029633 8.810184098117098 4.772140219441632
Na 6.498749462363139 3.9420631294176887 8.033594325818724
Na 5.128039054316182 13.625761690365364 6.392616360785984
Na 5.36212919049402 10.04639423829809 5.314800532700084
Na 9.645107905521243 8.898768154380965 5.699185147189604
Na 2.4118450660647133 8.309445080493441 5.466510846715733
Na 11.994697449584612 5.721574475644692 5.263117007567577
Na 3.5904079214402533 3.9977726148050405 9.960616409700041
Na 13.039578258608367 10.854530887170467 1.3133642926013518
Na 6.772727453700916 6.9107638850239885 5.8942734535977115
Na 3.532297374636217 5.0646797280487394 6.31359821491303
Na 7.2644858459057735 0.44530659802747385 6.990901856747664
Na 9.652945367413285 2.886477783088744 6.115974571474931
Na 3.662567824964196 9.654882988889142 2.2387726448848766
Na 9.541929483820377 11.735601717183632 1.7356524419445867
Na 5.808592822725941 12.476812866876436 2.7281580053472987
Na 11.026314461218156 8.314455985729401 2.509698484709918
Na 3.963955138152163 1.5336147314415707 7.286233189547659
Na 4.8919792018848245 6.372622738361933 3.1529089567627535
Na 8.839089621530317 5.5614108837078255 3.5529564368503537
Na 7.435638226673687 9.042510074703483 2.7250241090283245
Na 6.273555300102397 3.1717250884198505 4.625504996716844
