51
Energy = -55.52544972 eV
Na 5.427548023612047 7.585960353563243 0.24090141269916845
Na 9.003774901147258 7.895016306264899 0.976444611639663
Na 6.718060929588312 4.264428465252281 1.661313162784668
Na 3.5710338213461954 9.504712100591686 2.883720286429016
Na 12.50880612600242 7.906539973822786 3.5843287543584332
Na 10.211390639740028 5.039683065689806 2.4709135984145387
Na 7.015217470451146 10.55837172944985 2.104285539438643
Na 9.379780091915249 1.619209074723006 3.7047898646246207
Na 2.998073938104777 5.704737604687225 2.640901075578798
Na 10.548599894843255 10.728083940104161 2.5954840264751287
Na 3.381588176571136 7.457954389060189 5.769954420943301
Na 6.200392887269172 7.03550759238605 3.4982822656154178
Na 5.732888715900242 1.1809621933869325 3.2979047437214004
Na 4.996407097307237 12.884307494268443 4.244957325057796
Na 9.34776477248394 7.953005001990528 4.768331397495108
Na 7.959650315606211 4.271709075867721 5.123698277993431
Na 2.7129099258190887 10.953745908241418 6.378149669290142
Na 1.840645659330466 2.2215867947029158 3.730427945588932
Na 11.618334611131505 11.130654705558273 5.949856425099344
Na 6.08157296833427 9.903188702055962 5.503634304233694
Na 0.8388289694365512 5.101023132997381 5.733379400211191
Na 4.450013640922382 3.7691428911306706 5.405853592295478
Na 0.4123438932542031 8.581598422886412 4.708519552827315
Na 6.941077397807677 0.566060401296659 6.531117028890455
Na 8.506359041798948 12.527301133025116 4.928717150224011
Na 11.675557231929805 4.789503690455116 5.593873833462745
Na 6.636122241356933 3.5851354441897305 8.441379194499582
Na 1.2491869129586337 2.0281255340127826 7.51365857781424
Na 9.931632273644825 2.3387216105438773 7.6467819218917406
Na 3.5426402303170756 13.081852455194678 5.81173088358683
Na 9.433734537278127 13.081852455194678 8.343134955169086
Na 8.70920416195189 9.583677852057061 7.892248235277974
Na 12.15568359692581 7.944050623033614 7.396432143272102
Na 3.398126647400668 5.053824752166807 8.616908199151505
Na 13.068984271518145 5.004586002392542 9.265048766211757
Na 4.210299562023523 0.919455138971916 9.108791258417494
Na 6.047597800398463 12.361353285782462 7.892331870102006
Na 6.344830808552285 6.787016888126584 7.048723336827746
Na 1.1156585152629441 8.168114141940725 8.360289951817084
Na 9.371599244427134 5.913938456160233 8.024180831955986
Na 12.231169765980242 4.828237494938388 9.409660707623575
Na 11.545489733475756 10.719880529523826 9.702841399451902
Na 7.597737726026926 0.7783290067080377 10.178223206287852
Na 1.9203059636975957 2.8859756736427244 11.10105361116524
Na 7.737250753229445 10.627798907517601 10.92530823706018
Na 10.176569297279725 7.680210688710352 10.913580909815568
Na 2.6548972498684895 6.6273694467148285 11.464497133714735
Na 5.292165598135963 3.4849229245788758 11.634012854330091
Na 4.529804696673353 9.216473450386689 9.079869912602918
Na 6.65798712294294 6.825778895025928 10.617551927174715
Na 9.047991772105247 4.024615824111072 11.082020309386497
