53
Energy = -56.09723389 eV
Na 14.328640345750388 9.075706467565503 8.633096085588281
Na 14.120710159431768 7.7728438251480245 11.806299119187331
Na 13.652911576724163 5.810522493246501 7.456556863135874
Na 12.018682562119997 11.522261060289763 8.210499046915793
Na 12.140651030116627 10.490715464696645 12.30194330596166
Na 12.548513657967796 4.80092977915246 10.63133180708206
Na 11.798673991462211 8.601094111239334 6.13754702963435
Na 11.064411987717708 8.12610752735128 9.807180999371832
Na 11.64087399060529 2.34717040267748 6.517086311037113
Na 10.990999328511643 7.255744689060444 13.406802852345914
Na 11.780916352447097 5.540799688987884 4.611030639443153
Na 10.229853303598654 2.2442557833475867 9.808362255283491
Na 9.099319770838505 13.343513034613174 7.554303100698928
Na 10.293100702715991 11.371072976509126 4.782332886935941
Na 10.499530430118924 3.878482638709328 13.213566981055639
Na 8.533928505683646 9.224910003886638 2.535976761593564
Na 9.39212880170054 12.025253422702347 10.77879089982713
Na 10.101638291902951 5.2309672757518 7.663042373273423
Na 8.954071668988728 10.099338076120748 13.858195594854624
Na 8.903989443724404 9.895980987693246 7.844479390486703
Na 8.78372016065936 5.619013931534415 10.790621279277048
Na 7.416771933002117 12.30163212311692 2.067613222436322
Na 8.174878288472879 14.534577336789328 4.463721967959235
Na 8.463230977476508 7.360753192503912 5.516770360215995
Na 7.454039749783379 8.9628042359674 10.845416006286321
Na 9.49492933491294 6.0700539281105135 2.192165807784867
Na 7.149318954949838 3.609058002359469 13.202434896590908
Na 6.84127474199125 11.238205825633754 5.50157497932204
Na 8.062226223310049 2.114701105556896 7.048220652082793
Na 9.276267966089849 3.1353874882468724 3.990325810679347
Na 6.864128122270148 6.996567902907944 14.02993855288186
Na 6.942923850104761 3.872211929676286 1.3815443783513879
Na 7.4917118966325855 6.8849598773824425 14.02993855288186
Na 5.545126815799587 14.57503466401231 6.61380178086994
Na 6.2311765624297 12.855378672040516 9.440878044046231
Na 6.314364808106586 11.933616486517078 12.707854570629134
Na 4.271179393473418 12.749028262317962 3.7220414786390648
Na 5.688343249816211 8.640809015089758 7.814549986366135
Na 6.6552203857284065 5.362696154222823 7.932559928036394
Na 6.605021040724657 2.458057623113111 10.1658284117103
Na 5.338236583027915 6.1202799414756734 11.210424357182468
Na 5.169943015501579 9.810840284673265 1.2311057320198495
Na 5.928330161387955 6.74907797860193 3.2342205163168454
Na 4.471235705052441 2.5723789033559683 7.514958261561507
Na 5.79684607449605 3.4910043983221457 4.590684994311866
Na 3.9338749649674463 10.471114885785898 10.40574393585203
Na 3.703924724183428 11.7086600464168 7.219178611366111
Na 3.8784826626633637 9.274420249671724 4.6132830963033165
Na 4.752309095981394 8.850093040620562 13.496384787271843
Na 2.8255009297020104 5.174234599202669 9.054282700975639
Na 3.8142832422341297 6.0581710609293795 5.854658980892772
Na 2.14899652760595 7.654685770775903 11.261605124269437
Na 2.1273299991998127 8.544534500738006 7.739028241344004
