53
Energy = -57.99430417 eV
Na 6.853218364239268 3.785403779519499 13.965897374813657
Na 5.299682902183607 6.990200253075428 13.739025174192625
Na 7.175981317320738 9.380500019339097 1.2779351215164865
Na 3.4529263520861826 4.117984683002379 1.021964828973599
Na 9.30388790753219 6.431214339934543 0.17085576762110258
Na 9.26078272623712 2.7610222507092437 2.358607100997158
Na 3.8245405295245973 10.416080276776839 1.5985820259406738
Na 6.883474860407382 12.181674235219962 3.602748424398845
Na 1.8443023868269166 7.4076573319050825 0.6851574708444573
Na 10.15316039521852 8.785695236193007 3.0023858534368606
Na 7.426762301309987 5.949950348645434 2.929330012978374
Na 1.0055965467245538 5.196688653033124 3.50882596821003
Na 12.728930491576243 8.083438783633618 5.61914474956737
Na 2.283759838540932 1.6506954415316009 3.5812477919499597
Na 11.377334320449474 5.477289003008581 3.2566736737199444
Na 5.819235764110644 1.6649053562064995 2.6060169315225035
Na 8.404809407895574 0.26015877129877873 4.835611671774723
Na 4.224527305967631 7.494276410617955 3.2405055846921393
Na 7.0349327239529424 9.17990387016257 4.925919506422989
Na 9.632027836828916 6.7149942163191305 5.969271741693878
Na 4.2634077340209044 4.198714508652674 4.568761687575838
Na 7.527246696940084 3.5007243034509075 5.508685881864509
Na 3.763271997896718 10.679402118226072 5.407862025271114
Na 10.02545594528826 10.682453723226978 6.175545226508111
Na 0.9859743004487368 8.978482869526223 3.8333690245867627
Na 6.116725778061488 6.501876776756687 6.578807183248083
Na 2.5044430992434754 6.820846658987507 6.278827332915797
Na 1.8052580458712288 3.270668286539317 6.946136949707976
Na 5.173158549593862 3.856216230765906 8.29105073899008
Na 6.72823823779554 11.89418848730604 7.40332814579653
Na 10.753214074897935 2.9668292314600273 6.165008213185996
Na 4.825901436791809 1.01423575936148 6.223018160836057
Na 1.2113625512128066 9.516563230423825 8.074109183474722
Na 4.626049833245655 8.996411894730786 8.32197124085316
Na 9.622390877307033 11.752266403646903 9.712677038406259
Na 8.753662362075179 5.02870237148266 8.970498626764
Na 12.282273353458267 5.439426096005725 8.22193256954629
Na 8.250393125560773 8.754151044860308 8.543858581880508
Na 3.485954215754465 12.05684722024397 9.29751236308164
Na 11.707174312757644 8.826315391580593 9.079632002252163
Na 8.002662426580349 1.4324721955565123 8.359547957665672
Na 6.11365536615375 6.750836092978001 10.580748279108697
Na 2.6009627077288715 5.967442476213873 9.66766130037859
Na 3.0973897885580715 2.3471606583015525 10.394424318636007
Na 6.345631510997922 10.748874770347557 11.096982589652994
Na 3.242480359279766 8.920593342365182 11.601633193128142
Na 10.498910303939505 2.8542400158211616 10.840937211101158
Na 11.497066863060105 6.203045066976097 11.525191780892538
Na 6.692900344544054 2.9463245405852425 11.34856871192048
Na 9.292870215785568 8.904398836533831 12.050826322319026
Na 6.1314874593597395 8.209156504429945 13.739025174192625
Na 4.249263340514013 5.179615806907472 12.87280596333884
Na 8.39223511488341 5.429730434158743 13.050527053724759
