51
Energy = -54.95940967 eV
Na 11.981172884158038 3.228098895372651 5.07967888341385
Na 15.365361882078606 3.1424046705362225 6.139314928235531
Na 10.33480227840943 10.318383574611097 2.599312127413886
Na 10.49233454122355 6.352660993026543 2.8464850716418213
Na 13.937949486954107 6.015800563595086 4.463553610287346
Na 7.84437243294223 4.5508150823791915 0.7158140818760933
Na 13.510782770033652 9.073960282696513 3.025474594261452
Na 7.642100755089541 8.147559795582149 1.1787953113725773
Na 8.811982660534165 2.952949524209152 3.7827478754925266
Na 12.84004969940246 1.7939316783438937 8.27272281791493
Na 11.322808228660692 8.389799074869302 5.796056858014578
Na 6.900908136884071 11.647793620841759 3.1414096008686316
Na 13.106580007102096 5.357875041632842 7.786159671113016
Na 5.311727927043625 2.7289521905621865 2.8754465290298743
Na 7.975417939429031 8.691687014229005 4.675556981862806
Na 14.404719441318578 8.760720820557 6.968807670598853
Na 4.382654408568976 5.812186647442027 1.1914228230347226
Na 6.7675351013638085 5.741645273319158 3.8209452920041085
Na 9.396402010614374 1.8719978591976385 7.308852634124888
Na 12.799853615051658 11.656615880903255 5.284804310783602
Na 4.723319457156337 8.627241218771356 3.269931037397267
Na 6.347534158803287 3.537818702322274 6.4916825603950725
Na 9.401214083081621 5.523958076909588 6.593734225785966
Na 9.259062141957605 11.870101251086696 5.834006705802597
Na 8.50348672994607 8.971467737575246 7.920575818518308
Na 3.3411191257106894 5.156097855860524 4.793559394450169
Na 7.210620376487998 2.6322438745272856 10.164186184178595
Na 5.167323164762771 7.2367919896080215 6.9324021314701
Na 10.49976327265689 3.9053419219445296 9.961914632757777
Na 7.194644220576243 6.117265830965949 9.596469901077379
Na 11.457106954440935 10.802289086999123 8.637855722131894
Na 8.028755405876009 12.411096522469396 9.144028222241076
Na 11.115439790897716 7.382105822185587 9.67847632422611
Na 3.938040158956442 4.013736844549412 8.850315314114086
Na 2.0362216124552917 8.599621296079254 5.421479622319203
Na 5.314514753135368 10.788029901537612 6.3289959703180765
Na 6.458684408400596 14.05557050904745 6.36321293334134
Na 5.683783544285305 9.721801944057091 9.767383801023982
Na 5.089015141546458 4.629027334039356 12.461351511515494
Na 1.2566800716521052 6.29753713717553 8.00472022526749
Na 3.6325763194906515 7.121138533858565 10.454746717787014
Na 8.779049946256466 5.763677791505096 12.531727368677643
Na 8.920404651305542 9.470235793685374 11.39058088744434
Na 2.2649913202876952 9.971661660233373 8.58708233426391
Na 5.931378761758731 8.19928489325217 13.079779297727423
Na 6.224264027689589 11.851494562240944 12.433128658638614
Na 4.281660997722741 12.925522818947748 9.28060032034359
Na 1.4309204555591153 4.58146715555996 11.373819551492508
Na 2.9871047359740586 10.35051975493046 12.130468698971217
Na 2.582645815096973 7.091405476827451 13.797005524463968
Na 0.3060890240701873 8.007855783683846 11.023990062302534
