51
Energy = -54.9500098 eV
Na 11.742392615999446 1.908176006825261 10.487573420675494
Na 11.998087701582673 2.694087327023879 6.878965965301398
Na 10.62743003516646 5.131591713451401 4.691171850787218
Na 7.927894954779677 3.099955196879401 5.927971872846509
Na 9.037891690412051 0.8607953650944975 8.43308456798898
Na 7.2002885114239 5.546620507148749 3.3405210975368163
Na 4.697443943505854 4.7586509915361574 6.150822307587878
Na 5.6415464103074235 2.221337182215815 8.708563849679356
Na 10.07068909989623 6.751570448563157 1.554135363477196
Na 2.767155793306426 5.125096423316864 9.253366761340983
Na 12.662268873883878 8.123220236494445 3.940056822086682
Na 4.8982923611996645 7.979497172245516 4.427061155760108
Na 10.931463668512722 4.874049973189887 12.249745673859405
Na 13.25907127466062 5.0378130869327205 9.383868385380053
Na 14.070510997781918 5.749491926377938 6.041519052534732
Na 11.16465565564359 7.32386975777902 7.369025731495888
Na 8.126714139119114 2.5433210133845976 11.503777065919744
Na 1.7818435154050882 7.0546738802518965 6.275878947250069
Na 9.675025514627155 4.364139008904232 8.82182240053564
Na 7.659038958291418 6.856916063110331 6.921983395446782
Na 4.574059918696564 3.57410438933464 12.119778167346583
Na 7.0767784508412035 8.900872658000251 1.5997570208282361
Na 6.317978072552024 5.389291258036714 9.783682789212433
Na 10.599459435284233 10.27033339479175 1.6723855828999932
Na 9.092760031607542 8.667334734598414 4.4537747148132825
Na 4.533199322373551 8.07112546267274 8.077999667883194
Na 7.397325565701641 5.644805804867075 13.315150324112162
Na 9.000262058619146 7.519708446409839 10.540501946938221
Na 8.048571436762067 12.082040121173456 3.4775903466069984
Na 13.747082676382576 9.503898408580795 7.519860450146174
Na 6.645127169167197 10.547243931311858 6.471221145927169
Na 12.361767298866237 8.164952600435791 10.85816617978294
Na 6.562255535805219 9.922250729235364 10.148456888770323
Na 1.703138251352099 8.979968603033157 9.588157991956264
Na 4.208949487975828 7.272423987597537 11.8582574264126
Na 10.317310669454322 7.914350507784502 13.938783082328943
Na 4.678921332612574 11.265846834894921 3.1365097326098015
Na 11.432458337048164 11.276494838108592 5.005593741687567
Na 6.845615270049919 9.211816664597752 13.649105628534858
Na 9.928800841074963 10.542525374084967 8.403311939031706
Na 2.749616810846695 10.538820123244943 6.033510372431692
Na 9.745170786903865 10.78531663431384 12.074822303833464
Na 5.187452449660866 13.608901195703993 5.759754984297532
Na 12.536326901973307 13.068308721340689 7.750559497206705
Na 12.920543913984506 11.579438285596034 10.833618115347441
Na 3.7131367328955807 11.977514909534962 8.95958801884677
Na 6.884960484606227 13.336172271581908 9.00958786649957
Na 3.72383212726808 10.744455407251493 12.234280797647939
Na 6.808291570747314 12.69991492465118 12.444325213368066
Na 9.142018716994613 13.710426450132339 6.461800751118347
Na 10.072553264313433 13.792355330138514 10.329106421693009
