51
Energy = -55.62842841 eV
Na 3.6070200070786202 11.9163138621997 7.708744824234354
Na 11.900173199134846 7.45178002512943 8.930410954920154
Na 9.367356082240022 9.963533754887791 9.907281724901175
Na 8.608016920987914 10.90641439986504 3.614094079496985
Na 6.002773609102179 10.07331962964356 1.1634002479860224
Na 7.398764917139343 12.061952799123235 6.976189967405822
Na 7.235124364466151 4.633129300037747 12.327375933279649
Na 11.010136183538501 9.965120566727716 6.287041506463732
Na 13.19486212568839 5.953080197376923 8.072208895605614
Na 10.00088017274007 7.492076395945033 3.7516810175654345
Na 5.935389156108635 2.72048710208931 1.8560021974104155
Na 2.3854343594129497 4.442920546272582 1.9342576042377881
Na 10.297367467784353 7.06653993807199 12.28784088462405
Na 2.64833823597961 5.306982835746157 7.8986508243212326
Na 5.9428484575863 6.190967867114696 1.0571078794086466
Na 13.194862125688388 7.248986071471451 5.176261022995846
Na 3.1260455278118724 9.260423075430719 11.878156366226499
Na 3.818492133419859 3.41418011713953 11.012990468183286
Na 12.43163786862466 6.718304127882544 1.38794117041876
Na 4.034655529828059 6.1106943091960435 13.520888635058563
Na 4.7609977160378305 6.672465421189207 10.15927456177415
Na 3.289641975191905 8.210614773686862 2.765827541774968
Na 6.8331856295416 8.38835749687384 12.572629409119807
Na 7.876208632597963 8.663687446714057 6.8340324168535505
Na 7.9496704469508925 4.605902244393324 4.0716264652179985
Na 0.6198495524548467 2.8570528297083833 9.313382400862578
Na 9.213412977717487 8.510293686698077 0.6154328976255942
Na 0.7948621626585639 3.36008882379085 5.631474350498253
Na 3.315220251252753 1.3927860415903994 3.8648244409166406
Na 10.491715529010934 4.042003566786573 10.018533385067604
Na 8.211769670208291 6.689065602551867 9.684329778159553
Na 12.025660157876183 10.022644740414753 2.6815673646723166
Na 5.001543807768505 11.324645334819868 4.400004828675959
Na 6.292924815510949 5.365560669621652 7.128751780715649
Na 6.500852404390927 1.7417677830044638 5.449614355387433
Na 9.93448370294949 5.748945950227724 6.745877432711281
Na 4.250754492458805 8.355412850730728 6.499285917940399
Na 1.5535773046535428 10.399701079911006 5.238638723911165
Na 12.995139222433918 4.217099907717449 7.312320084491404
Na 3.7265179370129857 2.02907644875811 7.556909531224982
Na 1.5511875966115916 8.776452420090406 8.667337843396895
Na 9.391548227201525 4.722208247544584 0.9266507735828959
Na 6.54410978737795 7.905239968790039 3.8743773663518333
Na 1.0813544844467182 6.883110647793773 5.173797991559785
Na 11.65174730338192 4.185359641357876 3.854043105311302
Na 9.906782951453843 2.3374682671670444 6.556462938825645
Na 7.130865136080687 2.8234669895062656 9.160782029448857
Na 9.27193821541125 1.6010006161411374 2.906917073057818
Na 4.248726399530531 4.867904366166842 4.551573684518649
Na 5.773030203151963 9.877254781992274 9.452761126801052
Na 1.233722476850144 6.105486897125053 11.161764659015434
