51
Energy = -53.65548978 eV
Na 9.697907029602877 12.126687829770562 3.5311895536965268
Na 8.907888557233756 10.112190551544394 0.7365037280554574
Na 6.827658019704631 13.018394146270978 5.327143244065064
Na 12.832550346143433 11.412052357535396 5.397802274150339
Na 3.7774529061339712 14.165021734271182 6.769336725767767
Na 12.282753924515283 10.264353758227909 1.9191456860805005
Na 7.053056091639302 9.867262839374508 3.9008933930963954
Na 3.9241007741739797 11.141922854669378 4.9580105219030814
Na 9.931560612318503 13.15092334723918 6.856575979864637
Na 6.879355768097802 7.072667477372694 1.7419303674351054
Na 10.14195425348192 9.378094471065435 5.958754230155647
Na 4.0954909357163825 7.7943704343124605 3.606469207369041
Na 12.106808229723816 12.01528804833865 12.179850294314758
Na 6.646568697632614 13.94449399463266 8.676186002939533
Na 10.179072718946925 7.638808273543351 2.871506196946853
Na 11.851767239263571 11.144838298658405 8.803440802248543
Na 13.322186996001857 7.903257459241565 4.262889429597142
Na 5.641537641434658 4.418221822381689 3.8301441143451065
Na 4.167384293141162 11.264418052186048 8.753940296113726
Na 5.314490661847409 8.551003066954628 6.896778713925132
Na 7.829097605085399 6.817620382475841 5.447682800523967
Na 1.782725801963733 8.683682577469284 6.107454563931121
Na 9.00701508499668 4.467257026178403 2.9813508113749374
Na 7.859537902117378 10.6805038101556 8.244921915444841
Na 9.424297823635278 13.174794436147835 10.470209617615861
Na 11.24456907146535 5.591079104880078 5.978952323547499
Na 6.223236300501718 11.84665228251571 11.622087296990403
Na 13.309723424183378 8.187667432244451 7.57838296514167
Na 3.284349005016413 5.516532904432317 6.167183485608109
Na 8.408259102207392 3.50288806449747 6.145237118767226
Na 6.278074634698665 8.454777280746221 10.203236431965637
Na 9.225786836501788 9.836525457566037 11.87766725475646
Na 9.694547526340402 7.696951575754407 8.944494768488012
Na 12.9957928543576 8.713017284071064 10.868678441071678
Na 3.2431380741984692 9.698207540986505 11.799556105955267
Na 12.029402133132777 9.293165810704847 14.195151617809504
Na 5.0746787750632905 2.4239578441891942 6.606298872453249
Na 2.6530803848245177 7.498660546640792 9.195487560664388
Na 6.259644794905727 5.4951356600023376 8.36853310783584
Na 11.253910930777002 2.421886672940249 7.834077325791999
Na 6.034961922499483 8.730493354469212 13.60359386486255
Na 10.865097560819162 6.393240598417143 12.227918320220128
Na 12.486751613185499 5.321862776091187 9.403376401369828
Na 7.563223262661497 5.633790795204477 12.699887731454398
Na 3.198226062170217 3.8731375090624987 9.251040888020313
Na 4.250260556960254 6.072240558731472 11.886332545877325
Na 7.981516672888282 1.2854894190977182 8.67331403858852
Na 9.071011769982139 7.770193132587873 14.897567188392209
Na 9.193480228748994 4.313654599079585 9.916885218374931
Na 4.57647522277142 0.3923059531994544 9.360912358088138
Na 6.056944323664032 3.062672561432961 11.057181801255826
