55
Energy = -58.36922688 eV
Na 1.9400335652554228 1.6725981723311045 11.891819486520081
Na 7.338582001952546 0.058636940063512194 3.7877579555674696
Na 3.9606204297563674 12.043650180326882 4.675113494337832
Na 3.63385433130308 4.674769695425129 1.979578172302601
Na 1.5379363960256367 7.451661650888052 1.2532749438255328
Na 4.46481304785403 6.980498745770327 11.67905228182675
Na 1.8234328104684268 5.0314909027375725 11.027078226887257
Na 11.752512685415276 5.276013883195552 7.2692764009485895
Na 5.901699233660114 3.8822270683407916 7.131281313400915
Na 6.321055431128143 6.726172696793578 2.9222288607189775
Na 8.401255829868411 5.411343903479717 5.281538218990475
Na 6.390834233974699 0.2550027282024085 7.190930240854192
Na 0.274039110832999 3.98559199948858 1.4669434554456915
Na 1.8967754285796583 1.584170777315148 10.970689220617638
Na 12.31354191590012 1.980767735208926 8.154235885937235
Na 11.416688980737074 5.744707268307974 3.7924584409491082
Na 8.410400128117043 10.07466940643488 6.1950999231815
Na 10.61987792057949 4.252929186910029 0.7587805905866417
Na 2.689660769576962 6.413028042897422 4.716061598695165
Na 12.070998480384509 8.625229751474121 6.54187473584763
Na 1.3476786142038382 0.7225179517111144 2.5598804472473145
Na 5.840523856100368 10.670294422802902 8.394685351669567
Na 4.928073407849785 3.363704988744009 11.539756961340059
Na 10.920960739723709 3.735669215730156 6.772534287999047
Na 9.787332668315337 7.539130844034834 1.366776068119526
Na 10.955997013162282 9.255057190582702 4.12031635140423
Na 4.44435824447455 9.494746457076973 1.7399423251124557
Na 5.585850557137105 7.258710987426223 6.322703825209728
Na 2.726438983741497 4.985741697154761 7.716433257261495
Na 10.033045153000181 5.430112269533776 9.66726143153891
Na 9.711043054405742 0.50764339163245 6.28522026314003
Na 12.09139006166285 2.9009092200631965 4.732921003645392
Na 3.2754303394119346 4.807970146768593 11.027078226887257
Na 1.1159599672443845 7.39871777283094 9.560239563791711
Na 3.145080602039414 2.986393401396192 4.995307404375265
Na 7.837828057595677 2.221616114715843 0.7138338481762779
Na 11.891917826718512 6.276148514382841 3.9295298314058043
Na 7.578999411848538 5.522673585920741 12.141317032423233
Na 10.671308550450258 7.3427904166569125 6.921514475409705
Na 0.5866262221316162 12.177702441844644 5.6971928774534835
Na 8.529917650216444 2.372428018042274 8.965218824263761
Na 3.0530919832412287 0.6761351055827545 7.8596164288989465
Na 5.244025149422234 1.8485162292681003 10.158661081167804
Na 7.748362644442962 9.921131103256219 2.841596762718865
Na 5.0822326133615086 10.458865601784082 5.0380586930892175
Na 1.859026559028954 9.576745499627945 4.026641875819618
Na 6.675670950614148 5.024596584839088 10.359504325355172
Na 2.6591342142212504 9.706398789294347 7.4785374736426204
Na 7.187445684665537 8.980161397691077 12.026399611843596
Na 4.568711453211513 7.777155755213297 9.803099493451846
Na 4.754208895544398 0.8310450270256072 1.5381890720594094
Na 10.133181210699757 2.390298847654364 3.529032573535228
Na 6.432537190182602 3.272662787405918 3.598466190599191
Na 7.926339544734694 8.027007300123355 9.040132420399997
Na 12.28342535711125 4.342982636069678 10.619094055388208
