53
Energy = -57.99674675 eV
Na 10.026523160567496 7.202476511395465 0.37956709915107556
Na 7.317310366204796 7.71434186987411 2.367621571046569
Na 7.121842458097109 4.832045440471146 0.225147952377667
Na 2.8844593954721827 9.707429150148112 1.378131093884318
Na 3.6752428270844284 6.124871260246207 1.151761463678685
Na 4.411481970881929 2.4725436326574832 0.8963412586138045
Na 9.510519303907891 10.545916264920745 2.436443156439473
Na 9.324726395684044 4.746542048523411 3.144068499627325
Na 5.790661137729522 11.287378066095771 3.0764585652167935
Na 7.659616068564062 1.5980334062443633 2.3341868791233464
Na 1.0010809114385846 7.36877116859256 3.4707301557415096
Na 6.911560077105975 6.274463582910163 6.052526959968882
Na 1.9543304345326702 3.6725358543641313 3.380133680651914
Na 11.170201085508511 7.7346369135762805 3.7528990975909617
Na 4.397220499195789 8.136870520938874 4.055765891806162
Na 5.623667318486498 4.3852909419017525 3.5129788320014885
Na 2.381907483185716 10.85916308797743 4.813955064370097
Na 8.586636933903872 13.025175843227274 4.982914834965164
Na 4.505823851979104 1.1641247725237187 4.388535480814501
Na 10.976510147060566 1.5258610321626367 4.1148087968269484
Na 7.7649887034475675 9.666607173875184 5.500512437324659
Na 8.175085589604944 2.473955600092023 5.785142738927454
Na 13.440787332394162 4.9629156940832075 5.903316643546349
Na 11.261027222074285 10.72233955775424 6.001342919129267
Na 11.67895784195111 4.625689508225312 5.819156480959003
Na 3.097307620032482 5.658950921985576 6.072723743580829
Na 5.214687115163105 3.2214492323945603 7.2689440096496805
Na 2.2546197858111086 11.5183738403818 8.412710397031882
Na 8.602458396502357 4.7155335541264245 8.74363148218599
Na 1.871176145760703 2.1925011061653947 6.888888117945256
Na 4.554568038169808 13.64796101968188 7.820045171591698
Na 13.440787332394166 7.895636093991758 6.858628758090543
Na 4.484464822508246 8.949530200097936 7.415932241731814
Na 10.919234991151294 2.0070177772480178 8.042457796326955
Na 7.412778908573623 1.498378961712859 9.532003470980728
Na 5.432050834192809 12.263694067270116 6.684068749479834
Na 8.696112284735221 11.692286571004715 8.403377549012278
Na 10.092864494716279 7.447212049338905 7.014836387209095
Na 1.5171841302326547 5.0980520679938195 9.166473222781276
Na 7.5715489579184565 8.429657455230904 9.177911906347479
Na 0.9827885027496365 8.297011770089123 7.052307368778958
Na 10.230379067603593 3.195461401627874 11.443028026112689
Na 4.9855388945779 5.956309672032218 9.380155087138364
Na 12.116952702111744 5.595594608191675 9.396192553623111
Na 3.773473690101079 2.446237284491399 10.333280499933924
Na 5.405446142822418 11.10619527070044 10.26311149209642
Na 6.759699350376793 4.297054493883084 11.924424079187064
Na 11.371815004606184 9.330787305798362 9.571664623585532
Na 2.6717740270932793 8.475365262388332 10.45691638037973
Na 8.609448885308373 10.403469611789623 11.893325951990928
Na 9.506573886747791 6.796290140633555 11.639012000608668
Na 5.925169617233785 7.952280810058411 12.34592671474488
Na 3.2752818762506015 5.410082568416032 12.434652339319198
