51
Energy = -54.96380437 eV
Na 4.0903559084697285 6.72956260371022 12.34916734708275
Na 3.4330397463339617 10.21007122962198 10.904922828529964
Na 7.722482906901038 6.517323997980598 12.760938436856737
Na 2.9814618661322965 13.403321521830117 9.160182948435525
Na 2.4800504605342564 3.9793467988072573 10.591180471395445
Na 6.156971363758103 9.651490814485127 13.26208662826586
Na 2.4197613393567523 10.413423955589053 7.287027756944309
Na 11.509671436951287 5.6739972920076305 12.518868047029317
Na 2.4923057046845254 7.309108188174588 9.091872182034097
Na 8.583541014873727 12.313380046921957 13.654832401974847
Na 5.71492253282725 12.966754812602662 11.597209139670767
Na 6.062440504424979 4.219948852701686 10.154356512296326
Na 8.885267987944149 3.23977907599103 12.13082583448683
Na 6.027742371103544 7.933317657261323 9.741560059660268
Na 10.114240123459373 8.973408908088594 13.751441845511467
Na 6.029191644599296 14.98481907183181 8.412535779770934
Na 5.953668717132118 11.336148251002736 8.386673707973605
Na 12.142709080475734 2.3749444792770804 10.704302750208086
Na 1.898638525742534 7.162417634984486 5.481393805622036
Na 9.430665878106891 6.2994990339879156 9.670605601237746
Na 4.442714478245406 13.095434219015429 5.7425582523768925
Na 8.92550725095139 13.681264757285597 10.093886761289633
Na 8.638695223476306 10.167443872821831 10.760333913509896
Na 3.274224419908138 10.191154451932015 3.7431296100675704
Na 3.6669384432742054 4.583033646940524 7.378013968955856
Na 11.610951568514503 11.927194450977058 11.870755907307235
Na 7.120169602854475 5.56738372443321 7.032669604761551
Na 8.637898985066254 9.126872819073352 7.37253243339566
Na 8.43050715061299 13.123203232203638 6.489447386725096
Na 12.919514145076093 5.377986348852508 9.069707826215964
Na 11.999557913582445 8.665963254447554 10.478051441006247
Na 5.112609441259351 8.312990805889095 6.18272293961841
Na 10.473772798676316 5.155111597635123 6.208215967691523
Na 6.850708825607113 10.820163611971699 4.279050785713995
Na 9.263634196114097 2.785502425126618 8.65944661757322
Na 4.7281090875840235 5.203432520970427 4.134651880224452
Na 6.275919865423591 2.299486112879929 6.545672226349294
Na 11.199957938392881 11.52603688739175 8.292015224505835
Na 8.369726144903451 7.447185922890366 4.321194219467705
Na 5.69527398429922 7.9646709211231155 2.116579954177128
Na 13.927519069528879 5.411082856302314 5.508074598934213
Na 12.105970627884874 8.222862904514392 6.918636288902082
Na 7.906250729489872 3.8483593841903874 3.6367201782138707
Na 10.51924186690416 10.669122419540617 4.728346864081295
Na 12.671109463362777 2.3790198277782513 7.0819270542292
Na 5.843622788587513 4.664738218659222 0.782005822522704
Na 9.08280642024722 9.575840908689216 1.6201918847532657
Na 9.135927040130275 6.023335737823877 1.1375362262286972
Na 9.724656847876021 1.4281603106242549 5.387260744562287
Na 11.730378067998743 7.4145407179253136 3.2901879260066087
Na 11.559904891621022 3.7369830048176373 3.2483250492841527
