50
Energy = -53.75450364 eV
Na 6.536567888838697 8.289189134628955 14.915044214433406
Na 6.259275071629933 5.3213660961953275 12.816944705397784
Na 9.35681275230254 4.623581101930238 10.65978864103551
Na 6.23035828783715 3.3101279930761986 9.457582475020796
Na 4.926265585944245 11.25693464494715 14.099651194502256
Na 8.619789823707233 11.296679857048431 13.911886736228404
Na 6.356557480947867 0.06641920931655712 7.734965234948475
Na 9.197592686157902 7.631484594527181 12.748057461531745
Na 6.800233417888848 9.9066902205103 11.383727669837741
Na 3.357687493329091 1.9619294491270953 7.607344551744887
Na 9.293560985487897 1.971167666306042 8.085066684319958
Na 6.442973968543698 13.597489899870205 11.893755522791082
Na 3.8704230916381683 8.150395367886484 12.315164261644846
Na 11.373207907495624 10.331510810882738 11.521130061099973
Na 3.2968194199850327 5.068787462398496 10.23277001715096
Na 12.277106337974708 4.200238320477393 8.01336717777534
Na 6.4672834620735395 6.820347740004896 9.730000093308401
Na 6.539984473841076 3.409602919076237 5.928365287754549
Na 12.229310156700805 6.793146264975215 10.757264025779612
Na 3.8592898255869663 11.5199624893854 10.500208022908966
Na 3.987191546182706 14.058316468169417 5.270247707300881
Na 10.024971114849677 2.7891810580208043 4.725815607984676
Na 9.025728222735408 12.347016812769192 9.905944722030114
Na 7.307632972642683 0.29912693751587904 4.411806452078131
Na 9.471492106126677 8.614764265750274 9.20328435864294
Na 11.842412277315576 6.107255313138716 4.6583523517364895
Na 11.818210640049227 11.179729422721397 7.955824743963432
Na 3.441626079646527 8.418770018992927 8.650309282861416
Na 9.24874503697272 5.501442378892592 7.290999151733559
Na 3.8335890006433115 2.353830351444269 3.9677251041004467
Na 8.459469735917528 5.677121708281642 3.714408341370531
Na 12.823376172021694 7.825003831250951 7.547845021526669
Na 6.0593484632861605 13.709540994625657 8.236432751191128
Na 6.96314955125905 3.0193291195488823 2.060922632590395
Na 3.439998470677467 5.320315797398069 6.599594512905576
Na 3.2000002077279457 11.756299639043068 7.004735222657487
Na 6.441275987096825 10.24551903294935 7.773674183424089
Na 6.352363678817435 7.048836745459445 6.322748510124922
Na 8.942575381309723 12.444736206963949 6.313787972476309
Na 12.427699734540957 9.82307374631273 4.49296033160757
Na 9.472449365175665 8.83830685480129 5.72401808436395
Na 3.7030958759992187 8.847268980850995 4.985991187125514
Na 5.82947669653706 11.836399775597076 4.449333351636268
Na 4.802851591319012 5.815930843336938 3.176882732906962
Na 7.109351651919691 6.44062506115601 0.45629130343841634
Na 7.009618255797881 8.77978012909323 3.3130989659055246
Na 10.317008528321487 8.0450240665526 1.8237645022108018
Na 9.334188570841153 11.334103070704067 2.989317629396611
Na 4.379280892000433 9.320114823235725 1.4323747727522536
Na 7.714236687934354 9.908599423767958 0.014717691499983861
