54
Energy = -58.84686612 eV
Na 2.0766889127002583 5.512453107319962 9.904716734414256
Na 5.5166496819541 4.175450797422504 9.467283122520499
Na 1.0838794244180656 9.162518495539656 9.916854899306871
Na 7.501706831495278 4.313644407920419 6.103846594763234
Na 8.24919757277569 1.711076779898494 8.630825405813244
Na 2.9152686718528114 8.4177688013818 12.819490282295597
Na 4.245357677942659 4.840849558075813 12.854131756178916
Na 4.217548876185551 5.590011131428143 6.526825479535206
Na 3.0339416105983927 7.5933255004437195 3.8336858733512815
Na 5.452900593215156 7.62238531732427 15.16480357408349
Na 7.656293108976727 2.90379670848671 12.0841592751865
Na 1.2365702353471018 7.477185789476518 6.901878378032781
Na 1.7469784034703064 11.300173633425606 7.046802606921761
Na 4.684866765611802 7.7338235041301795 9.99868527974166
Na 7.478954113392931 7.493466874089686 7.765062942566227
Na 10.871164839104043 2.957224067548951 6.27103556424596
Na 4.378652750255056 11.075811900909395 3.984321299823831
Na 3.818313995418929 11.303216495806884 10.38613156881349
Na 7.582691483724589 4.794248435593698 15.152966788069703
Na 5.781160190871969 5.091825860195683 2.633967264949707
Na 6.255897086005324 10.146145180067045 12.711131814580842
Na 11.570974508847959 2.8393481860218888 9.973506279122198
Na 9.67250768943259 5.093819989917772 3.4713722282396073
Na 7.088799995054634 6.568098970848695 12.117378082902098
Na 4.417510772471238 9.237977561481413 6.951706674514275
Na 5.137641899609975 8.610956725437145 1.2285518360502325
Na 8.986583225181391 4.931118717268982 9.517074395857529
Na 5.063527645533952 12.808533735118194 7.384286107302332
Na 8.911404942415947 8.281979921741513 14.65891424222643
Na 7.295920786102942 10.599176784404063 9.330875462844869
Na 10.417286704227969 5.194300098866006 12.899167097860339
Na 6.713633851809212 7.701279406939672 4.3474168472935455
Na 12.570217716932994 6.428038247918729 10.156224725081115
Na 8.489839834186983 7.530757253859411 1.124687048287346
Na 13.933728745056673 4.443136944945182 7.606332224321195
Na 9.69266886786603 8.371332439438152 10.642678141353144
Na 10.751036637925937 6.362357574918474 6.912477936186689
Na 13.189371984915917 5.833617760645634 4.46208980097532
Na 10.181047685675898 8.586680641786739 4.181356257849821
Na 12.126502149239256 7.226667377304774 1.4825784431016447
Na 10.510856251510287 9.953335785799592 7.53855734160311
Na 8.605903324353188 13.659479331093513 7.225267238886439
Na 7.551103003532939 10.733756666326864 5.790925904852167
Na 7.141250627993116 13.565438794292893 10.748967458796697
Na 12.14052038326011 8.528146622072171 13.244939712883738
Na 12.941879001037934 10.083548804014264 10.171636918257475
Na 13.915386285688571 8.221308243791226 7.184448427952517
Na 7.711014819199345 10.975657710027429 2.3370930211690575
Na 10.62905964808644 12.15771437100294 4.528391296402002
Na 13.51943823311531 9.742881969909606 3.9377461734359613
Na 9.67936761516969 11.301261042650816 12.51590325091653
Na 11.11858532835697 10.601332361459653 1.3417055503669215
Na 13.330515024190365 11.864251345755951 6.982530037436855
Na 10.820305216725203 12.913502903465071 9.64618141170942
