52
Energy = -55.46433515 eV
Na 15.326363459323728 5.027039610670171 12.190980251385332
Na 14.715673753800575 8.051172214014906 10.29369893765711
Na 14.424048388392194 5.013038018733822 8.60337030305234
Na 12.626741132729064 7.108579726904867 13.080944388521356
Na 12.963058358678264 8.809375570929678 7.129952761878778
Na 12.106740098734825 5.408262325943589 5.698272657449749
Na 12.203290177362517 3.773148841761396 11.64943157604946
Na 11.61788918085335 8.162154702891463 3.5643315228813712
Na 11.811804022327445 2.703406442245697 8.064384060265784
Na 11.62539179858066 9.553254567488802 10.586982086993423
Na 11.192308639703203 11.524241965330717 4.753200026419591
Na 10.937107705187444 10.766914364503869 1.1619728598003092
Na 8.903447548668941 4.500853224456642 6.779092986851029
Na 11.175958708106537 6.257282550409773 9.224074906342514
Na 9.71790229661215 9.544931966116001 13.656617937737852
Na 8.973305989899735 3.203322285839627 10.136961143183003
Na 8.859378599828943 5.722503710445079 3.5492081449088566
Na 9.49716434736318 8.061694958498519 6.646956778082028
Na 10.001983390115175 11.325152044676223 8.03533415391232
Na 6.8795962964799395 7.619599428903656 14.424491626729429
Na 9.297748100010638 7.735094762036513 0.6756312215496029
Na 8.73547285350076 13.112733319993598 2.4649342980957623
Na 9.259695956660536 6.280901355480129 12.17889125914654
Na 8.191723803598142 9.67209043742226 3.770020817986921
Na 9.556694088443578 12.42119433585939 11.529823834625857
Na 8.70310204331381 1.1734966144859071 6.868298432853935
Na 6.394673380675507 9.762352983657463 7.16978265242195
Na 7.306084199010608 10.646626510241848 0.2835708211744943
Na 8.058766287294734 9.322832625255337 10.336648680179355
Na 6.332134008354119 11.058050991803047 12.836511481107317
Na 6.943807295752341 6.248077912581081 9.105218048852892
Na 6.299056284943149 4.4162691948802975 12.31532973459454
Na 6.774166944573835 12.68183373264817 9.338413920002703
Na 5.8621854048914575 7.743725019053475 2.024875536952392
Na 6.113252166911843 3.25721617115398 4.761127040245715
Na 7.724670300090088 12.82428281089984 5.795791100118734
Na 6.115015844316838 6.637165361844667 5.566269223230208
Na 3.561852210307 7.501707420958796 8.069291834014003
Na 4.940891904543805 7.793719997686274 11.63760927810987
Na 5.8757095722969614 2.923371183688956 8.425636474863794
Na 4.180259413494257 12.348739284733174 6.5586382439577084
Na 3.369959600856101 5.701102123436736 3.565038390004798
Na 5.378121679388232 11.770014929672842 3.0793492362365193
Na 3.9913012047437624 10.690832589760028 9.953782917737694
Na 3.3925075518958563 4.771253678827617 10.376262210038668
Na 1.3719670858346997 10.310017496598594 7.4860207159846155
Na 3.1188330506259256 4.182482961337756 6.705959330440981
Na 3.5890834424911415 9.153969950600219 4.689379791046705
Na 0.33564317878288524 5.172278966771515 8.788412083826772
Na 1.4447258641129959 8.139822347791966 10.868569696872399
Na 0.8011700719813735 7.009622331256887 5.76832565590686
Na 15.326363459323725 8.268181889936068 8.618842646385442
