54
Energy = -58.97277734 eV
Na 7.060626158649811 14.08987163697195 7.956840638611916
Na 12.299771856815095 7.09191145920216 3.5975936336756984
Na 3.7865227983786105 13.276060525012493 6.461541210332537
Na 7.243123637871325 12.077166137851247 5.124608920914079
Na 10.596699246905239 9.478966665815367 10.541470114641536
Na 4.289472289183042 11.406460035476057 3.3339410019015805
Na 11.948972076921944 8.649815329347202 7.207392797758422
Na 4.330633311078382 13.455215395580929 10.113967345103502
Na 7.742702478784318 11.793793270292033 10.624118560886417
Na 10.203050488708096 12.184242865250729 7.677518375960755
Na 12.793637529466501 6.513744880005256 10.183326548486825
Na 9.885901806978714 9.929896005294832 4.139680438578761
Na 9.124094087200858 6.816186558684576 1.711931869204671
Na 2.7115885918289178 9.592382240145552 5.858015268506216
Na 9.365835328367472 6.72034675284772 5.373510737472951
Na 6.130168874819333 8.609621115591265 4.926995220196066
Na 6.922815268450058 9.642022118853143 1.7376145364123172
Na 9.7260726411717 6.228958123598699 8.856452340877489
Na 9.750641991940734 6.429282668132869 12.371490350042341
Na 1.924603885343094 10.911898497851086 9.033185882573239
Na 12.094499066848503 4.825969233274933 6.702834927186526
Na 3.3993536063709895 7.822613056442019 2.608951220084619
Na 4.567483514970761 10.225901372614146 11.696514787057039
Na 5.381110705330018 10.684407226947611 8.098612630236364
Na 7.822202986887968 9.326195014700977 13.385222159763126
Na 7.0801629861932565 8.145220697372396 10.336677157508916
Na 8.484285859100847 9.375601061725781 7.444717786043659
Na 3.050746992878912 0.8338323387613824 8.163474312592902
Na 8.085482690773809 1.0563340087384538 3.9027812872211243
Na 2.2214069048735343 1.2075048960665224 4.513310483207387
Na 4.873080426950743 0.6028399882734561 2.2187011659019054
Na 6.490708914412269 1.5465120030362203 8.964398024599468
Na 1.4327335085946746 2.0333217779828683 1.1613414648155165
Na 8.87550845984879 14.35280888696407 7.282057641774899
Na 1.315242955124646 3.6893773152353266 6.8857653585324785
Na 3.881422091885033 4.217380106030637 9.352702581044884
Na 5.017897247878511 2.8822032375642785 5.937382552219295
Na 10.274078877241923 2.6965330927812285 9.439548085332014
Na 5.466899876456726 14.08987163697195 5.827640098777534
Na 7.2905891905931215 3.1333456448495145 1.1215672799819179
Na 0.7492544122826322 4.949268164311995 3.5864924478310347
Na 10.301897630462584 3.830860010915725 3.330641573128248
Na 3.919974938022183 3.9137247216499382 2.5793515454840095
Na 5.708390683221834 6.32409325994365 0.47051482570588243
Na 8.580072224440498 3.376156978440607 6.553582476535317
Na 7.239367762252292 4.474831371002175 10.718976261954912
Na 0.6344724044111426 7.150432367479539 7.396054967000971
Na 11.448788934900318 1.388799860772108 5.727941718350999
Na 2.1240712691257255 5.430918520090231 0.1083840854048393
Na 3.6572737538196987 7.742354120560625 9.154634421272773
Na 3.5138430978469817 6.066211074833762 5.672198375981428
Na 4.99212778838744 6.67068746065673 12.528200154085969
Na 6.473961914022075 6.080134970915746 7.493733203552
Na 6.760575720932326 5.243385668343428 3.8498008938965413
