50
Energy = -52.61430321 eV
Na 4.135889235235714 6.734651970711489 4.515590872437888
Na 3.2294895704977047 9.95514852250311 5.12789839400869
Na 2.8631315566311355 13.3473793188713 5.803827768887606
Na 5.764347682093623 3.5627551994104003 4.233279882703839
Na 2.981080783353871 4.167897384503109 6.3669380768768695
Na 6.56195714225689 5.808956262571669 1.6650623221401135
Na 6.159095766187395 9.088219724892934 2.999352173471944
Na 5.936374737544472 12.27935904356991 4.412489019902485
Na 3.0389537967150164 7.431540268199073 7.837141435603726
Na 3.585050336638422 10.879685286203921 8.49738940767814
Na 9.39575679156518 7.914787141252889 2.2373326119415475
Na 9.046090591249198 11.320655390373368 3.23092215647385
Na 9.71366369695312 4.366517750665829 2.6489040071714265
Na 6.087392695693873 5.563373510955944 7.579681777227666
Na 5.7139657988835735 1.8333778829787466 7.27254829179858
Na 5.781732818483769 13.504969895592035 7.721440572674162
Na 6.433311595081578 9.226042500267651 6.591237779403651
Na 8.797758529784979 3.1723728995967013 5.895125903892247
Na 3.773408869566404 3.7049091240656513 9.639790001110617
Na 3.0978797974334955 6.662850673279943 11.255128892135643
Na 9.964500017906712 8.870234925546415 5.929241835682439
Na 8.84536221115138 12.519929661560013 6.431141642956743
Na 12.235719416929284 9.943811761853757 2.7846717267281216
Na 6.209540966753337 11.769884940719145 10.649250753789637
Na 7.853621586776824 6.4682466280067965 4.935559838244735
Na 3.4232286259312295 9.997737171039322 11.788378161638107
Na 12.233209812994856 11.535614367593174 5.7245857536327325
Na 12.695927785510907 6.531569159449092 2.5526859348402873
Na 11.37258655971403 5.533375065718643 5.630882437495127
Na 11.706646200062861 12.992022050792906 8.650716507096035
Na 8.132826760787061 3.3213714002389696 9.323936936808847
Na 9.72781790856339 6.396289783661831 8.54889628450867
Na 5.86979469341007 1.0099160109678926 10.854275951420055
Na 13.719449079851891 8.144532968692905 5.672629481535464
Na 8.976345162473244 10.166441303960886 9.023921621280403
Na 5.617553000792142 4.36047538129863 12.43022774542883
Na 6.123814188647005 8.19213094237612 9.88004311318312
Na 5.714099931913797 7.692333363571535 13.341730952884873
Na 8.643539739544426 14.041754941284337 9.618403447688836
Na 5.974531579981232 11.112983133981398 14.037228274782182
Na 12.389364204537111 9.325000543300641 8.608008677915322
Na 11.55733456612484 3.0068087119361975 8.005643922046893
Na 8.539044304091759 2.481447138485692 12.578000239230256
Na 11.523738812879529 11.112264961739236 11.551175312808473
Na 11.602652326736626 7.607595927106997 11.445375722080064
Na 13.408353305058943 5.908418125215392 8.748991000531397
Na 8.593416144198502 9.400172531314361 12.369946314689736
Na 8.70357734837957 12.86050323164181 12.916664950771091
Na 8.491713917814325 6.069720982012848 11.791804197096527
Na 11.349891257299738 4.18004028942847 11.17500400572473
