55
Energy = -59.10216157 eV
Na 3.3537674929201753 2.8348057729143035 0.4232368888335148
Na 8.650020876457141 1.9821332643810001 5.2805172474670545
Na 5.291279523127148 0.618790612400423 5.743876517116386
Na 4.321841508363992 5.578399714114345 3.002168103617873
Na 3.149016357012788 8.828156349432959 1.84217952259617
Na 5.768303604624551 8.402743672183922 12.973153362180957
Na 3.1151386485369192 6.13048948908905 13.03037254040661
Na 0.5237760184935586 6.614956505431694 8.379326291358
Na 7.621819230962679 4.671791420554522 8.661670507910982
Na 6.051105846033323 8.639490960904133 4.307229487350264
Na 10.144959829381682 6.2993392877519465 7.173984543707783
Na 7.343380508829401 1.294091599390702 8.588513126566852
Na 1.0728784259232955 4.934834669231016 2.2336240605107727
Na 2.7475751509934283 2.8591693522807833 12.432717985610127
Na 1.4714352234794448 3.45550997953573 9.276914101771089
Na 13.126151429612555 7.12946595655092 4.744548069759055
Na 9.70686403823219 10.81617978832313 7.04802479234421
Na 11.144888448610184 6.766986541688198 2.001450456992236
Na 3.6193818663009676 7.2582814245863165 6.582532722787575
Na 0.8725946571293222 9.788201095273127 7.348474007045778
Na 2.7952462727983285 2.272676755459545 3.795358817219557
Na 7.34832402175228 11.517593631048618 9.556165131602556
Na 6.2787838272644985 4.677714211995259 13.17657489766239
Na 13.394965624104534 5.305015985215726 7.686812065896724
Na 9.551202781938716 8.21437490079943 4.56239534327269
Na 12.006201159054628 10.247167936518675 3.8503454646407267
Na 5.9339432480898795 11.039011556177167 2.031483590027098
Na 7.096320298290332 8.309455732678474 7.718471624232823
Na 4.1518094052269765 5.727885755207029 9.677566271141172
Na 11.139701617897224 5.645527708586419 10.304645133416836
Na 10.780342934953827 2.926991797166206 8.037363323449016
Na 0.9618701785451748 4.355540624140048 5.848113764408564
Na 4.316898384420731 6.034527833274738 12.973153362180957
Na 2.3763813835774075 8.627074310307904 10.59559008701108
Na 4.450095593924475 3.612421233897309 6.84977062219872
Na 9.066214684282354 3.7349952925179517 2.0434682222335323
Na 1.0628589735336886 7.7358609255245705 4.4290348774089034
Na 7.605354281272747 6.952968127368515 1.8980276580375668
Na 12.395164211921372 8.74642663737133 7.595460352223587
Na 1.8937928050221038 0.9732407723991192 6.807859420057883
Na 9.338183361283631 2.803810654701699 11.181957870472548
Na 4.051777875226009 1.1545392663079566 9.447132733114932
Na 5.956552165861449 3.171642383507208 11.396270938743546
Na 8.743019870440706 11.540940596155208 3.8388978816282697
Na 6.3406083675750615 11.667198861046485 6.13347973796373
Na 3.200490406336321 10.534202852147894 4.862296327616774
Na 7.936530755428488 6.108434565620186 11.785665862137856
Na 4.132004999288839 10.358804301394795 8.336678840910604
Na 9.226831768330788 9.757277705331086 1.1225815210685746
Na 5.886656293696536 8.708912844861901 11.04110171850755
Na 6.063413660071583 2.3731839814321645 2.7067755001657674
Na 11.282416148500115 4.296983926729981 4.65218318078696
Na 7.400152547470765 5.161428176945018 4.9797635788348265
Na 9.626707567247346 8.870645324547358 10.091046034098243
Na 1.0001823684478508 5.8188839037001365 11.844478135753183
