52
Energy = -56.1621407 eV
Na 9.359390858666258 2.8699678260357224 5.232905251001048
Na 6.515694653741835 5.049520751978254 3.6896606458918586
Na 7.257708224786311 5.306028882101812 10.642765526646741
Na 0.4110190354066519 6.336296405599489 3.4166908367871827
Na 8.326047497945655 8.254524729316298 8.562230635221514
Na 8.232009558938795 2.291838585192301 8.78974289079292
Na 5.6939527433983494 8.162555789677151 6.083625812380977
Na 4.810133094940469 3.399975450434054 8.997245543333468
Na 2.680082188680435 10.719580712479726 8.768031141452083
Na 11.705616028142877 5.206740768473974 3.827916811407945
Na 1.298254691848718 3.947677839407257 8.959295700292792
Na 2.6885328588411257 1.093760030657261 7.251924726153538
Na 2.0480625810667767 8.502864047949162 6.218257355085435
Na 5.59188051050985 6.260346979844619 0.4850549867264304
Na 10.727156478486691 9.05369334481281 3.103306758639186
Na 0.2658086232803921 3.5589744298683335 1.1033595034037085
Na 6.0950269285971075 2.01130375362935 1.7999490363434456
Na 1.9651443039920207 6.8039064605822235 0.30194770156405315
Na 6.971165073607595 5.137602449228459 7.143915762791822
Na 9.112810056224887 6.107014886036697 1.5058159015211838
Na 3.6335483854490014 3.7565603128630327 12.506320052669402
Na 3.2667927852336844 4.024733359692314 2.584089300057181
Na 1.2221170004952553 7.42173877861419 9.919569456131418
Na 13.002399457923943 6.2434758697026504 6.854929152953884
Na 8.44547345453046 13.262165822309084 3.403313581113074
Na 9.062111170583744 7.043516630757687 5.1613019922326995
Na 10.34486402282343 5.221820677732517 7.89478851083383
Na 6.079138801710681 10.980500932597199 8.426152192423595
Na 0.6278949464935301 3.0677013164816462 4.934494510621014
Na 8.250675321051407 10.621798838392898 5.545197191402097
Na 12.711202785607352 9.751973466324046 8.13382269357301
Na 6.987082265111974 8.8957090354181 2.700522549652115
Na 4.669807613186797 7.567689657341884 9.388332259059148
Na 1.5991062708759152 9.963511112933908 2.664813635305663
Na 7.522142835853468 3.4919923634978387 12.554211182332338
Na 3.4244240149913123 5.1540807563375735 11.756336598751524
Na 4.396501967361208 11.160176072043098 5.1270526293753145
Na 8.785720359951412 12.93314835603379 6.8168231602371225
Na 3.2160505549840552 0.6573011436493157 3.8344222603150957
Na 9.969028228229753 2.6500226921757415 1.7785222486451677
Na 3.844380375436114 7.485462156745257 3.2791026382812007
Na 0.9326627596045485 11.947260061998229 5.765335750925845
Na 3.355145640790756 5.04378343451443 6.100045544875927
Na 5.916931461157604 1.9764393207329904 5.665600397823947
Na 8.494332733546466 0.051743762029009044 13.334496796123322
Na 3.1423181153140844 1.3255722069396174 10.982732633856687
Na 2.56697725549529 0.7578308878763652 0.4827829471500518
Na 5.471121461215725 12.07580001277491 1.5352100078964293
Na 5.688311597724081 13.287618179915516 8.689798250255112
Na 5.637378590549211 11.947260061998229 5.228233771519955
Na 5.4112256416461975 0.5695328283940759 11.916080611732195
Na 12.307411732855895 9.219034423770683 4.7096197522243095
