52
Energy = -56.61807327 eV
Na 2.4793196839585554 7.713765398897462 10.158220457983523
Na 7.700881536410584 5.852190461957909 8.40457304312381
Na 0.4786136899935659 10.32513722808657 4.201834910799864
Na 7.655262200802728 11.809936605696478 2.0899987441573997
Na 6.452622976442453 7.323293161967977 5.526103940430549
Na 3.1395390021988296 2.7837102149443282 4.546983073184951
Na 6.3407961253597644 0.6148458940929955 4.75950761535725
Na 8.265981240257199 9.339533289080697 10.777699740033025
Na 11.903542315519019 9.098313460207127 5.7013640219508455
Na 5.790112512316546 8.811005912714208 2.4756043844444613
Na 9.939003589665596 5.754101972307037 5.70650576634398
Na 9.280444132577594 2.813375867342514 3.3174824352989685
Na 5.344866527377429 8.783972975595383 8.490280317381874
Na 11.233566868970804 10.780776226798492 2.1292295933375076
Na 8.706733985562911 2.141725683483271 7.1012659113309775
Na 8.700483931649131 8.560064629070778 0.1861071319633518
Na 2.404812248875432 8.472305704626608 1.4552540443309525
Na 3.674973255972284 11.665783091155484 2.907016812716365
Na 6.168532231898669 10.97480220811255 5.394699654613451
Na 3.96387020791848 1.9247703253117758 11.324409529133243
Na 0.6702754365424262 8.2131147321673 7.19297894819756
Na 5.243694326730107 10.157651613724948 13.5530202261235
Na 2.742350068390684 5.003964375625848 12.884837278624584
Na 6.962372341385104 0.38801310906674896 12.646033053836614
Na 4.946384300326474 5.269801626810361 10.266269684021413
Na 10.599352687112678 4.010127234668823 9.599337130762596
Na 9.669775987659254 2.8764275326365327 13.107327642514761
Na 8.978736635246769 8.97508895197273 3.8050259324132525
Na 6.475488888521873 4.004310229771329 5.2302382874845605
Na 3.3308862182861643 8.695924980030691 4.976840904947755
Na 9.79234487798583 0.4524360972890817 10.432210204612435
Na 9.739194856449402 12.113163383831608 5.245083762449459
Na 8.707303546629314 9.17647155359185 7.256525981034411
Na 11.164629769602536 6.715798046152773 2.3423535013544585
Na 4.724158874355835 2.4785205945180975 7.824456428139442
Na 5.928954986621071 2.822187059426381 1.81547246579796
Na 5.592519348314554 6.477092984806344 13.685442285696821
Na 4.1613508892798325 5.694783161732896 3.029315147814423
Na 7.101445513005618 11.993103830778418 8.635317284053533
Na 10.879546269064118 11.224221380598907 8.814007862820601
Na 2.9475163547409577 11.183276350406512 7.287753777713843
Na 5.495985777981841 7.62484954042443 12.741746351980586
Na 1.6788930241916833 4.061189852807252 9.294593662858295
Na 6.134234157188465 4.081625432199928 13.5530202261235
Na 0.9424860414439641 6.065574396369095 4.355869330968638
Na 6.48186477449746 13.71768298525998 9.052358206298521
Na 7.765814097910647 5.894679472803521 2.6081745600769146
Na 7.358981911274735 2.922699476001284 10.399667018645433
Na 11.062435616775465 7.579226990365578 9.145863971008998
Na 8.831906968025354 4.7211387114943815 13.67360616726606
Na 8.703135969340757 6.107098885585368 12.009668819100787
Na 3.597234470152722 5.764320871003806 6.837943535940805
