52
Energy = -56.13119157 eV
Na 14.878944148451529 10.744675165304082 8.26792686432444
Na 9.997531130046204 1.7950856590104385 11.300277411450189
Na 12.631267453133404 11.208737080893677 11.112199009264335
Na 11.142083642727906 4.975392894185179 10.045958691595517
Na 10.610810232704242 8.3862963112218 12.233295348674183
Na 12.327040447185821 8.308383583456656 8.957976202951025
Na 10.293944300836747 2.089734561820282 7.683229027817042
Na 6.477396832077997 1.8399027169021833 12.093098651377273
Na 8.365666343583012 5.258468944398851 12.314046095669735
Na 6.894120588163526 8.61103462806877 12.315686501922832
Na 13.33952883896947 14.012223001024193 8.971210958534941
Na 12.04386223383398 5.3219038072971205 6.644989442045441
Na 8.98037544991123 11.61260297196615 13.168852672763805
Na 9.602209423460456 2.9653530551010574 4.177262303086446
Na 13.311033269747645 8.656653783505115 5.441657176083615
Na 9.339326360613082 11.252125349782323 9.779373288222043
Na 11.69605815795075 11.569446485844827 6.959105460009738
Na 7.586623940048917 3.59498216851891 9.420890936874054
Na 7.512872233778185 0.03683702268752877 9.081161782455185
Na 11.026175134988005 14.249098209429812 11.61658130092001
Na 8.80258805376267 7.567460697792792 9.42363622306276
Na 4.660353517091356 4.979672636954927 12.086238501713847
Na 9.859327565582019 8.47773306705727 6.298676229578276
Na 10.50973985804319 10.133820006671371 3.4424056471619484
Na 6.119052271149144 2.5156071716485857 2.7227220792013784
Na 6.761912200361465 2.0377843540911305 6.218225302340361
Na 9.722047992942558 14.445658757708225 8.279977465640034
Na 8.57311772119823 5.215562734459737 6.741883096433193
Na 4.3677694461337735 2.399322679415951 9.051101311923622
Na 10.667501942173581 6.445417962943213 3.5136425185284446
Na 8.571717243587527 7.756399006411302 1.0306334148289482
Na 5.611047325656195 6.4614180592461805 9.362611861936385
Na 6.390321293282464 8.06117646141146 6.456178634699058
Na 7.0022448048415695 5.756327983442128 3.7999008542660393
Na 6.92710063687889 9.506514960678382 3.498351430382851
Na 3.368578497048367 8.599160168484726 11.16159462847329
Na 6.000495968486015 10.12848617529837 9.162111366345485
Na 8.138986617228673 11.516275905402514 6.36397260473059
Na 5.361853257232716 11.895202410564076 12.174538971826825
Na 4.6118757785858016 4.864746494652568 6.389032428686304
Na 3.0915045539663737 4.204189848349054 3.3018737115770547
Na 7.57111276090521 14.546432936155599 11.338624032510038
Na 8.591979920179792 4.201479708399388 0.9348048352467487
Na 6.047903889744213 13.635224867447826 8.366698075726468
Na 1.1372121646209057 5.798842964675969 5.859434122300945
Na 2.2280283783399817 5.449892168836475 9.323775198078463
Na 5.267051579167188 5.847520119901227 0.9342828386047444
Na 3.736962537309271 7.698160268036037 4.038915624008445
Na 2.8262320058707497 8.493058434001165 7.562371855158811
Na 4.54398361460923 11.117804213111738 5.950099760775679
Na 2.930417257577825 11.83582894933791 9.347224625699733
Na 4.0626037834148185 15.008736434187592 10.93412219378915
