52
Energy = -56.20012659 eV
Na 12.130029516592844 13.891393973214726 7.8759705037634875
Na 6.900642319516119 13.781013954591334 4.9703012670212425
Na 9.284506497401201 15.505208408135545 7.024665047230987
Na 10.429542200473746 12.408304083592606 4.659672119181898
Na 12.14959851977143 11.430369882592306 10.518493555225533
Na 12.794658605251762 10.575626387216378 7.135367369456199
Na 9.51228028546571 13.964545131180795 10.420875782809034
Na 12.122099757472803 8.774186298069191 13.128103582313907
Na 8.746612385960049 11.930183973421013 7.626703554582647
Na 12.89760625348747 9.8145223346123 3.5873065114680376
Na 13.059167710815583 6.850223336402207 5.984217601426833
Na 12.506931501282518 7.832811978015315 9.489328636327405
Na 9.574834913300425 11.147476990848418 12.935794467218354
Na 7.197681184001573 10.323829982444016 4.172621052881601
Na 6.283701209533718 14.465020877443305 8.58168918746525
Na 9.760298869001089 8.971470091943933 2.0124596317136305
Na 9.215148144668488 9.28037739425947 9.716670465268358
Na 10.162001356503765 8.995525819583555 5.780246318600207
Na 9.126256086808905 7.975525730720642 15.034471508824547
Na 6.5811287624936305 11.819299957453863 10.962048497684483
Na 12.383210645529136 4.133737572302605 8.58016303508373
Na 6.709673089147997 10.950724756557205 14.94762685355855
Na 10.135399193431388 6.24384306872051 11.745225442484976
Na 9.828616296536152 6.089898427122968 7.768751298339762
Na 12.273397521454035 6.588661800821468 2.4588896462115075
Na 6.944320951494001 6.329672322754201 9.935409505903923
Na 8.424443323411825 6.386438155856153 4.317234735451244
Na 11.025832724660804 4.2217325092083575 4.6978709197313435
Na 9.257699595995467 5.087021881709558 1.3211134445895747
Na 9.749979777720291 2.0561305619722074 6.993277052088332
Na 5.221423075892327 11.418115962610944 7.027720964432451
Na 5.3640855366063045 7.644861022335499 15.320171783105433
Na 7.007783396166866 8.607750516949098 12.426279776741644
Na 6.833165694501129 8.160057392549685 6.965450838267837
Na 3.874645285450512 10.182789276651903 12.957929915505611
Na 6.268076171119024 7.693488366337368 1.8138956370221333
Na 8.76119872110448 3.293125844280834 10.214320540093155
Na 6.970216719422354 4.275296318894723 7.101288599048454
Na 3.991771019244893 6.53051274124987 11.96652280854398
Na 4.627107507219906 9.195872575850094 9.61543478315043
Na 7.095218643490662 5.0207962209754236 13.199065993681026
Na 5.836477116925687 4.191844002611956 1.065610876842417
Na 7.308464464928446 2.5971523874754094 4.0470963401567035
Na 6.532923011714753 0.8453971624624144 7.685432773071597
Na 5.074466454971881 5.380240215757319 4.426412257650703
Na 3.8730890919166145 8.563644405372544 4.8881496226358205
Na 3.803894647660363 6.137156196514837 7.937607004179294
Na 5.115661312681536 3.2951972887502965 10.121210195553626
Na 2.9235663236464013 6.167759603775371 1.8518489801702864
Na 3.79544599943466 2.731411201002949 6.5589299604624465
Na 3.421836428026362 2.613805615595648 3.023400471111667
Na 1.6736443722611498 5.394607711526355 5.088900232079636
