54
Energy = -58.56813239 eV
Na 12.816599296566983 6.736673733156768 11.077268146834673
Na 13.75528259910267 3.8324910457083283 9.065089468834461
Na 13.312410707991054 4.939911105642244 5.722409463910011
Na 13.977178131177507 7.824952537699215 7.856408265793604
Na 13.6100242212502 10.34398712459562 10.314607369905197
Na 10.81728749486714 9.348356163597249 12.610166660487799
Na 10.746261496743486 3.396955333197566 10.976727224215916
Na 8.025577691790295 11.169296890245354 13.766503878468848
Na 10.435357459260175 12.368983206587508 10.687446797489066
Na 11.762479783538955 11.589694495931173 7.063357537093344
Na 11.394262505340786 7.913491216310678 5.470339363456805
Na 8.926303605216251 6.611909586473161 11.302915501309775
Na 12.358003909024795 6.33730687106724 2.4835648356964763
Na 10.914901217586626 5.715385037712826 8.226304863589373
Na 10.87603069604935 2.254964102655068 7.112201085697441
Na 7.97172368628417 12.93898331447621 8.08144317973115
Na 11.979538414103441 2.8305567672351204 3.3873391335079766
Na 10.926529757638303 10.599559446277677 3.2279125119313745
Na 9.260606023834148 4.859516382608193 5.137032230614747
Na 10.615292728506482 9.046840016597766 9.052765327350121
Na 7.50343180643225 10.238495455839448 10.474025756178662
Na 4.600205105395888 11.387380856006745 12.825130327397995
Na 6.099208164991506 7.889823495930047 12.975051752621182
Na 8.21139833110806 0.9393102883825866 10.128748194112783
Na 7.169452412489649 13.747011959557954 11.520512879139849
Na 8.89873997114437 13.26180936719099 4.701574074047478
Na 7.433020696147357 7.359854027385074 8.191390151990195
Na 7.944607535475587 4.019740994411639 8.832825041091207
Na 8.80519101966759 9.962363796472816 6.043285250721095
Na 6.985507560983584 3.788520925390771 12.272511541436423
Na 8.838795879282635 1.5328690668621379 3.5240468767983013
Na 9.550425767766862 4.3716304830347 1.2953133969324324
Na 4.735275534551185 5.698868695958169 10.183238093105173
Na 6.900434319025841 10.628153269516755 3.1654441379405442
Na 5.158869394712729 13.01841582591741 5.456944304141772
Na 4.447218671980886 12.772912255783593 9.349992137119244
Na 6.5002318783269954 7.4085302949569325 4.890732596210362
Na 9.059772907773633 7.640979232284802 2.568887282451439
Na 7.252039419600281 1.4012071463790605 6.5884238391932985
Na 4.174649668781787 9.166007342069806 10.207533151845153
Na 4.823850473125213 2.248565707736193 9.37127058512701
Na 5.647330281915503 10.251511136957657 7.1240904339923246
Na 3.5141917730601144 9.63066403905756 4.162878606018012
Na 6.425775818629134 4.255022059410164 3.0147341206646336
Na 5.41126308438504 4.394334555456672 6.526631308397386
Na 5.513128445239044 7.548986632599248 1.5954738352471904
Na 2.0548890284394115 4.460386002112302 7.777434122891304
Na 2.1213689722763402 10.899688941405886 7.197761835954442
Na 1.3590640609499915 11.084531981429091 10.719056226638246
Na 3.691449900986248 7.470818802308839 7.212136445226775
Na 3.1711834569701454 5.903932238110218 4.107738310942131
Na 1.1744663542846219 7.512020038101093 9.669692814688968
Na 0.4669892175723891 7.750413470022378 5.937198410451058
Na 13.977178131177507 9.876508536692985 8.275101986850165
