54
Energy = -58.46746516 eV
Na 3.69002714249561 12.31273302940754 9.777618899017666
Na 2.832792922079771 8.523084719039066 11.562857641110549
Na 1.1998432161761912 10.525268436986599 8.063650214426351
Na 6.995736445100807 13.436775612827153 8.684435660567244
Na 6.011606690065231 7.091260852399501 6.244354657887232
Na 3.38644543244672 11.74256424011808 13.218976028479062
Na 1.2484777056726029 7.062348052134235 8.385326346507892
Na 5.809843532323756 9.747687213979928 3.5730237007945846
Na 7.5757435841869 1.4464919379890921 4.023361467518812
Na 5.803480681709692 3.203253328302475 6.865317210886313
Na 8.503292214120316 1.2122652609581928 7.804266583193641
Na 9.181441725874278 13.170605640136229 11.49755702874505
Na 10.494464017765967 12.259377796774993 8.244624305979373
Na 7.458201765097353 4.873686841360421 4.171108319515583
Na 5.802981071782336 6.254768636348677 12.51690365837705
Na 7.30934891410251 3.5468637138334413 10.293289637180843
Na 4.842448113127482 8.92025082831241 14.61859501653843
Na 8.049235763386807 7.259025886557028 1.610312349010451
Na 7.584843347570617 10.12599589878474 7.788556196013913
Na 8.94553002956833 5.049161466138827 7.406453371642345
Na 6.943479511819557 11.831670955847056 14.476383797547395
Na 10.956479323937476 3.253229421376533 9.703305921716165
Na 4.350004033029521 5.461346366674138 9.270376469427763
Na 12.760116416499786 5.116598976439969 7.234856979850601
Na 10.506934409742325 11.278262844141025 14.186932545149228
Na 8.376447030543327 8.484574156206248 13.811751608945281
Na 9.707874805782227 5.640862394088686 12.140235830167049
Na 6.340056261774805 10.351749935774345 11.322719654477183
Na 7.560707651750979 7.260953116428084 9.763739555848932
Na 15.445872306007972 7.399166440347033 8.486126704293913
Na 8.841153360605748 8.690494125775755 4.728220713449557
Na 15.076109451609943 9.300678295592405 11.531416919776095
Na 10.633243369220892 2.6678447038623627 5.434665436955353
Na 12.472313644513376 6.7486233141616685 10.33358523061187
Na 12.143109224962872 8.28841890608416 13.45681507501814
Na 4.328030715528642 8.961564772391934 8.542291905064227
Na 10.88422198412206 6.01356627313171 4.44175558379119
Na 4.320480982144832 2.84312207562214 3.552774566417216
Na 2.967413596306239 5.119935576743391 5.896863741030094
Na 10.691058962662181 8.219576267731895 7.564010532681325
Na 12.686463023100895 11.924946949391904 11.449972806930095
Na 6.427356594130804 3.939860710403466 0.95686395312967
Na 10.084972954212274 9.626288730574533 10.819704977345054
Na 13.52381773595223 8.199209779075662 5.377539339848191
Na 5.798613682648311 14.180730522963184 11.986009076090753
Na 13.434417378254071 10.261093181840906 8.423385307619006
Na 2.720089707526673 8.672551458944518 5.28440054541599
Na 4.524997135820003 6.456201132456623 2.786078996972796
Na 9.925383771005945 3.968987760866146 1.8419660760394723
Na 11.538667890930626 11.103653219022034 4.933801155295493
Na 11.530528256434813 8.515382781988617 2.2024608142781394
Na 4.552884260970299 11.677667378510778 6.330134846381949
Na 9.01279547406399 11.032219791118507 2.066308700366234
Na 8.14704793194843 12.410384767409196 5.205378625957774
