50
Energy = -53.91855904 eV
Na 2.2052238668349817 3.016285380838562 9.718211448378804
Na 3.5458482095069623 4.912942430197945 6.965916163172101
Na 2.192290772343462 6.609580434186412 10.122875940762036
Na 5.356141059462317 1.915453869061332 7.936610816259329
Na 3.359932760475053 4.699593382208399 12.817519154515217
Na 4.230311426019667 7.851458384876625 4.979955255683516
Na 3.3776838093816033 10.281731050211187 10.939127530982972
Na 4.796641397478649 8.12468547814824 8.460044818076701
Na 6.16947174841902 3.9086563956314397 4.615807037315079
Na 4.8091835196559725 1.604477234227843 11.60130324837421
Na 5.505122313442363 4.678931766771139 9.930396724742954
Na 5.576253918510877 7.564734572238913 11.90550160038603
Na 5.493789947949745 10.878840875661417 3.2961674328278683
Na 7.3554000314720485 7.478014721052885 3.344516663777951
Na 5.0570225451518835 13.478356765740717 11.526939152022356
Na 4.150620719355072 11.604683345567807 7.04346008500576
Na 8.726897065501571 2.956742766436122 7.316645231310746
Na 6.929003386445637 9.75866737685997 6.229914469299595
Na 6.927333992350866 4.187449089657496 13.273924808560144
Na 7.270484536290767 6.10486788293846 6.9723513822406815
Na 7.234111253084009 10.712816642642581 12.946717951584757
Na 8.57739462169342 8.30473467446729 9.454040307577543
Na 9.169096411527008 10.793758385394106 3.4124220217086343
Na 8.229671450995163 1.7897508833192899 10.83824925363376
Na 7.615441706290664 13.538662609468155 1.7327421465848258
Na 8.976114797288727 5.049528208275435 10.254075248364227
Na 7.411154577553226 13.299656566860909 5.239939203900884
Na 9.776757175064972 5.0667778643761885 4.523123049560584
Na 8.91158663985532 7.387849702972216 13.057313953399062
Na 10.597576933246179 14.027247120787239 3.7265415505648574
Na 10.915118777222387 7.774322766824437 2.4577106898329117
Na 9.385370256883768 11.52812280345403 7.874652161633757
Na 6.495258935706707 10.997628415647151 9.63389131484148
Na 10.0088303117163 8.42919414489114 5.817528896809193
Na 10.553826312500874 4.216209289196321 13.300256625531476
Na 12.619450783888105 10.961801391615452 2.637025606254142
Na 12.006970220588968 9.197323259601932 8.530974203043217
Na 11.373707042670652 5.724290130611433 7.665882681683135
Na 11.973860468195625 6.781675273355433 11.076723979529929
Na 10.563797982735348 10.336151285946036 11.608918652927612
Na 10.178211074326047 14.79818700496692 7.3345646222514835
Na 6.455454055059158 14.29400376745916 8.364286347065008
Na 13.388035001766077 8.183860308443535 5.336656289583955
Na 12.225771482613846 11.76382608443086 5.919757892412463
Na 12.115833597993271 8.274849876383252 14.191163492260676
Na 14.742782508363467 7.059132597292545 8.70372397323953
Na 15.140711635807616 10.590656928308356 7.7178899180973515
Na 12.506114084622178 12.670122428766716 9.430842876458385
Na 14.15520049774693 9.710618317564398 11.229242837568579
Na 8.899130583316275 13.438251639120287 10.851154247610813
