51
Energy = -54.96319567 eV
Na 2.371488464705098 8.942397200181786 10.246528211129267
Na 5.895105111265471 9.358208474554916 11.194497862325425
Na 4.738584653610303 11.538388074727411 8.466764418871307
Na 4.010992109627733 6.700686673131707 12.576797747438425
Na 0.7466153188445372 6.448056482372091 8.07388374314886
Na 9.359027389442486 8.606899554559655 11.148400843354992
Na 8.170733336982703 11.742901637182088 9.34779655666371
Na 7.535534517782304 5.982784555798852 13.912286435444344
Na 6.64822888141821 14.040530005278926 6.683945179619896
Na 4.400962511151278 11.724119957401152 4.709404071075245
Na 6.743422967172675 8.608185545919017 7.834311223500177
Na 4.811862074043703 3.4482738316188843 13.325191518703425
Na 2.0425323801119015 4.2451253163364155 10.96157574983602
Na 3.004519460892928 9.023693653716423 6.631283700957622
Na 10.423613657723777 13.173587869467589 6.723155672819796
Na 9.624808414441675 6.4706207033910905 8.337874593013991
Na 10.59394171350642 9.764393008582724 7.7930117364052895
Na 7.93280214615342 11.040662501096042 5.391473617020699
Na 10.518686845137061 5.13177093197197 11.696003923973516
Na 5.252721457385988 2.786831227951133 9.8042589772681
Na 6.961019478337447 5.818151543980855 10.63563748836149
Na 9.059178937074059 15.791851119084463 4.7971520226532665
Na 4.057703822362214 6.31909041352457 8.867724515822761
Na 8.051104277615151 2.5720832394957087 12.516159924404478
Na 6.997613452164624 13.508042612145509 2.9584706163950196
Na 10.490542570227515 13.111085299595581 3.040203776510729
Na 2.583360818143033 3.275707453013652 7.510158960443731
Na 3.0566083934676156 5.909198484839185 5.190760786676839
Na 11.078960238104289 1.4847363659356403 11.040987547419851
Na 12.671756080000566 7.551838887720973 9.692690870665738
Na 6.421213114441113 5.074266032408943 6.716151676194484
Na 2.530330681830151 9.00753933576891 2.9570636060071944
Na 7.725325034680581 0.0821822159503434 9.565861112182748
Na 8.800598214345621 3.2648958547172033 9.031294983860485
Na 5.664956997959908 8.18121978221292 4.127670954465236
Na 5.355438826017913 10.766856359018137 1.3877565704146286
Na 8.86589709629241 7.55657935593581 5.130018196204209
Na 12.348797528174934 6.855566341495956 6.032314486094311
Na 8.804915008982874 10.139651536016151 1.9771656526595078
Na 4.42524872648221 0.26676375765136773 7.397991143436079
Na 11.462947399795612 9.974232822552322 4.32730885882267
Na 4.412332599465051 2.6874103783541217 4.474068669451929
Na 4.081117182329399 5.386540232933013 1.8847959660788607
Na 12.309383621554087 4.0418276831699 8.52931626306534
Na 10.695293793828418 0.8600923714096652 7.463808584708633
Na 3.9307610604725944 8.143330600268708 15.417745121740435
Na 7.3902151811573615 1.6794514473131936 6.180055812775722
Na 7.315338338063773 4.616594953006951 3.314671160229868
Na 7.143641816821007 7.2937355194291005 0.8655830486845176
Na 10.081452987529062 4.082461708444354 5.5545753234779305
Na 10.518021855153702 6.749865592397049 2.4068479816836357
