52
Energy = -55.7201005 eV
Na 13.52009103506573 10.464901957766743 6.663609088879298
Na 13.187808412007843 7.454591795721658 8.861328109044889
Na 12.35589383524762 7.364651639838377 5.189716837141684
Na 11.938491323896008 13.469075351981404 5.02740267533154
Na 11.131139785494335 10.623978170230178 9.29468342000207
Na 12.771839312163529 10.30441283924453 3.1843538922534433
Na 12.18361488187974 4.35488173366196 7.33554344704425
Na 11.13972282253801 1.4144387742498716 9.081540366810295
Na 12.439571373890344 4.288323069379549 10.995275097923917
Na 13.270570480511205 13.56486845312518 8.395293237143266
Na 10.663884540091486 7.537051065134059 11.435156041874697
Na 11.337267875240832 13.38287037935879 11.384654100463505
Na 10.071717164799677 10.565899797868173 5.621668013368917
Na 11.05433681094744 13.99108573528545 11.840453668694424
Na 8.204597879718547 2.157683361916799 7.071455161265014
Na 9.84039126672686 12.001847513850862 2.302026275984798
Na 9.939753967007 7.722714505227716 7.65559858040369
Na 9.392829567360833 8.158394542104945 2.959122343307835
Na 7.73912222186414 5.568850315711227 12.42408292987509
Na 9.39989947207778 5.173986674827969 5.367016804325699
Na 7.818359886379078 13.196441302336655 5.101170436019041
Na 9.48562851991345 2.3615529615335116 12.162021115768384
Na 9.823646318728983 13.905326956955593 7.995886540614706
Na 9.429296274793582 4.681521769320102 9.408185710821607
Na 7.5861481924890946 11.07813115504538 8.268612366359626
Na 8.108572490719347 14.432900539804214 9.989435359699499
Na 6.5662596248723615 5.37692779595391 7.615496323197834
Na 8.650034428208405 10.586545284683341 11.985833726415256
Na 7.841537811932228 13.863214211078672 10.926608301509239
Na 5.6910109812151095 13.991085735285452 8.08106523155226
Na 7.444369776679441 7.970605540562247 9.923933588503218
Na 6.3677486071928735 2.8036914435044626 10.321220286237306
Na 6.502899609203745 5.647375292004701 3.699517332123577
Na 6.994767448249218 8.497852902424349 5.746704166214078
Na 5.642878124779781 8.621555567039486 12.822687265597501
Na 4.41539734906301 5.992376974943429 10.612971542208525
Na 6.714160181739849 10.664964318788062 2.785016488972062
Na 4.89584227288267 2.880458308414954 5.300165694112189
Na 3.223322931183293 3.2926996674072564 8.491026001944839
Na 4.5499427324075805 8.878967929351 8.363672618712647
Na 4.684075217852741 11.403397657339108 5.709703769150768
Na 5.139927732509512 11.59911405074201 11.061486444865938
Na 5.192378825362054 0.34228361013426223 7.949146104312235
Na 2.6814137596913685 11.97301022728595 8.596278176317723
Na 6.279832913197315 7.65612412367694 0.9224667514877263
Na 2.3356122248257942 9.073774200723985 10.964169253026204
Na 3.9644908199594426 8.546813075158607 3.480606580894323
Na 3.257144269499599 5.048546871302173 2.646622058937766
Na 3.709135265498976 6.263602775502151 6.067157014584092
Na 1.2880792587490604 3.9721911638695175 5.600259023861159
Na 1.6750884734098785 9.150423189949823 6.42111489862416
Na 1.3501782272322411 6.318040936654263 8.693634282555376
