50
Energy = -54.2625707 eV
Na 6.951649181066697 6.487157814173567 14.333888578059797
Na 6.789304495305694 9.951134707072265 0.5530190704783308
Na 11.700892754190832 2.5973111855859514 1.5081897761251586
Na 10.476130500036616 6.223219811459895 1.375381653117894
Na 8.012657055611724 3.3219131880966883 0.9269541455536642
Na 1.4316352198940916 5.409360186690922 3.148023246871968
Na 3.7599119896788085 7.678200730937945 1.354543942576139
Na 7.753322109387686 12.043621021595376 4.0061604330008045
Na 12.078395989929243 1.4812099750687395 4.940387577668095
Na 4.8211454296959095 4.411951790662694 2.308961733837209
Na 1.489968169625839 8.722455918796381 4.452459311060586
Na 9.681262535213701 9.590756850365395 2.436101449975364
Na 7.229301416453435 6.963228156788784 2.771843543534791
Na 12.86307366007564 8.490673310428587 3.745674778779601
Na 9.251871028059785 0.3405061508953632 2.955865220553517
Na 12.920547169280058 5.01109127014778 4.125182339062348
Na 4.780316468317811 10.252304126514519 3.4108277015475035
Na 9.560820236357031 3.6958150882002245 3.903876650955324
Na 14.862190145600817 5.816098551072536 6.709829059959024
Na 3.2553176655805767 3.8027995016407288 5.758548582737403
Na 4.361430706039017 6.951950556058356 4.850758431745895
Na 6.17338893524611 1.820525693722398 4.212694172899098
Na 9.994129335646951 7.004993763877091 4.905863894284423
Na 3.890167180584239 10.588449735240427 6.861570192055561
Na 7.040502891845909 8.866531995299264 5.796331443832175
Na 7.0737875821700795 4.823206890696272 5.762593955811434
Na 8.836197260753977 1.4489464993950236 6.654198014027687
Na 7.537419741693337 11.732570457369794 7.664939464609532
Na 0.03468226085264875 9.566842217868267 7.792600019242584
Na 10.966772521859852 4.294277888638022 7.240105146631101
Na 10.44612177103436 10.496445651066393 6.124081419694302
Na 2.722207211252639 7.479935079539837 7.823037870941892
Na 5.3821585552593145 2.0952139177211517 8.096779030122068
Na 12.255715423760275 7.694833768461171 7.454327981331962
Na 8.713214820713947 6.979863471906355 8.1498329796409
Na 5.4475188207748015 5.572755720024025 8.510219361433643
Na 2.137899746698906 4.06168025349922 9.224904223935498
Na 5.947925069330882 9.03709588486062 9.310872829998178
Na 8.331012725091838 3.654465415492883 9.639071536663668
Na 0.1314447820874189 6.953144115779897 10.29407657189428
Na 2.535478852189211 10.161613956410955 10.348591401089514
Na 10.968075114961385 6.188075983806659 10.600453348714376
Na 3.68963589661612 6.846716416226196 11.141373395982804
Na 9.818429978274722 9.696303198081992 9.8514559044261
Na 4.984567409145162 3.5458507311563032 11.540853775362859
Na 7.432178238342075 6.696898163294403 11.656310338654619
Na 1.6990976116032226 4.702382942686613 12.931160454875878
Na 5.218910839268983 9.445547283649825 12.912391445385055
Na 1.8047490976513625 8.26518294440548 13.538534326548147
Na 4.705056705240589 6.121323006654891 14.333888578059799
