5
Energy = -3.4019208 eV
Na 4.904083561890945 5.632222005004035 4.682675390563277
Na 5.593771595087012 7.725372528097139 7.836746427521442
Na 8.371756667697218 5.512487789869916 6.350602650106823
Na 7.073249526626406 8.266035182664655 4.8124319095368895
Na 5.505872015663965 4.312615478392557 7.766276861591325
