50
Energy = -54.37000887 eV
Na 5.524954329991711 6.477799882476298 0.07563613686205761
Na 9.116156190245638 5.450630627709576 13.231278587349566
Na 11.389450636520094 6.887806117157698 2.248566329949794
Na 6.724792395466033 3.2155919344865587 1.310796831397151
Na 10.128199601812343 3.501848996722698 2.6462881382579857
Na 1.9460330901386689 7.730996995781226 0.5458458570385872
Na 3.0132849977843064 4.427220594424478 1.7675944476215986
Na 4.181870298861122 7.503883884719423 3.206755716808278
Na 7.6812225202713575 1.4314191046950178 4.416027735853959
Na 1.5368980943092425 10.129968091481722 3.320528304174541
Na 7.850582800740429 6.282289466586665 2.782152079776158
Na 13.367967159703237 8.646558270440616 4.912843475837275
Na 7.1006202598025725 9.834158104149507 3.701841671874313
Na 12.331572979591941 5.19738258349273 5.323109492045382
Na 4.22396069462585 1.1996326480603525 3.1351557126301817
Na 5.365512272691393 4.185058609570594 4.481559583127058
Na 0.7240904047791558 9.022426100167076 6.684498958182383
Na 1.8164977803989524 12.460746274609095 6.13793008354101
Na 0.7788892779157385 6.560190591521378 3.802047961276262
Na 8.821437619875153 4.430263219006404 5.869319047099352
Na 4.149162253638872 9.866934740021913 5.992435506305294
Na 1.920068924673591 3.317267904918996 5.107519409119896
Na 3.1259730440307862 6.316556817174727 6.562444561956981
Na 6.518474748182511 7.17236126814149 5.924354823320366
Na 9.993748632387314 7.928500761643113 5.402935077088309
Na 11.077693433259734 1.7319450025580512 5.85753300641981
Na 13.367967159703237 5.492389434827772 7.1756188785739
Na 4.857707227948853 1.3960404385824117 6.80598834779704
Na 5.3956784570301215 12.838297590818039 7.551367108334359
Na 7.732667712821764 10.144500795353153 7.397127745356653
Na 11.29006479792386 10.829555011691497 7.062110997233463
Na 5.935098114094512 4.449182151222656 8.206291067052918
Na 2.4529083271926524 3.5307690413800725 8.837531439497669
Na 8.370529522295485 1.6508416787926437 8.306715034066846
Na 12.2716511467068 7.522012132991133 8.207035376011588
Na 2.8642225073871606 10.738156518618286 9.21103190278172
Na 8.773344270341482 6.78873301194118 8.695081691407182
Na 5.265643245936061 8.040058039766661 9.081881553323692
Na 11.221349976777285 4.069332773261164 8.585929893435534
Na 1.7938318134026066 7.249758292659029 9.710196205113391
Na 8.881334908612537 13.077459745309538 8.82429987281256
Na 5.334985014056505 1.6921078745802776 10.496768596258201
Na 9.938752016478439 9.777639271956623 10.242907403462281
Na 6.489898588103681 11.03410249404519 10.609672204832675
Na 4.612999722647129 5.287615770339706 11.40350997167283
Na 8.096986059783374 4.026534205165977 11.09562740003756
Na 10.844934090232934 1.8268609375985583 11.143765536388281
Na 10.936665535853429 6.15763761082145 11.442886601390676
Na 7.476561247894037 7.679203497182433 11.868770475595216
Na 4.003366241011207 8.851814325753015 12.209148308582892
