53
Energy = -57.55766907 eV
Na 6.792620963116595 8.691119485380169 14.159743482328928
Na 3.841595359207904 6.3488392512990055 12.646948056784717
Na 10.284587626326966 7.061466300840663 13.37701540077696
Na 7.309421837466631 5.34293366917775 12.18710362149511
Na 9.917168649678336 10.748993607701479 13.53634717376083
Na 4.070424682668805 9.86728622295967 11.86173243198051
Na 10.856363119948078 3.2933574957997966 11.926523901818857
Na 6.685104635066823 12.112615940868386 12.48533906602075
Na 5.117731167663382 7.345560700461478 9.5805316511438
Na 13.470328819303848 6.147260651724317 11.530739066251243
Na 7.965413170183888 8.722988003947648 11.04196775618559
Na 9.650178273687866 14.241487858874107 12.520978121876455
Na 11.677391532939428 9.197447950396148 10.75845776826453
Na 12.546238551154204 12.484504293556958 11.26647946792666
Na 4.476315996010971 3.7328334170716206 10.257562958352104
Na 7.4350935430365 5.00851215861626 8.586173766151724
Na 4.397665283572313 10.962728666282347 5.490824970349775
Na 1.8826416160604533 6.492209614233081 9.443886685047
Na 10.383201946970678 5.89594091976161 9.978999333405769
Na 3.948645002075366 13.145614756295886 10.294242265344337
Na 9.327803964108957 11.853956905014307 9.937014492390231
Na 2.7792486137208328 10.061758927260215 8.530507554583737
Na 6.220846621605248 10.905581001884162 8.709092288256134
Na 7.6674831563643036 2.046689839586985 10.828017686716377
Na 9.933008607820637 2.2721832694941955 8.102175703475762
Na 7.179474955604946 14.766162124277976 9.909005389138711
Na 10.957765871860921 14.854701312311837 9.152148995455168
Na 2.6774915953714147 7.736584780540808 5.807550182355888
Na 8.206534614475345 10.600290155312079 5.535140697778726
Na 6.032679320868293 7.7762275367143925 6.3731460413675345
Na 5.17855859365913 13.977161325895363 7.007877089983609
Na 13.063066911911282 3.8403886414827153 8.751301941957887
Na 6.3144947999624454 1.6465420482034578 7.52616887100117
Na 12.380042217631656 2.5693568040892787 5.383287427758265
Na 9.322646124304274 8.423810171058031 7.832671672312365
Na 10.68191361603992 5.38989035947881 6.368675209954471
Na 13.065426993416953 7.530755000151462 8.022647406577708
Na 7.448900093818183 4.249097088674536 5.317972482996483
Na 6.931963079864706 12.970124417197109 3.541710275938442
Na 4.039753953177012 4.558673970367643 6.835681425834074
Na 5.874964577452772 9.265690953234017 2.8604195638514103
Na 9.052895071224102 1.4156676382143951 4.630053538914676
Na 11.754639771690009 11.346353394836768 7.56466640806413
Na 8.69181864188673 13.839762332400147 6.727796678433149
Na 4.935998811892725 5.754828241560441 3.37015803607928
Na 8.565791340352527 7.241075260830322 4.157235996507827
Na 11.552571142218369 8.789710709829142 4.779050601622803
Na 4.855318309864046 2.1538806374235655 4.271502672226261
Na 9.290628026970651 10.017878766674517 2.059243078410406
Na 10.545363023504345 4.627519460344948 2.940519642732567
Na 10.833047732766952 12.487997712970522 4.191273842652322
Na 7.33578508520652 3.3410222137590515 1.9014366984614914
Na 7.828954982907267 6.693429845999296 0.9281343289629886
