5
Energy = -3.26949404 eV
Na 6.6142815398136285 6.061847120537858 12.401976155897897
Na 8.9881787671073 9.93836035737557 4.5120731581470865
Na 6.832350776461763 9.369661963466058 7.0591342216841
Na 9.495185798433338 7.209319203173902 6.4789384433058075
Na 7.670673386643566 7.010943258477301 9.215025217158654
