54
Energy = -58.66712242 eV
Na 0.5406368601353212 5.715854116793303 4.252742465709686
Na 10.213663087603441 9.142584861209288 13.455700844909316
Na 11.869768267747492 4.126054120623792 6.328584048801334
Na 6.80767783769793 3.5373950673588817 10.00254904665861
Na 1.357352044825135 0.3693166087655937 1.1803382076765019
Na 8.923479459591384 10.130743054247672 2.8187583946773476
Na 7.255359391603171 7.372940438126513 4.347143031613566
Na 5.043480856176356 1.3344000255802357 1.0181164046845899
Na 6.28934496187245 4.921442837469674 6.826696572279744
Na 2.3472376433976914 7.186183740426273 1.3062366189495613
Na 0.36349302587303345 4.343303753165277 7.711476091484015
Na 6.920158057905238 13.831393888853206 7.422738721882138
Na 8.97257977900463 6.65381636605389 1.397402097387397
Na 1.6157947721466315 8.166400495597248 6.802872215664267
Na 8.602787138808889 6.110014001583886 12.149685129108182
Na 5.8019783821619635 3.153960188750447 3.907457963057544
Na 9.642236800920944 12.841211585132665 5.087049162273367
Na 5.641662400165721 5.269268454937679 1.2032066457872581
Na 3.4557821062673684 0.29610416181739074 4.081179297772671
Na 6.523242233075065 9.344106105792958 12.430535986055235
Na 5.634127278298798 9.008939528699486 1.7431379276134351
Na 8.947328005620784 4.466873350046542 4.4203471767264375
Na 9.454697511105854 6.384388374371421 7.649536824972953
Na 4.953900431855913 12.730963999599838 11.195533055905653
Na 5.121615412145106 8.674815808921181 6.664004734259866
Na 3.6472391353020734 9.263068952571007 10.067563877546002
Na 10.372949670573842 3.79366295882307 9.857940066273654
Na 10.881931335922799 7.471763881651961 4.535946370058288
Na 0.20582241545755345 1.9680981331500045 4.329626926147189
Na 10.590317467808045 1.3606110591976932 4.005479957557798
Na 7.2146851077804195 0.10591324986145331 3.933836103270135
Na 9.407302602236499 9.272930614917053 10.12960068157295
Na 3.960722744694205 6.373338505203097 4.270247403416799
Na 3.0110445665485623 3.4833580897323007 5.925091510507346
Na 4.8766023494691595 5.753895384937197 12.041307171252503
Na 8.77217589923585 2.227149840432729 7.063017743012842
Na 6.106539571967017 11.606076285171532 4.474092022636309
Na 3.5094170885149487 5.950532499360162 8.622594755230613
Na 10.037344671298813 12.518455678870017 8.612615912161587
Na 5.382900741711469 1.1946727483209667 7.094824208841086
Na 8.628582288601315 12.28626165687539 11.909838830989187
Na 2.5253892259228388 3.5918160797547327 2.1404539299891
Na 6.64315001504662 7.276753378408202 9.442942859878436
Na 11.914373256977985 9.494606191374606 7.734207762220343
Na 12.105556307254666 11.130411985033874 11.282555943101698
Na 8.643001661510588 9.808308000794618 6.4992424714632735
Na 6.65722503310156 10.91689704533243 9.06411466763809
Na 11.683414461352143 4.379185945179514 2.3894500782803445
Na 1.6556383224152786 0.5261101570456681 7.2937953731307585
Na 3.3078347940156485 2.7250104650494453 9.696119121422411
Na 8.462911021762977 2.6712538868691453 1.3369172197801962
Na 3.7351905139566406 11.78984369820589 7.235705763096972
Na 11.880676367868343 7.138847973968434 10.744136308982782
Na 2.9622704184352844 9.890283522733096 3.945299097381395
