52
Energy = -56.0918637 eV
Na 9.378889687550737 5.942167064360133 14.318245741577455
Na 8.05669086177337 9.274471865751172 14.80341482013043
Na 5.721920225920215 6.964137675417768 13.310717206275722
Na 6.079796348104851 10.283567237687379 11.755790356323107
Na 9.359215468213602 11.802590658085848 12.472015366009588
Na 11.516287192438401 9.009400129411738 13.66954828262715
Na 4.240497605104315 11.257805001012903 8.611876612180556
Na 7.43545130964388 12.78622245249176 9.354810890039579
Na 6.680503044253078 3.505988334850787 12.759533104759162
Na 10.626274661465372 14.095623643029127 10.007405882757825
Na 3.716533786795073 7.937252325628328 10.08757654858366
Na 3.3653457603549652 4.782864609590808 11.662479700329307
Na 8.839713535181113 7.991334277486508 11.598548798938783
Na 9.281466448063316 14.576749325405245 6.524800249021022
Na 12.81739267738551 11.551057176531257 11.324510799202109
Na 5.617465545402516 13.786347106767218 6.300271841431786
Na 2.3003279621830037 12.06181405407528 5.763492561655805
Na 10.263368914842417 10.280328446857325 9.376982822897396
Na 6.914067180525237 9.020430730236777 8.535936667498142
Na 12.370376550361751 6.825034235198464 10.958444136361006
Na 2.5214977753478625 8.527129445531799 6.6861312620261435
Na 8.28496142554795 1.3111774905227827 10.32247593276473
Na 9.668288826635692 4.413587229447424 11.204914029508116
Na 6.528780736595356 5.7119583946036405 10.004962860779159
Na 2.406605430858706 5.075756490809091 8.155884470058623
Na 12.245734343734126 12.391403953997862 7.3696285758782825
Na 11.072415950159536 12.344279174293899 4.0156105976939
Na 8.694662506306026 11.200441536867343 6.270444209922993
Na 2.7718314620148847 5.796667633660014 4.398218144726956
Na 13.569926785257731 9.27165413064385 8.541748210409352
Na 5.279962862486977 6.287541635117013 6.75061573464958
Na 10.142482591950234 6.791262638160274 8.303924830988873
Na 8.342217924589766 3.7485707262985994 7.526928478786121
Na 7.5736196681866685 13.125560086679414 3.3989732161150914
Na 5.082331432651567 2.5851680854959067 9.355715354766879
Na 2.638150517550281 9.450798327907307 3.1091013438199515
Na 5.450153119120316 10.244329032420543 5.147979825415618
Na 10.585547791570043 0.6417302065206371 7.77025381547458
Na 12.05566527219221 3.556157940610541 8.97133554036358
Na 8.817027608916655 9.682566618994608 2.9142984879051945
Na 4.414384605865528 2.8602731925623908 5.9196931300752444
Na 11.539227915524176 9.040768311647307 5.631799966407934
Na 13.48249991332921 6.08106677684674 7.050197519806578
Na 3.987539127693785 13.19839084177038 3.0035221613506313
Na 5.6434923485957675 7.400810446350246 2.9708436067130886
Na 8.177714263250385 7.58768254102518 5.516190196844558
Na 7.07599024624953 4.386050675546972 4.154064128021154
Na 6.984996323116651 0.5582344743028705 6.894133358813383
Na 5.6285559236213425 10.616673627497152 1.4256931637226584
Na 9.56211293507786 1.863127871452121 4.6652910323746015
Na 10.728739292321272 5.319248481837856 4.849585050191395
Na 12.94371892296034 2.6832814902119626 5.72607123513239
