50
Energy = -53.78148776 eV
Na 11.092167617997713 4.88035821129654 13.496227281248528
Na 11.841828141813995 2.2084055126880986 10.824833789182541
Na 7.74517035399173 4.720900876574506 15.009657410353256
Na 9.384580539284013 7.953915727096426 15.06031056770243
Na 8.45583796809159 3.0295817250016017 11.77712004072364
Na 11.445262310507507 8.524303824383185 12.181936592618442
Na 12.286867821587693 3.369570292304845 6.952183264296297
Na 6.244296591087791 2.2291265181352014 6.001114613362841
Na 8.391123064731582 6.608369038553305 12.07934815897176
Na 10.674453249255286 11.68350023471597 9.952246400547457
Na 3.974622031320553 5.778500558909265 8.947076969835944
Na 9.829727244693542 7.444228788908412 0.17927073196932455
Na 5.735030954975316 7.81298524811295 14.14823184791656
Na 11.086388830152297 5.370951796397674 9.815518234316674
Na 5.320706234724264 4.825407247337283 12.13993586126057
Na 11.384936300798062 6.6881648862291065 6.461215760510204
Na 8.103614596054022 10.385355803270448 12.175168490088302
Na 12.96805315079197 8.683666797553263 8.826172319371373
Na 12.588079546167027 9.230755539878134 1.3042609522108195
Na 13.413046245494906 9.062180127724245 4.72652442576279
Na 4.414104023501793 11.702124534978894 9.596037287259856
Na 2.5653044410479438 7.138585150993711 12.06078851010282
Na 5.504183696241737 2.5069371961029057 9.382783172258447
Na 9.170676079014843 2.258349910977592 8.332836556170408
Na 7.531723611319025 10.915402434577524 8.396531050112634
Na 7.494009384357196 13.767603706632686 10.076523924617502
Na 0.6080760293955734 5.650145567498434 9.15047510840232
Na 5.579053257121454 13.414633172662967 6.545506588515795
Na 9.408185684666817 8.319064782313612 9.282139924941257
Na 10.702075616705523 10.33372249166457 6.601834681513984
Na 2.748716807362852 3.3616835035470114 6.821032005692722
Na 7.460638953307267 5.363146810168807 8.708711398190149
Na 5.677761564622633 8.376056860040851 10.589513905227673
Na 7.748856666186483 13.821617651642557 3.2149071882387887
Na 7.4560508140227775 10.888829787817743 4.898079597863932
Na 5.081096204198371 8.773527086196163 7.228799508426774
Na 2.0428462166633903 8.966498148474004 9.049215526180546
Na 9.238505001312841 13.568476617772971 6.675526178670853
Na 11.72874025407561 5.676178637828362 3.0396767213921634
Na 10.817014429848737 11.86791919862155 3.377235482628176
Na 2.1299883639747055 7.102402694490947 5.990805879902545
Na 8.014168513924346 7.657129819269847 6.085935623505299
Na 2.9003336163884588 11.0108132576871 5.985170899704405
Na 5.364596569188569 5.471515489512245 5.50907493351976
Na 9.112699745707166 4.301785632579323 5.314718009195981
Na 4.674314039069813 12.191555779090852 3.0218000197552817
Na 4.990346255015268 8.635134328228592 3.6574659231568414
Na 10.028823802633681 8.549773259672541 3.4937963032194217
Na 7.74982950721146 10.361672023117569 1.4314851728578544
Na 7.619907237954352 6.187755548236368 2.672324373673093
