50
Energy = -52.30986419 eV
Na 14.368571021817317 7.492820637214988 9.271750065693462
Na 13.721673526506954 7.074570229554412 5.831791383490788
Na 13.723297733936294 10.649177615807737 8.172434121237156
Na 11.09195500724044 1.9212276812677944 7.2584595114719646
Na 11.838672800196818 12.55263344269291 10.330468156066551
Na 11.615119668340682 5.7035090616199255 8.256409170379847
Na 12.680053126720793 5.720223732923046 11.694039431646758
Na 11.736138851810992 4.447531265072617 4.91024671474898
Na 11.23185400456454 2.9036178141708073 10.50336301773691
Na 10.623951117819992 10.948080670813905 13.152583944359415
Na 11.430214686678335 8.984591303080833 10.366389063093777
Na 12.745185950442892 10.240292077387508 4.893944034510739
Na 10.534257195259281 7.59622218299238 13.65096411347186
Na 8.902331882617823 7.930741672849435 8.290385298617428
Na 10.275447885250355 7.718107491605262 5.215285202775762
Na 10.258873102955878 10.9432006860551 7.359392463311354
Na 9.419077145702145 1.682430591771082 4.202158267034855
Na 7.377633662083655 6.342884048355081 13.978854057880323
Na 7.3424938053983935 0.9730663019846342 6.948872687748039
Na 8.953066872320205 5.605395458270347 10.864583815108752
Na 8.315979628951965 12.402720767130209 11.099158982626763
Na 8.665497030775057 4.341097220303215 7.141968279775483
Na 7.933635730256802 2.181231094734377 10.073178271931114
Na 8.77799814941318 5.0629025869881 3.322457349267943
Na 7.903377234089054 9.024700919642735 11.632220917825629
Na 5.416512998174734 5.334107789938381 1.947428498656027
Na 6.073584536562706 3.4034454428226613 4.813825027405722
Na 9.63101564128358 14.369856638217746 8.529334621227413
Na 5.730916997771933 4.276412092601112 11.786850023679202
Na 5.359390878220171 3.773964759877664 8.216160653921895
Na 5.861099021994299 7.182743840217463 9.362136146129435
Na 7.776261678909559 8.294540141701606 2.657352095943541
Na 6.738694761490108 6.9331652196861535 5.781623517101157
Na 8.145944946656432 13.36720037314967 5.666354301443064
Na 6.8169251521743535 10.665796983288626 8.105716070590361
Na 9.75669491805897 10.9783752280295 3.718234366652639
Na 4.62508249434671 7.881160411464079 12.62961025542305
Na 5.130118711188247 11.254881137543224 11.23299238615217
Na 4.26245499537215 8.25565011343018 3.425435979317241
Na 6.191148614688082 13.997467059247162 8.842095218352414
Na 3.465642055649487 5.513062265034524 5.5963777490627304
Na 2.9764460048689667 5.443867333253344 10.226349228150008
Na 6.263036274894036 10.704824794896263 4.654635272012557
Na 4.81287967898668 13.921296650823443 5.555749893438698
Na 3.934613630741071 8.810011781666429 6.788090292105449
Na 2.6886005972752343 9.001144332074515 10.074335979105543
Na 3.418205053421501 12.036376040398105 8.263952521345653
Na 1.0720953934179336 6.845660594882954 7.727662502725781
Na 2.6512955733147203 11.343092268934296 4.7020552040201204
Na 0.6615017419524556 10.215986061095961 7.34861203181733
