52
Energy = -56.12101317 eV
Na 11.005450200282572 12.576640446205719 12.19311267055777
Na 12.887640648672118 11.573998988380254 9.277267812605217
Na 7.770552681996058 14.401796206669736 11.764859561147034
Na 8.867189801746392 13.370602168971502 14.904929164745933
Na 8.265915962048478 13.96258268873867 5.602473587137484
Na 6.765678275357395 15.413036934644321 8.497290214811889
Na 12.720990036843634 7.678083271226969 8.351787088745844
Na 14.190338950319337 10.20871915758899 6.249566403915388
Na 9.917787843339957 13.677011545076224 8.924496637100901
Na 11.61270077041413 12.593927983263708 5.888319037450504
Na 11.321825198017109 8.947646529342752 11.41840750067145
Na 11.541777469810338 8.288868589925643 5.007083689009924
Na 14.693366688620594 6.774131847787899 5.504334190314774
Na 8.117307063281675 10.74334549017788 11.088063046268285
Na 13.531743876971044 4.029812908817462 7.593520252400454
Na 10.058781856675346 10.096094512895252 7.857881445785198
Na 8.88754595419935 10.722815230518428 4.229382885322126
Na 6.266234535724511 12.767850341282251 2.869285298791075
Na 5.956617018969252 11.753641551755265 13.655889326776439
Na 9.272935506799747 9.890079442352768 14.289420420547216
Na 4.62304028423474 13.325500289826236 10.386587693722266
Na 4.673868004646183 13.826287841177397 6.0642029325978974
Na 11.76000136553178 5.182416013349932 10.743509201997403
Na 12.057001674612733 4.691847144369634 4.159554373485905
Na 6.791197745370244 11.621898049063795 7.943307259837153
Na 10.288144386253453 5.149239276774978 7.301208662558784
Na 3.0434346632899527 11.161641396166688 7.93285458844968
Na 10.108019513232653 2.6665052701197363 12.93472690525849
Na 8.47801409698419 7.434682898785578 9.719284685862732
Na 5.143123798206236 10.321784289661334 5.0135631548864685
Na 9.395230487193567 6.319722794620566 13.098789320678275
Na 11.3146636945417 1.6757958351876672 5.858378073285949
Na 9.398636119589046 6.634525953015021 2.675984442580168
Na 8.142727748608854 7.762423482383369 5.834985598232674
Na 6.314799986510508 8.005617042195674 13.410508392988323
Na 6.743659733703716 4.967678197947986 7.483628367969091
Na 4.600494845015857 9.841096560407982 10.973238836434067
Na 5.290097866229091 8.243048670125576 7.867438622995626
Na 6.576056254488029 8.670241370144078 2.285397509767217
Na 11.143173637077103 1.8568940688408555 9.470552060928842
Na 8.345521036641852 3.894444181437992 10.340154463416718
Na 2.253148647103977 8.27235647330655 5.7550457175614795
Na 8.571810942472842 3.636520334481283 4.407794925137869
Na 5.103161792871922 6.021846371071904 10.645347945647847
Na 2.1099800535044353 7.94266793112162 9.380300444899422
Na 6.557559136296899 4.13523645504655 13.2973988657527
Na 5.1235042785343925 6.343136986680919 4.591437578086059
Na 8.119513453551075 1.6531574016705017 7.431259629801782
Na 6.456475032348859 4.811198191894258 1.7938023993916132
Na 5.282365024638982 2.7213732411922114 5.298880895188487
Na 3.247247704789501 5.088103639836231 7.448023150181815
Na 5.161792061754252 2.6029617127031424 9.450816709594326
