50
Energy = -54.22358773 eV
Na 7.01286096429386 7.185415679837826 13.075903098211318
Na 11.158137233571853 3.522184624030502 2.1284308199291084
Na 4.233718543737973 5.286807293846456 1.3300251065033573
Na 4.606690394096335 9.036263967308896 2.021882127202515
Na 7.723597901734574 3.82241036616318 0.8838547709980958
Na 8.446448509568445 9.818348133544053 2.0139345592719677
Na 10.227554781478425 6.711615960302182 1.485800559145723
Na 1.7143281147292662 7.497773919527032 3.4474448076227446
Na 1.4434618957372969 3.700442061714578 3.187786565578172
Na 8.889462130044235 0.8642525457251079 2.8270782826066023
Na 4.940026417861004 2.196624540254464 3.60944576077768
Na 6.946276247845427 6.7952757686155225 3.201822627934401
Na 2.523278966213155 11.173553932457484 4.567221546967197
Na 6.088160970813833 11.740883554754337 3.8305607468512393
Na 11.465780010675047 2.838981293988458 5.508498477125235
Na 9.486278856309765 12.237155647688413 5.236753269395819
Na 13.162904015783619 6.117767786320515 4.1038489976415455
Na 11.574129302397814 9.32502381930752 3.414751700024616
Na 3.979468372647605 5.271254972881465 4.868411954998588
Na 4.524884542107535 8.802230943803668 5.669776136182888
Na 7.991669274090388 3.6565746973538293 4.425848217592233
Na 8.09123884965019 9.297324618775551 5.7732449193432975
Na 10.058571108017755 6.400888681569604 5.135605036111194
Na 1.123958917116183 8.752440058577951 6.895573667877819
Na 2.2382547148205836 2.7621243415923695 6.680403407612582
Na 11.594997624465208 9.061135154507912 6.882424947603267
Na 6.688235415724404 6.2899126420993 6.705844180121064
Na 0.09285464413932226 5.457495347153588 6.278507634483564
Na 9.006669796333926 4.0936033274520005 7.8724119302976625
Na 5.666980921930834 2.8753131307144035 7.213184102427402
Na 11.172866846405944 2.0129686017783066 9.248801363979897
Na 8.594781957906335 0.8063783097443455 6.707056753972643
Na 2.836379345004367 11.010579278296815 9.00906453284708
Na 3.2245316506365 6.112897646471475 8.245910578238881
Na 8.982630132697711 11.067266510717449 8.811773734155349
Na 9.12589937371398 7.564302145688212 9.057184795664966
Na 5.918371926386232 11.954303178163329 7.259314477832306
Na 12.149644521932336 5.490308065566077 7.95822975728166
Na 0.5235840671296921 4.767339860556175 9.814770210637187
Na 5.600887633692292 8.821369578921706 9.171628820765621
Na 6.362434284470042 5.306322066875959 9.966638652905752
Na 0.9013919303912159 8.243928136444348 10.37487663858445
Na 7.563301679119241 1.8835712135923381 10.231805581757373
Na 3.7267886703065907 3.0380601886540255 10.411384405783732
Na 3.592051308659506 9.695064432031089 12.299748477195743
Na 5.956939166773212 11.831604917319815 10.88232271338328
Na 9.653645977482094 4.748707092405737 11.305497972954266
Na 3.4349153742301657 6.213154717271524 11.949619052932682
Na 6.8065037454999615 7.853883667642949 12.388531815033895
Na 6.331632021921853 4.1469726322864116 13.075903098211318
