5
Energy = -3.2976081 eV
Na 8.126058873700423 4.215950476719496 5.862178855926971
Na 8.126058873700423 7.508407235134448 5.862178855926971
Na 4.997102649114903 8.52457844 5.862178855926971
Na 3.064571230853069 5.862178855926971 5.862178855926971
Na 4.997102649114903 3.199779271853942 5.862178855926971
