5
Energy = -3.54603123 eV
Na 10.782820454780113 9.642943276324234 8.052254735503316
Na 5.5414826758913955 6.641372636978973 8.041863880294647
Na 9.02388877630518 6.194953600316563 7.817596693839429
Na 7.102100198686505 9.577017560988875 6.917471362793074
Na 8.22402822410477 8.618033255159196 9.845133657337511
