50
Energy = -54.21173238 eV
Na 11.053531879774276 8.617442035594685 12.217664454546222
Na 7.4106538561960695 7.346265686610447 12.702129138050537
Na 3.91301489231622 5.920803685984789 12.12605520474718
Na 8.21954893379262 10.832711780893645 11.568765874903283
Na 9.918497555134001 5.14205526759401 11.328249528149364
Na 0.4365795764535982 5.585268717414561 10.296443863541224
Na 5.11826187563844 9.335624539757875 10.998697574675516
Na 13.517155066265214 6.480838826841651 10.591127773301734
Na 12.45711636161417 9.31061228048141 8.924342141543459
Na 1.3756823903731885 8.952184521058571 11.198589374726607
Na 9.812997836766217 11.455401621575074 8.309855844337985
Na 6.44809094377779 5.804536508181031 9.62910513740761
Na 6.393890450646877 12.176781952028744 8.593974610717767
Na 12.69718130914139 2.99224080730738 10.49106049454751
Na 3.413944639455897 3.562115499384404 9.35185508928241
Na 9.126169523658639 8.025148278625908 9.422331050525028
Na 6.586112917367987 2.9894157428346055 11.386724565209416
Na 9.430653599509538 2.569918765665323 8.97521788301945
Na 3.2192124917427147 7.168974488605222 8.883064116668752
Na 14.149321706461468 7.607916529739896 6.531363663186628
Na 6.292103731465996 8.859094120109166 7.541668660757639
Na 14.892588787225577 4.3729851808664115 7.833118919332178
Na 0.06388913640996359 8.376436057764916 7.794909902965466
Na 11.50522888180653 5.404712280495358 7.884772667525488
Na 2.9464569240418026 10.704531400848714 8.39361366180082
Na 8.248062333217176 5.495903937832181 6.720088930903462
Na 12.42195103344681 1.8838792070942114 7.071593996245389
Na 3.173149352306828 2.2248980642147864 5.920124913052935
Na 1.0260619991788498 5.128990053661921 6.757880229497665
Na 4.757644570850989 5.399883904753001 6.329826449078546
Na 4.707976752608221 11.464228097521442 5.277832375032665
Na 10.258410568256956 8.279791677363436 6.043490454083541
Na 0.9643228148747424 11.08561146567859 5.489701665639097
Na 12.348987151409952 10.814885604140343 5.468119537019896
Na 6.373911883865866 2.4623658060780325 7.501603335286637
Na 3.2372202936976002 8.30475560804136 5.441884524402977
Na 2.535517897262178 4.792554313288984 3.55686157091857
Na 9.50208525985405 2.66069678716964 5.214227467442854
Na 6.947288520629384 7.897517911836144 4.3422358714065155
Na 12.842289692340925 7.860163724643596 3.3027974043888126
Na 12.954841864061505 4.489673704138846 4.687190556151701
Na 0.3571085967125487 7.642592240909101 3.869652064320327
Na 2.566990842564997 10.352145890276182 2.437541660853745
Na 8.245277140782493 11.346207864862102 5.23782955373377
Na 6.455339950249709 4.3123364930045796 3.5039173504327055
Na 9.874164129081214 5.756517623987306 3.4177966415817864
Na 4.250533453199168 7.300910921564598 2.115469964059202
Na 9.779458456831994 9.51957009379799 2.615940437226487
Na 6.272671339537057 10.40859434712368 2.0606268112265544
Na 7.581368027626108 7.026851461134594 0.9499981242826586
