52
Energy = -56.34710166 eV
Na 15.782729352773076 6.71845833557488 10.528205456155819
Na 12.761588434418218 8.691812657595444 10.643357093821548
Na 12.815350873147947 5.268555017356573 12.093207307941562
Na 14.728749514974785 8.703779021713292 7.603312913948502
Na 13.255401026230244 5.561578566246313 8.473381463058313
Na 9.495785300577108 10.738906250158967 10.547511466706943
Na 9.747750413884923 4.405512779803124 13.956585385286617
Na 9.745133130799399 7.64043764568962 12.315495864420306
Na 11.817614823349162 10.76294797467331 7.7376335643549865
Na 10.17273427133142 7.656854275098821 8.535007473643585
Na 11.998060234620606 2.138473361880863 9.40523604033279
Na 6.075791180222475 11.904141348001044 9.68233985498259
Na 6.257327704624085 9.836988920268638 12.737089921099587
Na 11.995685716743875 7.762529399959328 5.341008018596784
Na 6.099267552518933 3.2875881911745 14.103147880817017
Na 7.0822788122477345 6.772715848634483 14.739473651408492
Na 9.135207746371728 13.44706354535521 7.731160482254041
Na 10.618071775933476 4.338736172579667 6.60574696927863
Na 8.602382620074497 1.8024786992356796 11.791896941069732
Na 8.131943788987533 10.279678778146941 7.1930122269171175
Na 10.031071736919083 4.665552867853189 10.17147882189316
Na 10.168588797366953 5.171907177766655 3.021081472268958
Na 10.148351859874968 11.208107139594816 4.508597559661416
Na 8.37332495708046 1.7589639814937432 8.202683061349061
Na 5.815888292258451 14.92619615356846 7.62838771231336
Na 8.606682247361004 7.147577750537687 5.438382871566003
Na 9.428379107864359 8.546034717291553 1.995056046719226
Na 5.292762057543622 2.727357374304083 10.500246196385492
Na 6.8172764027569235 9.921221391497737 3.8932574448612294
Na 7.585234312927451 3.6453008173600674 4.971071944941289
Na 4.8319495378124016 11.477112691078432 6.219928137764956
Na 7.1288062051306245 5.294771966457847 11.620144494477127
Na 7.191703031245584 13.582094206284095 4.627956753837422
Na 6.915911099793177 0.1512685280762917 5.3107173702511155
Na 2.5422707709768875 12.594162274896496 8.285253454398346
Na 7.141390443915632 5.1723076971314175 8.05546297239727
Na 5.4426108938494195 8.098675311331078 6.713378405410726
Na 6.911337933116987 8.19217618265421 9.887606607281281
Na 8.15310467612278 12.025381283168471 1.4867902196110916
Na 3.828545966138569 5.7761351248029555 8.960583357842784
Na 3.542274462686476 14.601750520004014 5.0671541269092515
Na 3.5881197948753454 9.446088097123729 10.039153608113168
Na 5.915543280273974 9.322380527954516 0.6386275398806178
Na 4.469029115555137 12.164863715239507 2.499530723206892
Na 6.387813256916208 6.236323287968588 2.7748560424292523
Na 4.852543550906058 2.5257164394989253 7.006688486740967
Na 1.6171895248963173 11.579210346844055 4.76167317867471
Na 3.47289023946515 8.711716195476725 3.455750101491834
Na 4.9655248519265225 2.617275936807814 3.215095027686554
Na 4.1784216229166224 6.741332326599864 12.439306766636177
Na 2.077604338159195 8.628564311540384 6.77945953799193
Na 3.9261979852767537 5.446949152932694 5.279151265412387
