51
Energy = -55.26297452 eV
Na 12.509657606259545 8.67300877757771 2.743937280608137
Na 13.921562649851118 7.784044731187811 6.280680515053291
Na 13.720664887683235 11.355613299556403 5.231540883426055
Na 12.655054622543958 4.273995406780678 7.747669628325664
Na 11.278779067286075 5.91165153058571 4.849282094779855
Na 10.293714850090446 2.2052795721996934 5.473208601839104
Na 10.814070284282069 11.79563224997139 2.9524185223843484
Na 12.54031451443463 10.637122399133203 8.744945899489512
Na 10.424049601262531 6.1554168355364975 1.1196466759222385
Na 10.92793938462705 9.542028170452241 5.788408106377347
Na 11.080073248173292 7.2934759433789225 8.616001575971417
Na 10.615377776287692 1.698804041636132 9.210752688705208
Na 10.048605799750723 4.726345816512213 11.065553536389764
Na 10.750284735756996 13.032323819350523 6.671182529274595
Na 8.25975519582142 4.672322601136529 3.6102919104994804
Na 7.967526344128603 11.690328697349205 5.016549076776615
Na 7.741130540725417 7.223993904919634 10.265491226634163
Na 9.044732737952716 4.480815854493278 7.551651486350648
Na 8.835356932836996 8.43294377571895 3.3519976842875066
Na 10.306751868671324 9.291574409580578 11.591510438800965
Na 9.414091708602882 9.617536285071907 0.3163235201145503
Na 7.3980638686590146 1.1519481790696786 7.949664660471203
Na 8.778282841754125 10.353141131445437 8.49900237937927
Na 6.853803306435482 6.833456725127164 0.8157700706122404
Na 7.791984675213641 1.7451902367214664 11.742167265472624
Na 7.995604067174391 7.55794110979013 6.592355477292951
Na 10.12441223901056 12.95355951111979 10.322366795835435
Na 5.532802227723279 6.973695556878674 4.1961409183625396
Na 5.7505687572715 10.05497730179022 2.487574645324065
Na 7.415849552542019 11.342249803346704 11.80225917542517
Na 6.41561185826248 3.982261863010206 9.627396549770086
Na 6.8026981903815775 5.066614358516524 13.10208843566598
Na 6.360089276905188 12.795951652998504 8.487514367076198
Na 4.8498149595823214 4.10907840925608 2.4093262026696993
Na 5.823205139047056 3.665084997125394 5.9583245230142925
Na 5.3240075524914054 10.07916694771074 6.216669805424223
Na 5.499671980893169 8.663454781961798 13.180039270469177
Na 5.251541643236888 9.438614292818253 9.654885678232528
Na 4.166255396108435 6.20775473403639 10.92705295157816
Na 3.1042559712854856 7.265449894977114 1.8558799278715956
Na 4.7840614850206915 6.67695052686896 7.566569426185395
Na 3.8969601827860165 11.915698682060372 11.492499226814461
Na 2.958866436182388 3.6393530986248956 8.58293735169216
Na 2.3428388512091862 8.735113273024044 5.11010338791322
Na 4.1042965717962545 2.80734652374631 12.136374981790073
Na 2.5007371856958764 5.176714811513591 5.14564291964873
Na 2.373132892670461 10.636956172140387 8.329755791213035
Na 3.212946659234779 5.951862135206532 14.14570373179161
Na 2.0058937627908886 8.71264875365955 11.663646890058017
Na 1.4330737432965557 7.078689919413027 8.391287358380652
Na 1.0191814551622516 5.039706163700378 11.420677073876973
