51
Energy = -55.45241135 eV
Na 4.442478936434803 5.655927909896044 0.680824351623705
Na 8.027948108579054 6.986757930067827 0.5191085049188249
Na 5.10967762273778 9.220145577625 1.0566229634775763
Na 1.620519225786479 7.768858721763148 1.377177136825116
Na 8.702913976734237 10.511435251431292 0.9583208848945577
Na 1.6383756741542803 4.532979569245884 3.0806014957095726
Na 10.40664856486965 4.56136984206551 2.2431454003276627
Na 6.955765672831721 4.806334987938809 3.2918136513196665
Na 6.189162716538114 11.919836548356688 3.2468029868758665
Na 11.03728388502772 8.109247090038291 2.4583872097074555
Na 4.0595010180833 7.11794759383715 3.815431080855841
Na 2.6874810789007015 10.59498524901677 3.464550877632067
Na 7.613405644159205 8.50940388427352 3.631210052591952
Na 0.7281586962904388 7.591242306416751 4.873069784795155
Na 4.478872761844977 2.226021670353269 2.7825683608743645
Na 12.15651222523169 8.621488776909713 5.9933793661707915
Na 13.124450458402997 5.479600775183058 4.327194228284503
Na 1.956139069392332 1.3170503421641333 5.089138233617017
Na 9.957443663367792 11.073481065705487 4.288738824516895
Na 9.86046464790909 6.002429274906229 5.364939469985727
Na 11.264830577317806 2.6084552312153626 5.710796419792496
Na 5.379247413883421 0.42885330518966347 6.225731645908367
Na 6.516436471183778 6.441500169409471 6.370001962651463
Na 5.152371527678774 9.767092997984868 5.993550096912708
Na 3.9027376303759165 13.045038537455206 5.879074062192698
Na 4.168193885532467 3.9052230397116205 5.77277691390329
Na 7.819606037964869 3.026406017884638 6.496845848219534
Na 9.063774415337965 13.045038537455204 7.056236982442572
Na 7.469807893970681 12.375082843430688 6.697748049810893
Na 8.808741902151246 9.09772850411708 7.070670640030526
Na 0.8176110258441409 4.387334634586585 6.737771923920329
Na 1.8118234239384727 10.304756262946718 7.170577775682412
Na 12.371198070884738 5.274709172909773 7.929747895206689
Na 3.143503915188255 7.011538723568574 7.478409357556635
Na 3.0020665041269834 1.819700376533321 8.577503193411893
Na 8.921238480587984 5.616941730633606 8.941898353369155
Na 10.31663563309851 2.2608208382720423 9.261324461006774
Na 5.532182168390253 4.360201912331044 9.136393169662584
Na 6.821654305031124 0.9917695371013099 9.52693487738643
Na 4.771255715491613 11.408281801610983 9.155786721801732
Na 11.135569194847838 8.225671465279378 9.646173575504918
Na 6.147304771074895 8.043219777556976 9.434187167955029
Na 8.394019107701109 10.791258350774882 10.093081108134127
Na 2.257081672175719 4.9432413493846665 10.24497347502195
Na 2.735987875844088 8.649641953874793 10.53914645554332
Na 11.358287154203545 5.0238102193554806 11.404296551847686
Na 7.948743796614347 3.6465137155169116 11.771945032667757
Na 4.416343772561372 2.455029347310889 11.867714168190727
Na 8.517386777968566 7.316807680293041 12.14324441244239
Na 5.122219796225352 6.105055796598689 12.276907956427278
Na 5.699246209147516 9.816624889482398 12.385835654010641
