50
Energy = -53.65204681 eV
Na 12.573596650816741 3.182010910502544 3.890512201566277
Na 12.523620186128342 1.8697210087268332 7.434432533886497
Na 14.30614001526475 6.325042914573136 2.539326028317933
Na 11.109446755099315 5.287345355454595 1.2036344382543807
Na 14.172113287153893 5.157049219870889 6.315510547403485
Na 8.890659100803687 3.751783374741771 3.862534539153137
Na 9.222974156595143 2.7467505076853587 9.568705393783544
Na 12.344626068214316 4.547473079672442 9.918326422379378
Na 11.456756033121225 6.547692102619081 4.362268419636255
Na 5.152453253496379 5.125426490319106 3.8082953493540255
Na 12.152248625263166 7.550938614054796 7.886361389188066
Na 6.9693054074964795 1.885412185366151 12.172406458499873
Na 11.538986659971057 8.99467070388691 2.1644749792965468
Na 10.556417114864017 4.469711851918379 6.900954008923363
Na 14.054401582443043 8.826457509850487 5.136579128566862
Na 6.157943750532717 4.702528914504358 10.3757701972163
Na 8.156488668051027 6.891471784298189 2.6191838511030645
Na 7.001171777391966 4.680308268414344 6.902145905361895
Na 4.896783237337012 4.412783380406883 13.724144723730452
Na 3.520630506260226 5.25346678004102 7.4949964793421495
Na 8.806369679256319 5.122955359397242 12.782833251826206
Na 3.6037753425082917 2.6359021469819193 10.721100968172443
Na 2.439000995205652 8.092332292426539 5.099175470107681
Na 4.859120599708091 8.475625210027971 2.1751040182121493
Na 8.97785350637375 6.56937488508084 9.681629461043883
Na 11.904132765366072 7.798326230206999 11.455027338241152
Na 2.831803228139017 6.078296942750703 11.351870809879347
Na 8.93859330230321 9.286852008316902 12.773620848450594
Na 8.876392269889019 7.666819174774185 6.316550249852747
Na 10.857324820104985 10.567701659153885 5.677069062394981
Na 1.5697996264887013 7.965079395597509 8.737493470162596
Na 5.673475666401229 7.982705003781284 5.508021401566884
Na 5.49061299141878 7.741229208702937 8.916421503113977
Na 13.273765016414172 10.737953083566268 8.40989449552045
Na 9.722431816348452 9.873991845982303 9.343911291758568
Na 6.4016010288038885 10.553247969024582 10.536224871911697
Na 5.882046904751789 7.604885309341047 12.635687465666757
Na 11.738948423609724 11.548817618320113 11.619310403238506
Na 8.015912660192381 10.194533755954456 3.5445667798154767
Na 10.25913508518879 13.095610486478543 8.495462525910927
Na 2.989562328649645 9.713938834246031 11.555115744168289
Na 7.196593949636695 10.681371066835199 7.12552787147954
Na 5.570002325298397 11.244673637605112 13.724946584194614
Na 3.7161047571674475 10.669732685147562 8.010655372868131
Na 4.652121926368908 11.27770732173492 4.533922781758725
Na 8.425059233816262 12.892403616595281 11.962555830286405
Na 4.001816673697378 13.181604010075956 10.855342208137294
Na 7.798897073503345 13.430081530649103 5.378191436024682
Na 6.866382740285769 13.83624048802402 8.983462540226325
Na 4.136969766505263 14.001791366796693 7.018099169071523
