5
Energy = -2.07689388 eV
Na 7.042798561445421 5.516735690597628 2.4119032335406247
Na 8.99446230678399 8.94220128705202 8.527655477116593
Na 7.662904450729514 6.5796756450001865 5.901302181074319
Na 6.458938251524902 7.3098092219888775 9.500915281441655
Na 7.996658512143503 9.807340237988917 11.813985909454729
