6
Energy = -4.22430752 eV
Na 9.64084881696451 7.90185291528408 11.063846767630377
Na 9.860564152264828 10.295635811710396 8.958025186483637
Na 7.044535655231197 9.383251050138252 7.592857951344894
Na 4.729364299278276 7.3923201016281475 6.3478994936163815
Na 7.458875438439836 6.108568189581238 5.267336160402108
Na 8.800395199448303 6.503778843576205 8.216767648389418
