6
Energy = -4.53897289 eV
Na 9.727093875014848 6.69836247836426 6.618561454653156
Na 9.897680531967485 9.416105499880924 9.238154186590313
Na 9.962746791144008 6.044450516195247 10.042290780114781
Na 7.004165834510088 7.313391513660104 8.801957982257319
Na 7.875805084325625 9.711672111478572 6.341459945991218
Na 4.705086145561051 9.29392360177457 7.388517421839735
