6
Energy = -4.57818733 eV
Na 4.818818453772135 7.318114867983289 8.481205068685332
Na 8.114410854797452 6.676391759032878 8.868840038554554
Na 7.598209024559693 5.26555937335345 5.8280001067507285
Na 7.154708362652881 8.582329426971896 6.391573962328178
Na 7.676656466415612 9.989128537484927 9.428807049535417
Na 10.445202526700514 7.976481724072218 6.809579463044079
