6
Energy = -4.88773886 eV
Na 5.148198800733287 7.998391504757368 4.197287332632711
Na 7.685338402499983 5.480547528635786 3.8577533929048005
Na 5.667393054233517 5.662867552865453 6.562002472612026
Na 8.803781939844498 4.60353015362184 7.16391711141515
Na 4.749941281751582 8.693239381673765 7.68246091145579
Na 6.954226347029589 6.570303704538114 9.545458605071852
