6
Energy = -4.35899219 eV
Na 10.427776910886756 7.628844126384976 10.230124402182224
Na 10.612473371828656 8.43554080787622 6.870170930805053
Na 8.012528759741203 5.9382115836741685 8.569241621847045
Na 7.5983305539829225 7.750710015085235 5.584128311815378
Na 5.499206265537535 7.7603379332374836 9.260418555932423
Na 5.171905975731331 9.836830095602735 6.645977139715501
