6
Energy = -4.85325925 eV
Na 5.488465798690777 5.07645723949754 2.983774931690466
Na 7.963172154052931 5.755592807862865 5.215452428811238
Na 4.492949985761383 6.45769515458366 5.931446221553283
Na 10.262254696965577 6.42810861909402 7.6373459243840145
Na 3.7582808429605072 7.973006655854206 8.903471408300671
Na 7.038002619915545 7.3122656214542925 8.331635183607464
