7
Energy = -5.91752757 eV
Na 5.505939940488213 8.605159357139154 4.0024427122916855
Na 4.983435454996236 5.34239565286072 5.068773851687059
Na 8.283422566806381 6.714479818001708 4.891411938394111
Na 6.00286448544394 7.874362855586095 7.411127141657098
Na 7.341860729007555 4.541275992886988 7.636619663328656
Na 9.377220888116216 7.293518674907174 8.13328221404624
Na 4.01387956100142 5.1374312744779935 8.364966104455114
