7
Energy = -5.37406402 eV
Na 7.870554349075988 5.29768814606987 6.353232307786539
Na 10.094728815558723 5.269943677851735 8.857528046867152
Na 7.492259522312866 8.540831594703402 5.980719954005946
Na 7.088455924880522 6.8892798983065955 9.107941069913435
Na 10.328132191329612 8.588961689046746 9.272457196074429
Na 7.307975566698079 10.137685704326563 9.368208548650985
Na 5.151143692887361 10.863794537764093 6.898010679063158
