7
Energy = -5.54452478 eV
Na 10.995217319829324 7.70249234161348 8.755455874492116
Na 9.898575095929761 10.684018918469686 7.996754337616888
Na 8.300036737126632 5.849824708004357 9.09072157665116
Na 8.232693020883188 8.282679394648298 6.438968380264507
Na 7.494635695419365 9.301531462551472 9.905415334938986
Na 5.661070570403497 6.586033121029306 5.2538098120685
Na 5.300311265842844 7.431247429735834 8.381400207158082
