7
Energy = -4.79667328 eV
Na 7.633429025421566 4.925045409296253 8.694501299999999
Na 5.918938948384604 7.897364710496392 8.681831931089198
Na 4.204448871347641 4.925045409296253 8.694501299999999
Na 4.204448871347641 6.912832487472954 3.143376596769207
Na 5.918938948384604 5.918938948384604 5.918938948384604
Na 7.633429025421566 6.912832487472954 3.143376596769207
Na 5.918938948384604 3.940513186272814 3.1560459656800117
