7
Energy = -5.52726343 eV
Na 5.805701400288239 5.805701400288239 5.805701400288239
Na 5.805701400288239 5.805701400288239 2.3460438005764805
Na 5.805701400288239 8.833762800308008 7.605634720071495
Na 5.805701400288239 5.805701400288239 9.265359000000002
Na 5.805701400288239 2.7776400002684714 4.005768080504984
Na 5.805701400288239 2.7776400002684714 7.605634720071495
Na 5.805701400288239 8.833762800308008 4.005768080504984
