7
Energy = -3.58367367 eV
Na 6.312919625830721 9.011624109475573 7.962937394025244
Na 6.5708568773435765 7.3049392932699595 10.897160627010104
Na 9.039560975570561 9.88120655666679 9.626130617853883
Na 7.202609726968266 9.620643390235301 4.871912521058102
Na 6.286310080346115 6.013232680357899 6.705161599450605
Na 8.986297723548873 6.602823212758518 8.625863308871635
Na 9.573666720830646 5.5377524876746 5.283055662169319
