7
Energy = -5.36602977 eV
Na 4.630478321515321 6.3887845398826295 6.766608957192318
Na 7.161180720982711 7.324369686742404 8.715765864732582
Na 9.450573262554823 6.297624268591868 6.546219688705849
Na 10.143293484762182 9.0340600192259 8.530517510503433
Na 12.120551367774329 6.263828247858661 8.528505423030195
Na 7.2482615136383135 10.669502395361702 9.086284576766706
Na 4.689488084261532 9.675593217318585 7.339841320710106
