7
Energy = -5.65655076 eV
Na 8.913659722915174 9.397356514664683 4.8605559667060145
Na 8.57140477346604 10.490068562233242 8.213786081895439
Na 5.722509137909671 8.516297056738587 6.108189353243537
Na 8.69681709833637 7.078555998190108 7.3151357934139165
Na 8.332660958523713 8.235788897600667 10.626469704169477
Na 5.492804723614918 6.212347175161074 8.482790415609932
Na 8.45592363659145 4.800621318873157 9.803540224910105
