7
Energy = -4.61639364 eV
Na 11.263153870401839 8.24770025191038 7.844568064134413
Na 9.398482451738088 10.017730407527495 9.858029133819118
Na 7.830561614317223 8.734405263157043 7.034539987403959
Na 6.2667056505888405 6.046069189581794 5.439083629637426
Na 9.248472220826631 5.632399778329623 7.062490868355671
Na 4.428952537983343 7.808011528193327 7.492102995116235
Na 6.480525214535868 8.265372959729783 10.144981712288928
