8
Energy = -6.58637211 eV
Na 8.638194984673953 5.661093325276287 7.926473191339255
Na 4.869362077607005 5.34038460140208 7.91154990069256
Na 9.47951052306531 8.155491812511718 5.821697331335784
Na 6.286639823853965 7.437305040950449 5.809823578518847
Na 7.049058151042524 10.020908618435566 7.814051738623987
Na 6.237590734220402 7.536638462784431 9.928869962171651
Na 10.911398216576146 10.328407915428508 7.820676247961709
Na 9.444470216749421 8.245687371685513 9.899431676840598
