8
Energy = -6.72199171 eV
Na 7.7747530249336 4.157871867833426 8.439168552911235
Na 9.695038558066251 6.762946947853164 9.989982553417633
Na 9.247571491195796 6.579043055692203 6.514822917973905
Na 5.847420646639498 5.927074588446554 6.012584488016932
Na 9.455672608889165 9.763443479294994 8.186417284151176
Na 6.567433340187165 7.882490785410289 8.852570969920414
Na 6.92155459240168 9.257398262090886 5.688527442972218
Na 6.779986858959585 11.944806583957432 7.916684963332597
