8
Energy = -3.22210363 eV
Na 6.56416578531007 11.111874222544179 6.566639355708827
Na 9.550806775704867 8.8277048135655 5.7848034942760505
Na 9.07149226876638 5.897372877903907 7.826532431962833
Na 6.400772166603047 7.340777244180084 5.837111644523163
Na 7.659872206224452 8.78471316121213 8.583686596608269
Na 5.647660880317579 6.211977435325253 9.184298493706175
Na 10.94501095538233 8.842207479276219 9.116996490467526
Na 8.457277304512267 7.280431108813476 11.396989835568029
