8
Energy = -7.15451837 eV
Na 6.253820408515705 5.8211206385151675 3.149860372670497
Na 8.462809763306694 5.572793696490352 5.800127429546641
Na 4.378243862216339 5.7219949340638 6.103819063927464
Na 6.496626384797653 8.454182486948236 5.349446867775992
Na 4.216392490105034 8.577196731161704 7.999824731804801
Na 9.11723175349619 8.41220153056118 7.566234595080323
Na 6.388709207214682 3.160796724286753 7.260582768021673
Na 6.662235253975594 6.255782381600295 8.746173294800107
