8
Energy = -6.57196479 eV
Na 9.084174385077644 5.181087801465904 8.689612597797584
Na 5.980439117926603 6.269745474231343 7.935169288578731
Na 10.553072163118948 6.713440872565131 11.234199975616843
Na 8.907027320656521 7.058728448409031 5.885792515201209
Na 8.529313100359325 8.778802659278519 9.27752170120921
Na 5.769156684992052 8.07133789612466 5.077778554431533
Na 8.186469127856695 10.289656322279882 6.336820903419185
Na 5.450621331631954 9.568901869850981 8.238302001322651
