8
Energy = -7.1695646 eV
Na 8.20867223 6.9153835146922935 4.476309634755307
Na 3.792675176757286 5.085963892064995 4.476309634755307
Na 6.9153835146922935 3.792675176757286 4.476309634755307
Na 5.085963892064995 8.20867223 4.476309634755307
Na 8.20867223 5.085963892064995 7.525037772001982
Na 3.792675176757286 6.9153835146922935 7.525037772001982
Na 5.085963892064995 3.792675176757286 7.525037772001982
Na 6.9153835146922935 8.20867223 7.525037772001982
