8
Energy = -6.4799982 eV
Na 10.028407873944843 5.254560489328214 7.478928249032687
Na 11.010559910699847 8.074465680395345 8.80691639287805
Na 7.49750806699442 6.194741703720563 5.462432753367468
Na 7.22390530185625 6.729850828537459 8.946327036356907
Na 8.435568643005505 9.28607542879396 6.82366548950766
Na 5.021432543838431 8.208457895133348 6.329469359625503
Na 8.525916511365518 9.62295022425651 10.383364385485411
Na 5.468688072149256 9.919367020718376 9.04500360949458
