9
Energy = -7.6404976 eV
Na 10.373196034022383 7.806803677891484 5.1390018517081595
Na 8.229972995662505 5.327909505101414 5.879462446141738
Na 10.343348469090863 10.590279955735815 7.09759337027208
Na 9.44859256878393 7.215537566024827 8.6355237148317
Na 7.0894332591926945 8.621992181037342 6.534760335700212
Na 8.026917197964465 10.328896262678857 9.499810461316574
Na 6.028522416886421 5.434919997080254 8.343900026363135
Na 7.2154609247199195 7.276915628853495 11.021604772596996
Na 5.0096288947044245 8.684848394727721 9.054809092471254
