9
Energy = -5.88936508 eV
Na 7.465604931175887 7.447638036504964 7.4181012547332665
Na 4.42260743299921 7.530425155628697 8.829007392385288
Na 7.8601113616551475 6.339679399653569 10.201330584296574
Na 5.188082021623484 8.269437791556658 5.417427915160228
Na 9.050226501645914 8.629942181682306 5.044737460445823
Na 7.085206521054588 10.308838088592115 8.287661153875948
Na 5.885696194994453 4.842229371949035 6.855464849686669
Na 9.753095725153472 5.370037118494494 6.803330584777862
Na 10.514764617775205 8.487168164015397 8.368334112715447
