9
Energy = -7.68594373 eV
Na 9.340332886101264 10.688706931953538 6.444211314549109
Na 7.209483794151116 11.178732166372257 9.067349292866863
Na 10.482778914155533 8.78709187879831 8.96459173963729
Na 8.982761154192596 10.112071796386841 11.687953900620553
Na 6.137538814020742 9.197840961136786 6.636900397036568
Na 7.354291661122768 7.645559319753597 9.388666793125607
Na 9.214815467335654 7.1847989762906765 6.361933246197803
Na 5.9776383280372505 5.855970217825309 6.452777912255809
Na 8.555315297608812 3.7774761452858394 6.322904438928601
