9
Energy = -7.59242887 eV
Na 8.425786343153334 8.914443862254611 9.449564014442515
Na 7.640727855080141 8.832699439447628 6.0717360469659925
Na 8.463353383549597 7.177575989409668 3.129482617595154
Na 10.241020837751806 6.776604338806988 6.682608368633338
Na 7.854396279275583 5.6815230637688785 9.51941290732706
Na 7.0841109470352155 5.621983989417556 6.107320260162408
Na 6.389226154997713 7.856240458076125 12.201778476490222
Na 5.28710790631122 7.683741179552163 8.476524064903364
Na 4.843183859735089 7.684101246156512 4.590486810369643
