9
Energy = -7.36248971 eV
Na 9.727086794775104 10.640185611938474 10.584075889866758
Na 8.782595248815683 9.439037712598967 7.475833261986285
Na 8.784783429963802 10.011260930791751 4.187207368945781
Na 9.640120606982835 7.154590861247137 10.08514407623603
Na 6.704537128083636 8.790283481538852 10.267166969203355
Na 7.227373838022345 7.069133159296877 4.387892096936664
Na 8.740805189786197 5.804691315274457 7.166226184449685
Na 5.688611021118891 7.455366713812215 7.381258373900773
Na 6.701468518369709 5.325517886058582 9.90908688286546
