9
Energy = -7.46171754 eV
Na 9.539026933525724 9.095359451870857 6.609968548114926
Na 6.992431387927838 10.814628918319393 7.867032046043626
Na 7.421171978312906 4.137219175049457 8.37022421109861
Na 9.580719000307903 12.690564655499253 6.431859679833502
Na 5.663095841133653 7.646980873981106 7.425310670748958
Na 7.980590018180134 6.223937844924485 5.600474309283721
Na 7.993333162520367 8.108356981936979 9.90839452474325
Na 10.125922633922148 6.190723527227239 8.295562932418822
Na 5.423878263062778 5.788188416789532 10.356846282939877
