9
Energy = -7.92610478 eV
Na 8.331991270439483 4.841506622184426 6.098297929158448
Na 11.489244666392494 6.597714444270312 6.371197040838759
Na 10.439214266800278 9.630869666641704 8.029808395541227
Na 8.102175608572043 8.317450677706328 5.762250625308572
Na 8.856780766509836 6.689047886432951 9.020437361439845
Na 6.9985441098325385 9.684996360031773 8.798040583572709
Na 5.634724716606971 6.579626994910945 7.565262950402276
Na 4.811155550279815 9.629655536538497 6.077345795658818
Na 5.988622421575041 7.149041267730357 10.994656814637032
