9
Energy = -7.91651244 eV
Na 9.196222643066177 7.699018642968213 6.071138747917988
Na 9.319216539487805 5.233230765688862 8.44082858870344
Na 8.306239625380222 10.798550380546272 4.786143081049841
Na 9.872154088037657 8.470607788790888 9.476748144749244
Na 7.473530114709462 10.645813054355504 8.270381096313699
Na 6.407784759909043 7.582037975901033 9.32357848377941
Na 5.693326944164353 8.717355894637132 6.021203326203807
Na 6.507138141063155 5.41517562138595 6.38673108232193
Na 6.131760301199 4.112244417117846 9.683347381689854
