9
Energy = -7.95907845 eV
Na 9.012445799785384 5.471205382542103 4.210227074187505
Na 5.376280991320797 6.115302132327097 4.200566676657839
Na 7.602702175835771 9.022224552154212 4.220239964084447
Na 4.70262962839808 8.845556245458887 6.243731890913115
Na 4.242834247351109 5.601937297718332 7.44764710978984
Na 7.853404560847922 7.045777335708681 7.0436323327348305
Na 6.734588421692919 3.563240469018091 6.137500178636658
Na 5.794166369190127 8.1858631324172 9.544371617106398
Na 7.189729221549951 4.657674868627185 9.46086457186142
