9
Energy = -7.93678639 eV
Na 3.2099089752839283 5.316948136534747 4.985321375526794
Na 7.400860590956153 7.055075269189905 8.304213261967474
Na 4.646886202582448 4.965995504311025 7.98349294299789
Na 4.872923069325197 7.72623288482975 3.1093777402963765
Na 6.223783337993352 4.49482119353125 3.4075172365850577
Na 7.77461341068755 7.416359261174682 4.889366922725936
Na 7.7063088583256345 4.114532895253894 6.420524744735918
Na 4.7128514813129145 8.334813391037402 6.483486183946825
Na 4.821968970555279 1.9453253331884173 5.786805173554193
