9
Energy = -7.99164758 eV
Na 6.523900775211666 8.507158325437853 4.865110581616187
Na 9.35053442378187 6.618153460614775 5.839859195627392
Na 6.008712299934296 5.442276766662153 6.214492937487284
Na 8.721670083214653 3.812236979481238 7.869679018131973
Na 5.883339814244917 11.554310679706207 6.6574547913371305
Na 6.023457418067836 5.27620298562464 9.737063456135553
Na 5.83513143841604 8.361712549270433 8.335106988527112
Na 8.92616866136432 9.781546610540333 7.358822579625228
Na 9.044723509676237 7.052333629057426 9.354257400073784
