9
Energy = -7.37610561 eV
Na 11.636150443226589 9.16007405705307 8.489903988948132
Na 10.217392865249128 6.207717731114651 7.465652577175147
Na 8.556933615606939 8.161379883510977 9.991992499748745
Na 8.966544422278789 10.046076047838321 6.805313586231207
Na 8.009209319022265 4.781674526411838 9.49022475660678
Na 6.031254420056579 11.53369498007981 6.384908251595697
Na 5.7018764923664405 8.804840742743808 8.415295084449058
Na 7.419028653535574 7.077616815878584 5.935588248299015
Na 5.10488445364087 5.519607500375079 8.252794533735797
