9
Energy = -7.88937064 eV
Na 5.855232487736408 8.215162705065433 5.952601715947289
Na 3.538140092711101 5.855232487736408 4.531517109598918
Na 8.172324882761716 5.855232487736408 4.531517109598918
Na 5.855232487736408 7.69357176265523 2.6000942744487348
Na 5.855232487736408 5.855232487736408 10.798411298975918
Na 7.736560712066318 5.855232487736408 7.865127319869422
Na 5.855232487736408 3.495302270407383 5.952601715947289
Na 3.9739042634065016 5.855232487736408 7.865127319869422
Na 5.855232487736408 4.016893212817586 2.6000942744487348
