14
Energy = -112.12489726 eV
Nb 7.606654432978586 5.629589186368398 3.8759428286484825
Nb 5.440665750114727 7.1971406970039045 4.165675361241487
Nb 2.9744698675777874 6.285654964902796 3.4771198656418663
Nb 5.059792242725639 4.509061186896812 4.0862334258102555
Nb 7.257487081348536 3.435002760330551 5.2303510060644784
Nb 2.988315467449375 8.074277800556406 5.007286575843895
Nb 7.654717330405571 7.702705143457969 5.601940936201138
Nb 3.6377811356476113 5.639513510285058 6.066769158377252
Nb 5.063386159280899 3.404149430411236 6.647126919016915
Nb 8.831214780589063 5.422270271010603 6.208750139623215
Nb 7.3162446143836 4.078543812081697 7.862879182116773
Nb 5.127846172203051 7.767216214578478 6.7926246795640886
Nb 7.324169480091052 6.784302899863143 8.014980567822946
Nb 5.0998665419157065 5.45318317896473 8.344930410738556
