10
Energy = -76.77426491 eV
Nb 7.210474547261296 12.25320687768919 9.036136678231534
Nb 10.929870417435389 11.331264296208317 10.453721738843305
Nb 9.470355097672261 12.125285174426075 8.503402046205705
Nb 10.634556391940597 9.518474280838173 8.369733459234444
Nb 11.48649006697657 7.403521348546237 9.145062519869953
Nb 9.195906898300864 7.699457876984648 10.106079695299101
Nb 8.098682629208133 9.816904610430973 9.466004945131045
Nb 11.534992823750796 8.898631713449277 11.165281183959717
Nb 8.480690266304357 11.812148207571177 11.281360327882494
Nb 9.32811172668738 9.552331203846835 12.076852332096804
