11
Energy = -85.95145383 eV
Nb 7.866752652574889 8.268851613700123 7.438944924739584
Nb 8.059578595702268 5.606649776740468 7.757983952752695
Nb 4.119481936992808 4.451319737204835 6.694242176294166
Nb 4.69183994148168 6.673650646377059 5.409747160953095
Nb 6.71103789760296 4.736620252949405 5.7407327848769
Nb 6.6853208084537 8.707267787019568 4.93229472085195
Nb 8.77220951652185 6.931521688397861 5.529986663436405
Nb 5.74822626807892 3.593861197194364 8.070450418681883
Nb 5.366145281839364 8.716333290833857 7.044573031376511
Nb 5.612373026327736 6.357270171678994 8.053240189040691
Nb 6.884821682764695 6.474441446244586 3.845591708695316
