15
Energy = -119.75168857 eV
Nb 8.184030365516309 6.336082012631736 4.062174164141653
Nb 5.87134125658543 5.732568032522583 2.468864973834712
Nb 8.159774403374017 4.294308245143708 2.6854715618151035
Nb 5.691040648007767 7.089020806412085 4.714563510258805
Nb 5.88096945076301 3.397078574778257 3.4592931010142074
Nb 8.228255116926485 3.794587758373825 5.188921882676433
Nb 3.7567145997174967 5.311843152717114 4.575608591138171
Nb 3.250359065782847 7.5159700580967055 6.087686094079181
Nb 3.2054045754822273 4.921345633522324 7.183421552517571
Nb 5.686176151235882 4.182929171204803 5.997313776731372
Nb 7.37736494259173 6.089206872154771 6.669354751253373
Nb 5.550695129856644 8.374135008380819 6.9376746549609
Nb 5.458791957507297 4.840805500563877 8.469621007178391
Nb 3.621958165270723 7.022042583360948 8.538921753022302
Nb 6.156554817760257 7.177507236514835 9.040539271755632
