14
Energy = -111.72672362 eV
Nb 4.0556365715624905 9.159928525119433 7.380487413253508
Nb 6.183589561278826 6.334428399511863 4.531159501677355
Nb 4.759428415269552 7.1339337902617475 8.716361722717641
Nb 8.01426767151367 4.724234209129629 5.270498924943311
Nb 6.259290285040188 8.572037119712702 6.382810496540149
Nb 4.178748980700903 6.77591979238317 6.04286322173029
Nb 8.511992816186892 7.362685554510094 5.937710266642125
Nb 8.807026711174078 4.955431908622451 7.902541199670917
Nb 10.030218280712162 7.41033995700202 8.261302301720452
Nb 10.4022662096912 5.7530903803731155 6.116037025537842
Nb 6.225169995234352 5.435962514180733 7.14630323569496
Nb 8.5394258212842 9.455115366483906 7.933606369925263
Nb 6.230347134191122 9.458178382397657 9.014175995703177
Nb 7.485623481715329 7.104632257464801 8.987591960549379
