15
Energy = -119.93404275 eV
Nb 4.456425086794641 4.790655299832774 2.4663264574487203
Nb 5.5147862956863225 7.078735709999599 2.9844677572278084
Nb 3.262058624255628 6.781257655110585 4.17951879011453
Nb 6.907790590347837 5.096179045155706 3.799209205849516
Nb 5.473580212397597 3.0676833145718567 4.188574428776778
Nb 2.812016291865184 4.18064783850212 4.244480490708944
Nb 5.70538266603317 7.155743590439001 5.606034787703473
Nb 8.432519499845016 6.26775622549281 6.525585257157641
Nb 4.0411770762142725 3.2602313503418694 6.31046148657105
Nb 6.277665093241797 4.63808053650758 6.4337889786564695
Nb 3.5024472228682884 5.754483101455454 6.462814909045155
Nb 7.686010158631918 8.653572501148053 7.027332425724722
Nb 7.688006295764825 5.180305802267768 8.862403684636824
Nb 8.620845641157562 7.473256854358515 8.997133444698807
Nb 5.99664542178121 6.998767351701864 8.289224072564261
