14
Energy = -114.23931995 eV
Nb 9.019659996886471 5.110416926749658 7.414061829565548
Nb 6.766302962361833 6.720484047207033 7.027520644749443
Nb 6.934082377817174 3.766863689884575 6.18448419493542
Nb 5.118809689891453 8.836741064867589 7.819102570715408
Nb 5.160405291103862 8.473713095713077 5.075055659187864
Nb 7.570180360447316 7.649978173891979 4.218793367560112
Nb 5.534812611442095 5.691925394360586 4.632145338341425
Nb 4.544910586179037 4.60747529890144 7.079921885346289
Nb 3.7167195587054787 6.860852692092348 6.356132003297023
Nb 8.269042497914304 5.288487196226268 4.69123245651288
Nb 4.763610482321812 6.724214549354508 8.932082784702052
Nb 9.391066765537772 7.2367438704228455 6.334027619933637
Nb 6.650729931953502 4.700240026053659 8.701939264340586
Nb 7.411678439611848 9.183875526448112 6.385511932986538
