12
Energy = -95.35998016 eV
Nb 9.685944473648226 8.458146979220714 7.581282889195774
Nb 8.455950722452563 8.332560649190288 9.614306569498101
Nb 9.516767441893203 6.561184196248253 6.007463438334713
Nb 6.101209511310071 7.492589366371164 9.471829478915899
Nb 7.099104404400285 8.006305520508409 7.002467256262935
Nb 8.486927114478148 5.930263050126112 8.463123729641786
Nb 7.498857591781355 5.090860584956096 5.947714725386075
Nb 7.200658510484939 7.264571094396908 4.35228276464067
Nb 5.916939777813023 5.3402620280362685 8.122162692236067
Nb 5.257351629072962 8.597791102135186 5.113103889168843
Nb 4.328667576902239 7.516660870429509 7.388227922641131
Nb 5.033561881143857 5.991124466026698 5.547063600380337
