13
Energy = -102.46163671 eV
Nb 9.49580319132559 11.62058932187376 5.617038487959922
Nb 11.294359410398695 10.402345694483198 6.44807818456126
Nb 8.516405772139901 9.823324738476552 7.137633683850439
Nb 10.138300321951714 12.020054837370818 10.658356171852246
Nb 11.050191172982963 9.886862628841085 9.003246728245468
Nb 8.24518471011326 8.352875185507218 11.41611472689671
Nb 9.760606842071935 12.144516916157698 8.188132863257147
Nb 7.963209497821097 7.965141023178051 8.98949197702383
Nb 10.233236430294925 7.7674194251501305 7.716325668391453
Nb 10.794427763412013 9.618377267850578 11.654995645915216
Nb 7.833996666635496 10.650716852102905 9.65586604639663
Nb 10.415933904616532 7.448946941100941 10.289596714124617
Nb 8.448037873842575 10.787142517454944 12.110747093861693
