12
Energy = -94.07370055 eV
Nb 6.905749462296423 7.489336096708149 5.879801105709679
Nb 9.727300015480472 11.011690919927908 12.630532995116987
Nb 10.445276804099223 9.956718274809417 8.625855732052585
Nb 11.513168137259688 11.793843220473917 10.937333977494239
Nb 9.239791546329808 8.30021712193856 6.405399980996855
Nb 7.23025116563238 7.072262647989396 8.391190440290012
Nb 9.697589233332952 7.420896127479672 9.014900868214154
Nb 8.730500393181647 5.825892515690488 6.659675204868803
Nb 10.938793102081577 9.312714735559661 11.144763543433731
Nb 7.80747876207742 9.638452165123677 8.122160022722152
Nb 8.369252240697358 9.013177322441136 10.656196587542594
Nb 9.078046133963365 11.55610738247894 10.20621137660807
