10
Energy = -79.74123599
Nb 6.474854394636437 6.80870993233721 6.738530844237199
Nb 8.386478786633251 5.918359358430974 8.122782150355482
Nb 6.282401817822559 7.456194991385748 9.160626823830151
Nb 8.668794251862103 7.800349789896944 5.999668445038994
Nb 10.279855912311298 7.46394113358151 8.122782150355484
Nb 8.415197082604458 7.521116933336475 10.278504847866225
Nb 6.564429793357525 9.297628681522257 7.078018121919947
Nb 7.359305504729016 9.91015460572678 9.267046431346444
Nb 9.183828760198736 9.853528971413189 7.151552751384355
Nb 9.820490918215818 9.486532379997662 9.556568433665996
