11
Energy = -85.96118303 eV
Nb 6.402995974434671 7.159923141360734 4.435058664585889
Nb 4.055818615231134 6.10235390298462 5.2340960085361194
Nb 6.034002092268483 4.536625900788827 5.1034351074497435
Nb 8.383072171261114 5.667661366724102 5.932141707228133
Nb 8.77530085703011 7.827685592995637 4.762869178911403
Nb 7.524497091690026 8.272064897301536 6.862912681675566
Nb 4.825309717861364 8.200366952453491 6.410758169637908
Nb 6.904753573455111 3.9488120169309555 7.399353814099812
Nb 4.851773580467518 5.51087710004866 7.630253616736857
Nb 7.604470496105213 6.097934020958321 8.522550216060582
Nb 5.668493279194904 7.706182556452621 8.73705828407737
