14
Energy = -111.50682014 eV
Nb 3.8542656960441866 3.780817062207417 8.312352789022352
Nb 5.034015785531814 5.985034396389808 7.594448314419037
Nb 8.200049207027762 7.541827122497682 5.21128327585334
Nb 5.618364134116134 5.954010425791522 4.590977756225397
Nb 6.143420983890819 3.2494435101167207 7.390135596896614
Nb 6.541199042846151 3.2210702044064634 4.979393927173879
Nb 5.77206829754185 8.55981756020599 4.037840867343104
Nb 2.3113615063689825 5.087964765482964 6.9291732060612405
Nb 3.446513363978722 6.910811952293043 5.677578846295065
Nb 6.0335702260527375 8.156113163930824 6.495017789069332
Nb 7.552988918781856 5.42554025440885 6.6405901036109505
Nb 4.035564215887526 3.856594097782848 5.5000189411283875
Nb 8.095274253127158 5.0648939813669305 3.9901260034683412
Nb 7.479196364992673 7.32391349930747 2.7689145796216397
