14
Energy = -111.96079183 eV
Nb 8.975913678756564 7.112116544415448 10.220792163151565
Nb 9.449606567519854 5.7445247055454525 7.59003029229289
Nb 6.369650718201654 8.337601532361704 9.954591875852826
Nb 7.070562212976182 6.323464056178923 6.015917736296483
Nb 5.2539619633674075 7.836921606242097 7.4728644290579265
Nb 10.42252625501457 8.45758193889434 8.039454712023609
Nb 9.271048136915503 7.929670825303577 5.594439059224474
Nb 8.574608025190297 9.951102279670732 9.474131749101668
Nb 6.747906834648303 9.198637240267805 5.494093366325045
Nb 6.325568202519844 10.406934473034458 7.854784582220566
Nb 8.763799068101562 10.47264348327441 6.703507732864272
Nb 6.72392258637338 5.684227551929295 8.856940598486789
Nb 7.854940911340261 8.042349277033864 7.816936301430372
Nb 8.80309705191479 4.719779222510348 9.72065319648089
