13
Energy = -101.66983 eV
Nb 10.42661303070209 6.186462261708203 10.234977700016993
Nb 10.80696501644123 8.471212996010182 9.83987870801454
Nb 8.503468857361192 7.619275791840168 11.237506733804203
Nb 8.769718838383875 9.984514707117823 9.710891682716978
Nb 8.682950377898042 7.0674293038052 8.374436121505472
Nb 9.953630128981477 9.025195065201798 7.10160580505978
Nb 6.965718436205019 9.572174028531782 11.699583265034267
Nb 9.822594754972311 6.966276066650439 5.50828148306194
Nb 6.412645434650572 8.01580467634748 9.376322599256321
Nb 7.388723135288212 7.579614036441402 6.098563128232976
Nb 8.810046684974061 9.160780642413403 4.72334944426522
Nb 7.381683901885674 9.781700300992823 7.466189973514662
Nb 5.83701763752551 10.41160876760807 9.803099257295303
