13
Energy = -102.7506746 eV
Nb 5.145831541531011 9.003679767939404 7.038655547170029
Nb 5.73129688885308 6.244505252291665 6.77972749894851
Nb 8.259686183020339 5.04322133628096 5.914305497427141
Nb 4.05113076914961 4.874248927974513 5.250322093264535
Nb 7.2361985656398575 4.758572195900771 8.72056714301253
Nb 6.64502320441509 7.890059438880033 8.651142898670436
Nb 6.520516792879074 6.289347266608059 4.0328348297624625
Nb 5.692418048353355 8.705880329349645 4.64005170631079
Nb 6.0821802706200945 3.4165712917796833 7.2024418231522604
Nb 7.883563770287659 7.871984953407185 5.826353390942288
Nb 3.7000485170389044 7.326715609475965 5.1471644790505735
Nb 6.254108722255515 3.8229370992410527 4.741497123716819
Nb 8.687756130918075 6.642035935832645 7.944695493449248
