10
Energy = -78.04144266 eV
Nb 8.931771926034358 6.305245923780147 7.498725707036271
Nb 8.536424589528798 8.004473495883847 5.692926905159665
Nb 8.071919025309466 5.441190977850679 5.127718531490377
Nb 6.96621517019727 8.07249311055885 7.845895631855214
Nb 6.654215337720725 5.228929061887238 7.61393780073789
Nb 4.698496299206359 7.329231007148511 7.642555709281702
Nb 6.116276815759179 7.541520024747402 5.156420881461864
Nb 5.804207354257709 4.697877359975283 4.924585505898937
Nb 3.838531370304798 6.465071542032945 5.271443739734234
Nb 4.233844333033398 4.765869717487276 7.077691808696162
