10
Energy = -77.54670038 eV
Nb 11.167986165855519 7.744346805798946 10.698686123331983
Nb 8.920573291565562 9.179641180744746 7.722828282335922
Nb 10.203662582462897 12.230969882013964 9.246872263452941
Nb 8.23134881869622 10.626844399542511 9.830225369843545
Nb 9.606853071552953 12.736613097230176 11.625098104476049
Nb 11.100406378521134 9.717942619609943 9.14217987823957
Nb 8.56857125203585 8.12562460177324 10.274209719871346
Nb 10.165313107121026 10.194024840361227 11.652838269385512
Nb 11.979892879070412 11.94337754441221 11.095401383815807
Nb 9.993549812745028 7.083781009772701 8.464100596581357
