13
Energy = -103.3699475 eV
Nb 8.53586731135134 8.407326038406069 6.961887796970884
Nb 7.891713458807181 7.574680074494981 9.548040770546462
Nb 9.322633886616623 8.302695678824055 11.573076444305979
Nb 9.626346325482471 10.824401327114167 6.999455770737586
Nb 6.763467262940936 8.288991496343804 12.158793392956602
Nb 10.691903381056939 9.21307626694161 5.22443455756395
Nb 10.34483549548425 7.0080743127130605 8.66304724071197
Nb 9.76512757832775 9.787368682622358 9.372117699276567
Nb 7.615945513344408 10.373558235807826 11.013027130329395
Nb 10.386858114184397 6.910060812671506 6.058717145533678
Nb 5.602404840101936 8.647328538807429 10.015241455412571
Nb 7.0790492373867115 10.127103015054685 8.492656193213792
Nb 11.610321214914633 8.954843028522555 7.577827084804141
