14
Energy = -111.10940737 eV
Nb 8.097481203055501 9.684754044119927 5.963780435102603
Nb 9.837204364423846 8.007806180291254 6.965334144421832
Nb 6.864850858483356 7.974802140451617 7.51965258176015
Nb 10.425434065145323 10.509815141045651 7.409862019076828
Nb 8.337104795733845 11.957737282010482 7.0989456014309065
Nb 6.47039537752452 10.491640102914857 8.13682052786716
Nb 8.444701837374375 5.887390265129848 7.640177801762584
Nb 10.729180171111459 6.707746393082876 9.074722239296902
Nb 6.793177238939787 6.685466908236886 9.799406381035167
Nb 8.88101349301084 5.254474558752029 10.118112730640792
Nb 10.345128982569122 9.232467970312781 9.68862631013061
Nb 8.76188747411341 11.32451191320539 9.556687512115905
Nb 7.365480427403672 9.199296306609247 10.238779183412754
Nb 9.106750635970474 7.541881718696319 11.248883456805466
