11
Energy = -87.45635018 eV
Nb 9.634776941695922 7.059658860038695 7.354814406677256
Nb 7.836900918858463 8.152057980072597 5.429952220425479
Nb 8.902168210293512 9.408240093013303 7.495615358738789
Nb 8.33397063910778 5.407499970278118 6.023544206533583
Nb 7.8700295100232545 5.489532509678219 8.733253380032448
Nb 7.92343373772653 7.905073459506047 9.495014151065776
Nb 5.585655933918919 7.153419549020091 8.880081894476898
Nb 6.294504394779422 6.093925578565489 4.8266070389225995
Nb 5.795624465542754 5.1734537134804315 7.312422046695719
Nb 5.136510031356841 7.745036191547744 6.239451086021574
Nb 6.435712292821538 9.40400452620012 7.565594983140737
