15
Energy = -121.0226729 eV
Nb 7.3630691497478695 8.166605677487144 9.840209658660795
Nb 6.425598424134617 5.510584261577349 9.748297739112386
Nb 8.898993023023115 6.2954806429013725 8.825068805539733
Nb 6.822258361624942 6.964640818917069 7.3613498065974055
Nb 6.342077683844593 9.506782928607981 7.7802506266131495
Nb 8.910543131059407 8.712790673030641 7.240396578641694
Nb 4.761478223770626 7.543570904229105 9.21724306361305
Nb 6.933260963048983 8.541881090027568 5.055040249662998
Nb 9.498852706938688 8.475560220724974 4.671881841701045
Nb 7.130826879468706 4.361494034178661 7.184699750114693
Nb 4.40617381657001 7.544166631295379 6.498558617881658
Nb 9.000059566682747 6.139527559869703 5.799983304361855
Nb 4.649446332615457 5.206056211160591 7.66638736827003
Nb 8.042080854751 6.733352937924594 3.4704144034669384
Nb 6.159727303059947 5.7206398596658214 5.027340819944412
