13
Energy = -103.86195838 eV
Nb 8.359406385611916 6.29142660307264 4.982018150324141
Nb 10.625040420456035 6.642820622614991 5.9681432933267775
Nb 9.121262207694665 8.59989768623891 6.512685701465741
Nb 6.616069894929634 7.642131893957286 6.430882133599631
Nb 7.285891041191058 10.279473871635657 7.434574531602996
Nb 8.464689052711854 5.556389065817833 7.361490385744773
Nb 9.777585556850628 9.450317728579897 8.999759987422296
Nb 7.535690293817039 7.686685871796773 8.867137518325073
Nb 5.422163817436739 9.291327438961671 8.79477946175442
Nb 10.307429204180362 6.848268663181542 8.537035998551556
Nb 7.6150550622481 10.634157280157146 10.027865711833487
Nb 8.80415944253913 8.372484354440227 11.103185968182512
Nb 6.285200945397863 8.92426224461041 11.20008448293135
