14
Energy = -111.10995911 eV
Nb 6.8990220566220755 6.9428969246518495 5.353862563805398
Nb 8.826002501980751 8.526636012124303 4.849342120261278
Nb 6.52477700561815 9.291792267695453 6.35547728647029
Nb 8.550967597661714 10.62323671238113 6.43135523467266
Nb 9.099722744561655 6.2764465922441435 6.3420828505927025
Nb 6.786274709412978 6.970778346574329 8.058197252703561
Nb 9.677281565738479 8.590240301356848 7.569771751363052
Nb 9.596063535712297 10.810415618461 9.59212661549382
Nb 8.90140431648327 6.477843133695133 9.212630417605142
Nb 7.509244086676684 9.444988068185515 8.97074650724696
Nb 10.554728478335479 8.600869480808395 10.16648376850062
Nb 6.906927430402168 7.725022181936792 10.958309889034634
Nb 8.404932080863542 9.792473606403302 11.681416080907624
Nb 9.183357833046541 7.34706669659719 11.878903604458028
