15
Energy = -120.66855285 eV
Nb 7.861634512855129 6.847048555661904 5.4334792878667795
Nb 10.050852559055603 9.98509265310585 5.991288391514394
Nb 10.121246822831239 7.33015555288881 6.478343167922364
Nb 5.734104831874709 6.754288090847693 6.813153452897353
Nb 7.624934703846774 9.118915154859044 6.860667458492939
Nb 7.839220506139005 4.911283055670368 7.157297712512163
Nb 9.109057121943195 11.43570324175078 7.851003625653443
Nb 8.380759560517186 7.115942424836156 8.566094984121179
Nb 5.5365071149153895 8.303772912466513 8.765751971200547
Nb 10.519978953170842 9.014270048381166 8.38644592280262
Nb 6.219566433829654 5.478782634201439 9.059282608328083
Nb 7.6116354779738336 9.858715447507956 9.525350101198008
Nb 10.0874648855676 10.808420933274123 10.113235011808326
Nb 9.254658826096048 8.39247446484226 10.935473340098884
Nb 6.788362579957876 7.385119720279788 10.803117854156234
