12
Energy = -92.83624274 eV
Nb 9.909489637800862 9.082316253035524 10.006464226323907
Nb 7.967677600634497 6.808670340969429 8.136726540339565
Nb 7.8434387895960995 10.6674050367147 9.47351611791153
Nb 10.663644337732448 6.51173355915315 8.738851802169869
Nb 7.03630746277248 8.318777848538378 10.392422061258332
Nb 11.428965359161722 8.846802706496986 7.912678657983839
Nb 8.99134695944037 6.7358904144215375 10.598911902286204
Nb 7.788060590592797 8.2859812402855 5.927216263063396
Nb 9.20145724589691 9.990063585403686 7.272430565057541
Nb 10.051260949169865 7.3209692125712165 6.3282029393101
Nb 5.216899799273162 10.303031688124186 10.022103017576212
Nb 6.378117902876249 9.140658949992732 7.866642641549514
