13
Energy = -102.14641163 eV
Nb 7.867372490346251 7.5529329165433525 4.504659328479378
Nb 10.004663909834912 6.507835913874345 5.743391400131846
Nb 7.738806705521922 5.036396689294953 5.901024236821446
Nb 8.076080309270784 4.177661387213494 8.214765645342698
Nb 7.045933072817993 9.35442973400029 6.42378805441176
Nb 9.612411529036743 8.91775641840052 5.840709646746458
Nb 8.220757135750405 7.178425861912576 7.625763951083004
Nb 5.685772264659837 6.972138454704131 6.176877756141881
Nb 5.604961473051375 3.9763647226108767 6.869342737015604
Nb 4.463122000401079 9.383578278801016 7.090197543292996
Nb 6.030432346714699 5.682384364957799 8.633413445400466
Nb 6.111359153514538 8.53688630182012 8.892057907236941
Nb 3.8839938791019493 7.248712560389154 8.1336426017699
