11
Energy = -86.40817992 eV
Nb 9.064833902801071 5.007591630402991 8.434338833192294
Nb 8.836229636208383 7.664637039844053 8.304189889094046
Nb 7.944601369399954 6.312620321208177 6.07852717628594
Nb 6.831210258766056 5.774785594721302 9.04507064892438
Nb 7.3178010906235444 4.0299005449221665 6.9319006048427925
Nb 5.314614038758971 5.660545089067475 6.696805799348717
Nb 8.18361892055414 8.81986524294288 5.77750611086749
Nb 8.057063032930653 10.166817466963657 7.801245213421947
Nb 6.112227148284632 8.018560683086127 8.09618343893889
Nb 5.610421911725708 7.790581156264315 5.374956423625113
Nb 5.837328560232806 10.041658801711181 6.6432353864703515
