12
Energy = -94.77623929 eV
Nb 5.341691815423121 5.7109177471125525 4.043026238934585
Nb 5.732849619109657 4.458083018900763 6.526836333632448
Nb 5.185502835412423 5.744246657633693 9.151606387077727
Nb 7.513801425058641 4.623635308863882 4.0388808210426195
Nb 7.904069326226174 5.960855194119108 6.292736203802898
Nb 7.389599527660571 4.715075889386714 8.655638161499814
Nb 5.543524786621691 8.20649887061089 4.249314622577872
Nb 5.000604245510895 6.947735448930723 6.61805393279826
Nb 5.3799589737221885 8.274763281678927 8.871478709812047
Nb 7.7418287973299025 7.155757239644976 3.7681407927931394
Nb 7.168638819679036 8.453461051049333 6.387437441418441
Nb 7.566542262538442 7.217582682873547 8.86546283238974
