11
Energy = -83.77298024 eV
Nb 9.79327595991343 5.632980227771437 8.195575517777701
Nb 8.36135237997125 5.679364498631236 10.28780698541107
Nb 8.354769696580384 12.238613342240892 7.476288241673029
Nb 9.686389214189576 12.509050156101633 9.501701937635534
Nb 10.669390966226771 6.732926397374465 10.328557641517005
Nb 7.921360284957596 10.683251019318256 9.889655033217068
Nb 7.403225698542622 9.862242457025072 7.496376176152489
Nb 7.3877247174155 6.431212521689775 8.046182142993102
Nb 8.957574612757364 8.249952831484105 9.069733320153095
Nb 10.064891369416184 10.307770560744551 7.628257136168079
Nb 10.565443707184045 10.185270631857664 10.151246201583879
