15
Energy = -120.4319264 eV
Nb 8.938598055444238 8.852809399667308 8.153587438646614
Nb 7.313055906483714 7.065936898951649 9.218538303934542
Nb 5.4660384126368955 8.989956103318391 7.582653684974001
Nb 4.50621372988128 7.598174035463724 9.422121989870519
Nb 9.869797382049509 6.451534154996864 8.160434427251458
Nb 7.4919608631147145 7.355784003716372 6.550973465725746
Nb 10.193012214441303 7.75220925947349 5.891495289595266
Nb 5.258102221100809 5.807304723189025 7.721245951336776
Nb 7.960003255978055 4.714763512040269 7.62949429602719
Nb 3.138681911338149 7.648471696089877 7.169325714575761
Nb 9.412125570591506 5.2894077985830155 5.528130974208267
Nb 5.046952237313896 7.86672360796815 5.264876958012452
Nb 8.130390985462203 6.95449265711462 4.046169669090007
Nb 6.572771220202365 5.165044146609475 5.231623738888165
Nb 3.832792873521539 5.686642123518153 5.560740259929594
