14
Energy = -111.24948824 eV
Nb 9.33480739963394 11.994181273668218 6.705290809508465
Nb 10.08635445394407 10.0490353975874 9.9268384336157
Nb 10.695157389851909 9.582122877127869 7.049009535621921
Nb 6.772733533360544 7.862393743296567 11.182270796449723
Nb 8.673534925219421 12.483287550523535 9.067779774709852
Nb 8.047496634434271 9.861692834054445 7.648218670446068
Nb 7.034344288336844 7.861953138978406 8.716722345989975
Nb 9.66188503575309 7.380809508054048 8.137816421724192
Nb 8.728773102499483 6.291137874812779 10.282492565914573
Nb 11.108083343480043 12.038053491757335 8.518907225645185
Nb 7.4752281510099206 10.306069217080433 10.190579328001375
Nb 12.088817415443454 8.598644046497173 8.842758943453031
Nb 10.98660081798023 7.372038245230509 10.71596021918274
Nb 9.05154329548997 8.624133766856474 11.909977594033723
