14
Energy = -112.42769199 eV
Nb 7.633704289977246 10.12775214219329 5.927896976126109
Nb 4.697916638741477 7.097483036277181 4.947114097686779
Nb 7.037221180673791 7.814533830838139 4.721474874433989
Nb 8.034876107367678 7.489609797754447 7.156310682637301
Nb 5.516640929614463 9.153877700643628 6.86315922652688
Nb 7.913688630708849 9.950599597109886 8.36048026010307
Nb 8.896658530730715 5.423640922830895 5.605528531363857
Nb 8.997221830587405 7.43715703939743 9.510180298707091
Nb 6.488838737095222 5.115240450853852 5.0687975721257255
Nb 9.418651955832196 5.212590275622064 8.161348958249013
Nb 6.272533394698037 8.434550240176243 9.496446938519668
Nb 5.33550524570411 6.569707530151072 7.3822589857506316
Nb 6.906465103114401 5.968966995359503 9.605231404598202
Nb 7.080595071120747 4.40282509301627 7.4994101146801055
