12
Energy = -94.5775357 eV
Nb 6.03948817299499 6.990055839022297 10.60055324179729
Nb 7.043017517911746 9.298968291740756 9.917847076035601
Nb 12.047544622335149 8.745020670089588 8.689135116725572
Nb 9.066525601937567 11.475214048729406 9.384614366193794
Nb 10.748353069729403 10.658395616810356 7.223240668020051
Nb 11.61869344030522 11.120593444399029 9.522615343265546
Nb 8.260910635584242 10.20626904467524 7.2839405032637625
Nb 7.445961069336036 7.74754844985367 7.9181527835990435
Nb 8.473141121105703 6.507930747209829 9.88246808603481
Nb 9.654595188040394 8.935393571157592 9.767529948256756
Nb 10.056383531365475 8.038362143087774 7.1959650777998805
Nb 7.949210255875206 7.82139643432964 12.011640234015665
