10
Energy = -77.40222638 eV
Nb 9.151313119927726 6.100467972858157 7.179175626867511
Nb 8.734355854852636 7.8464618850759695 5.321311159284847
Nb 7.863299689825344 5.457682834738854 5.06758527428782
Nb 6.9977442977366495 7.47537634887856 7.158436164092988
Nb 6.232086243511149 4.933383361944154 7.095902165229387
Nb 4.099695819299677 6.50536344586407 6.8954442526309725
Nb 5.731176604186217 7.029556241355395 4.867121207396358
Nb 4.965242633651049 4.487594047536688 4.8045947561845175
Nb 2.811939900916868 5.862754026524206 4.783882314673545
Nb 3.2283802344711616 4.116593740169661 6.641780984298026
