15
Energy = -121.3535292 eV
Nb 9.096787811235446 6.242800791189671 8.390457340422374
Nb 9.586785912572866 6.955899076226554 5.802854620375937
Nb 6.675690651694606 5.282875375563189 3.5013719340122633
Nb 6.732304036810538 5.500368554910466 9.117671214889
Nb 7.560070193875489 8.010588255832314 10.069498117264843
Nb 9.119970500830698 8.811950816314061 8.18342473876529
Nb 8.875863750410144 4.9864550541719845 4.192708352508586
Nb 7.653847953603228 7.573856069114116 4.332833501331709
Nb 7.295547081530169 5.224116684239653 6.376930300397938
Nb 6.362812976147599 9.84092210233581 8.592814087425012
Nb 4.996641519351055 7.670153523156457 9.475663456542359
Nb 7.004719705585214 7.7849359628279915 7.053032246634094
Nb 4.719968404039077 5.74815540198627 7.523037752727597
Nb 5.181536766796132 6.8831505930696775 5.253293259032718
Nb 4.273357927195468 8.540575764103435 7.281636162035324
