11
Energy = -85.74751138 eV
Nb 8.74517283620832 10.442570469737815 11.397544205958317
Nb 10.628938910448678 10.797621202116906 12.991302678770746
Nb 9.484106194501123 8.25601796835234 10.118352971469893
Nb 10.808644785798451 12.305815588530265 11.04845849968565
Nb 9.822565125831215 11.123507545483587 8.969484036903573
Nb 11.45680227003103 8.991997673443384 8.147988206383053
Nb 10.19652047750459 6.81364306729475 8.0721715027744
Nb 9.086637801027045 9.26369108508598 7.118699352763499
Nb 11.570220683451304 9.812194538749663 10.76370237516589
Nb 7.420909075689692 9.726163897866098 9.084767930699268
Nb 7.771507237704396 7.289660021637941 8.041911288522988
