15
Energy = -119.81946542 eV
Nb 8.349626174787083 8.806446128251459 5.608461067644826
Nb 10.078039964421661 10.705573853522598 6.3181940049580145
Nb 10.579707371975944 8.043526720129927 6.600493726164523
Nb 7.504185057859007 10.95113520749248 6.9454192725482375
Nb 8.25833921933933 6.949670347521046 7.758331424796201
Nb 6.284620100921984 8.539665928071313 7.381337242781664
Nb 11.347604405149854 9.933564906514267 8.377483653632286
Nb 9.205923253701839 11.54258892678691 8.757104923777868
Nb 6.129857938117577 7.0368846138894625 9.71518179065852
Nb 10.431727582672055 7.437407596784268 9.16828314772403
Nb 7.215537837222197 9.699196502806338 9.477981911197437
Nb 8.230052740192782 5.7924993336333 10.24573343620855
Nb 9.626138163932003 9.610858333421156 10.525287054975543
Nb 7.355747228734607 8.057759602866948 11.655660662507962
Nb 9.682601300484361 7.172930337821077 11.744755019936374
