15
Energy = -124.24762144
Nb 8.720314398343525 8.711197100603611 8.720325679851813
Nb 11.441420584245773 8.437766930565976 8.72274416868186
Nb 5.990063152347818 8.993752278621017 8.708797631535917
Nb 9.889287505771838 11.077768928214612 8.711187456216928
Nb 7.192594487646347 11.350491076561124 8.699883185070219
Nb 10.239064771678361 6.081081696119447 8.731655573242326
Nb 7.542357690970613 6.353818686708757 8.720325679851815
Nb 7.916844710103377 10.049515435410802 10.844299496097008
Nb 10.612099868267226 9.76608695557612 10.849255249489822
Nb 9.499290647419402 7.405933384565608 10.86475363239736
Nb 6.803923996757251 7.6893648737678495 10.84722557522788
Nb 7.932273196934281 10.025544150141414 6.566784763210122
Nb 10.627572934414566 9.742183051907093 6.584278755957236
Nb 9.514665638849207 7.382002034975625 6.587323036537739
Nb 6.819375931408369 7.665490901102716 6.582307631790088
