15
Energy = -119.55042523 eV
Nb 11.614682046006081 8.324658684315827 9.339350009385203
Nb 10.385472729215763 6.830446193621817 7.7238902604382025
Nb 10.449126379163934 9.788741508816015 7.417590442036494
Nb 10.582876891654402 10.63060953161025 9.971406235708717
Nb 9.264824878867351 6.787191183757111 10.19757371748343
Nb 10.356758149630313 8.593033188792376 11.625651082536159
Nb 9.149591742365963 8.074160397638527 5.881920149326407
Nb 8.101800594277071 10.525864411007133 6.523255544801398
Nb 8.383872263475261 11.296596293358244 8.949877512875752
Nb 7.7524580769805045 6.527620976500241 7.761562197475749
Nb 8.07653626386528 9.425063587210866 10.918231950919813
Nb 6.57640026212625 8.472017198372068 6.008622637790723
Nb 6.433908760774766 9.590715466760109 8.613233216482339
Nb 6.736015918777277 7.285100936678085 10.198045398224608
Nb 5.356191555260539 7.401723311724542 7.953064415179325
