12
Energy = -94.91065444 eV
Nb 5.356398287708055 5.7076211686893625 3.1329253614475614
Nb 4.5910793475242695 7.92746598855209 3.998557989835842
Nb 6.91526711379856 4.5029637708690995 4.492641768957073
Nb 7.023598421509464 7.354953656807197 4.758454343809547
Nb 8.67951448907686 5.77591687179142 5.9482285471174805
Nb 4.414369231494534 5.546138069764369 5.565007121395229
Nb 4.767596464911162 8.275064268931155 6.360652063190244
Nb 6.975706903633639 7.564591700779147 7.4938040393058145
Nb 4.471300065862037 6.281665159300372 8.034373698066258
Nb 6.424486823569476 4.37143266362654 7.023185358507934
Nb 6.311151783870281 5.518030886363297 9.367753258594318
Nb 8.585411501783305 5.690036229267908 8.340296884514338
