14
Energy = -113.28358254 eV
Nb 5.775533977018554 6.215736887366825 6.063939081796897
Nb 5.077406593063093 6.979737760285483 8.429881531835065
Nb 7.170817874957339 6.5043596044863605 10.208279679850955
Nb 8.877958566047532 6.355350331113892 5.843329070196143
Nb 7.670401873587335 7.67782894337643 7.632570091976352
Nb 9.4659851129419 5.971187333566768 8.69095407271825
Nb 7.17855208821691 7.9676190924897465 4.73282559088868
Nb 5.986358255844963 9.276051237187335 6.625044212778131
Nb 6.3673854347545555 9.098200545954032 9.522495083459171
Nb 9.001842583156478 9.469937431941698 5.846930167914458
Nb 8.381909999567227 10.328092557056204 8.201115663098788
Nb 9.000107322503304 8.353153021325 10.08901525783615
Nb 10.398663626910547 8.298984889339232 7.672656742519738
Nb 7.0928065929344175 4.949489741774905 7.886693392516139
