13
Energy = -101.70564206 eV
Nb 7.012620446015172 6.164876993034969 5.997038881940844
Nb 9.301028696287533 7.4626142862969935 5.93663232465714
Nb 8.953549203663748 5.243292995851578 7.420562454877796
Nb 7.313872018831454 9.01172226236805 6.942438169190667
Nb 9.420223200807236 10.477733548810901 7.195954737242082
Nb 5.365635926697246 7.226346619627428 7.565662792802508
Nb 7.272422817780507 11.007367706913783 8.912103368129706
Nb 9.892663012638451 7.9465601629088365 8.317289389251886
Nb 9.648751200540492 11.819203276765453 9.22656391462603
Nb 6.652214027153555 5.390833734077022 8.70960548511991
Nb 7.089647634929752 8.242128115516861 9.417881323854958
Nb 9.07121705567435 9.651644701882839 10.327499090144862
Nb 8.841406241813749 6.190927078778129 9.866019550994078
