12
Energy = -95.76216645 eV
Nb 8.769924705769313 7.249129311661247 8.981541666012879
Nb 7.35774914562421 7.235732649737327 6.368799795166141
Nb 6.781110848215449 8.999189882595777 8.846733521947051
Nb 8.00294640193004 4.6775613119587955 7.950193535372851
Nb 9.122375856237406 8.965795101344973 7.121727902815835
Nb 8.000166142468993 4.8380430169449795 5.430969091881827
Nb 5.2611027585362145 8.192629211140899 5.1432249668497345
Nb 5.4906859630662685 5.5194912708223836 6.491979221888959
Nb 6.125258623426087 6.292918924760676 8.90633507205069
Nb 4.691086388685267 8.156669582195153 7.5382431608416525
Nb 6.656109934854199 9.962094843915317 6.500648822441375
Nb 9.878566170507785 6.047828094363865 6.856685788871559
