13
Energy = -104.03783761 eV
Nb 8.046763608214095 8.132707701412537 9.60000800724014
Nb 7.817588071440651 9.790986110183564 7.274659911802985
Nb 9.792989203823941 8.1819003460481 7.719149056250848
Nb 5.666942180192627 8.978182339183018 8.750270191115117
Nb 8.58606685533222 5.722485825151549 8.413433767363333
Nb 6.184595758020028 6.410265758379061 9.585571256642528
Nb 4.507551553331083 7.055488525207566 7.505325155481437
Nb 5.655863777249303 9.001981151704527 6.077479641930801
Nb 6.116098712760102 4.931540929241092 7.527351034671638
Nb 8.130227705772327 8.032199261566834 5.270324208581921
Nb 9.980830067150912 6.399414150689652 6.067886157529453
Nb 5.876395419342267 6.575593705095037 5.191244645386914
Nb 7.9401777483534675 5.110972604282869 5.730882943167306
