14
Energy = -110.84212926 eV
Nb 8.208944863863989 11.106406040347032 7.042171501601406
Nb 7.161839328204516 11.408275079368702 9.383347796814
Nb 7.872156766594638 8.953060930543927 5.731497647615517
Nb 10.094020506532441 9.07430139443435 7.447567171150441
Nb 6.979774159771655 9.029242199038197 8.355601625905635
Nb 9.550368923860514 10.443901859740679 9.580693576216884
Nb 7.277670017815031 9.51544266269114 11.264703256601663
Nb 11.4129898932538 8.163810844652213 9.755000465060183
Nb 6.185236166363629 7.4214799741633355 10.284896174921435
Nb 9.865205815432946 7.229633910205742 5.713505639043834
Nb 7.981117969925741 6.704992389850028 7.377137116045435
Nb 9.854367458191183 8.944120380387497 11.662093021133156
Nb 8.789418873564363 7.3718072167402315 9.887256408183864
Nb 10.66404112981252 6.4009022146354555 8.085992680872625
