14
Energy = -113.6758953 eV
Nb 5.37017839761388 8.057050866905506 3.937004492289371
Nb 5.834881050893211 5.520666403471621 3.3654080221517373
Nb 7.900902522547863 7.469773923120217 4.396452645855206
Nb 8.316097379914654 4.9930013346351085 4.8037267817987725
Nb 3.5904462213853168 4.2950568718283355 5.496670475842315
Nb 3.391992894798555 6.889294396677904 5.083618802398787
Nb 5.9781347203122985 3.3798706362050894 5.173619637650829
Nb 5.859951403537639 5.952325835502356 5.871175307981737
Nb 8.389530783715076 6.854022657550164 6.815380742170089
Nb 7.479232790635642 4.227937805038033 7.418713296493662
Nb 5.947888142191992 8.421365303850331 6.481996226235445
Nb 4.919837796144516 3.937643166807429 7.779869861199335
Nb 3.6691613151029974 6.290016689174072 7.638105078252748
Nb 6.095342507595818 6.455552035622858 8.481836556069
