12
Energy = -93.37273432 eV
Nb 7.0955643866821285 5.328121249220132 3.368258354327786
Nb 4.867455957912708 4.288862672396255 3.7772599854436515
Nb 5.293032286414423 7.148585192832485 3.441293830512803
Nb 3.203632038608187 6.279271326059688 4.453571581853975
Nb 6.724871881523787 4.0189042719580295 5.7436003099924
Nb 7.141641160384577 6.89916404322148 5.507836937014915
Nb 3.9789476357139417 4.556712457245825 6.202214248474278
Nb 4.600477840971122 7.411585395333027 6.32830957260002
Nb 8.407002025471497 5.62583806219914 7.327944541955761
Nb 5.585387421564762 5.422903254390965 7.866240946113429
Nb 7.017955915280444 8.016964445420559 7.820318534698592
Nb 7.415639520733013 6.334695700982267 9.49475922827239
