13
Energy = -103.49857142 eV
Nb 6.590829469754559 6.590577057640612 6.590976159751847
Nb 6.688989628964241 8.057923097309324 8.881394559224617
Nb 6.585718757014338 5.220576318183989 8.915629656082366
Nb 6.59551914993209 7.960725590014886 4.265543874419445
Nb 6.4923397144399155 5.12368771605615 4.300074314012481
Nb 7.954946168305246 8.951969991252625 6.580029418598014
Nb 7.92635872041368 4.264641595433213 6.532802963060104
Nb 5.254983248754648 8.916635369623602 6.648861903704106
Nb 5.226862827508702 4.229360554321853 6.601477826505719
Nb 8.829028028649596 6.575701245931715 8.064676907996157
Nb 8.846199042473772 6.67797534351186 5.2151991011115415
Nb 4.335488333869332 6.503525687672788 7.966393397425942
Nb 4.352263104686492 6.606226592997737 5.116466112874523
