11
Energy = -85.01260368 eV
Nb 8.055015176552104 10.890189992189548 9.308982465738334
Nb 9.991064591584891 8.708240732057464 9.30313735756115
Nb 10.406862490552976 11.0476575808333 8.24290041797659
Nb 10.189589498345125 9.252331683915582 6.392883249883611
Nb 8.40763494188282 11.12350497276623 6.721083303924231
Nb 9.252400561229102 7.066760487743404 7.486473378456554
Nb 8.727726948681086 5.648029394345922 9.674275689084928
Nb 7.486403471197792 8.427523531039038 9.849593386634691
Nb 7.387019991985987 8.856162699106795 7.305507602134848
Nb 6.727218122195985 6.086144439621365 8.195246858947183
Nb 6.53442261799596 6.058812898585277 10.685274701861559
