15
Energy = -122.20341536 eV
Nb 9.243548493688323 10.869472671287193 6.956712440153296
Nb 11.521661397271913 10.743588119528614 7.987334579963999
Nb 9.985586913912057 8.34693080311831 7.39666598656048
Nb 7.182933688208317 9.26756269889489 7.847744179951122
Nb 7.489678993557002 11.916746065550052 8.479049609305262
Nb 9.86014772601649 12.102134296522294 9.61966193570765
Nb 8.16415183776003 6.842063032324817 8.674021803150403
Nb 10.500887747838409 6.621336487209789 9.641200945908448
Nb 11.703093628516923 10.718511465826538 10.68945613679911
Nb 6.669759704097714 10.624781455095452 10.302296905660945
Nb 12.148400231840043 8.50807762857355 9.131734975893828
Nb 9.22466059857234 9.516125291442133 9.807651742769218
Nb 6.597775922057925 8.137588817567373 10.307220537301742
Nb 8.736207861680368 7.3162714532868 11.470803112480862
Nb 10.972005704553766 8.469310163343666 11.688945557965678
