11
Energy = -82.04119808 eV
Nb 8.75739261267962 7.290574545451087 6.375963816192196
Nb 8.474269530673325 9.815167093251523 6.124581162796899
Nb 6.9378900625992594 8.337029527040611 7.941045927139534
Nb 10.90578651773293 8.497444195385526 7.042873759953222
Nb 10.105499862068557 10.829404650592956 7.886853298100394
Nb 11.003863151983541 8.965201009347213 9.584711159102971
Nb 7.445416211825158 10.88471889684945 8.238762695771491
Nb 9.444987605560305 6.986109774486995 8.888023837871811
Nb 7.29180790703447 7.355825540733444 10.369724575968469
Nb 8.596117241241675 9.613978998456739 10.126493316320147
Nb 5.900879390006198 6.288455861809493 12.284876544188034
