12
Energy = -93.97303866 eV
Nb 7.027596725818099 7.300716109401793 4.886330529672108
Nb 6.673161870766114 4.688400976936691 4.068590404828297
Nb 4.425443754261391 6.205132235660547 4.126207080870312
Nb 5.023297740612882 8.76923981558927 4.123537066155117
Nb 4.209591173355527 3.776102088566092 5.109981326833881
Nb 8.318738302185455 5.1709640315357035 5.973777817559447
Nb 3.0393357799168115 5.959830835980947 6.264575902499745
Nb 6.461129906504405 2.993689775469235 6.0895206533942865
Nb 4.71079337344088 8.055024301830722 6.4803878348550885
Nb 5.332153151029444 5.302571929386954 7.132409927236458
Nb 7.181092296233023 7.24153318171855 7.437823815592283
Nb 7.439646191174378 4.378774983222032 8.148837905801361
