14
Energy = -111.1614444 eV
Nb 3.986424649544007 5.459240634347551 3.6267414352482983
Nb 5.704996166086543 3.6048407620959244 4.0086107010510235
Nb 6.845668836391527 6.058965158113043 4.3816435076713125
Nb 3.16189433805187 3.484163931143331 4.977240457125335
Nb 4.9432810114840215 7.625057418423455 5.220364007123721
Nb 7.684962997859459 8.498877045841079 4.7364308762288525
Nb 8.17614572336205 4.302807108790499 5.744507426396811
Nb 9.222623698200739 6.804987891623216 5.968359038805161
Nb 5.560234845577276 4.222223325898484 6.526469629740539
Nb 7.020751277179677 8.249126185318298 7.03480274081124
Nb 2.796876911982219 6.131279921078381 5.934475032492921
Nb 7.787908626515225 5.798227143579855 7.792988662889925
Nb 3.126186764468126 4.294554320578432 7.451197421743837
Nb 5.025080344697028 6.508685344568079 7.639205254070934
