15
Energy = -123.07701485 eV
Nb 5.830620888477176 5.863726674387189 3.5138319143588705
Nb 6.126758026647082 8.317773403673423 4.247629820436163
Nb 8.463851823309726 6.060851881414003 4.981700242991854
Nb 3.772612281997215 7.148408909761407 4.865378255560202
Nb 6.236324640872308 6.267620805851725 6.27638590711854
Nb 8.188660324857679 8.511404001905262 5.895606354604324
Nb 4.17027565278035 4.56019703461615 5.10870643189185
Nb 6.681159562625988 3.6938262870620835 5.205180438625501
Nb 5.331832331388368 8.644751124875077 6.821806880551453
Nb 5.048295950924141 3.8147937803136855 7.4545542484257465
Nb 7.716424116273319 4.119558528264793 7.532683774366393
Nb 8.962616030368844 6.432401427043547 7.549135400743021
Nb 3.851981547285033 6.307815905148475 7.455526581609325
Nb 7.455553796645814 8.347031961312668 8.351151340374868
Nb 6.288108176967823 6.034913425791402 8.865797559762328
