13
Energy = -102.84467145 eV
Nb 12.424830258355392 6.6092720010782715 9.75480623686621
Nb 9.702048782390392 9.297087199467057 8.917026436570033
Nb 11.490842588325641 10.297055598502201 11.198806809407044
Nb 7.277712416598756 9.419581907172637 7.9018307369571055
Nb 7.303532298675569 8.449421732175233 10.325992844111408
Nb 11.134850271305368 11.56658132254409 8.565162059139375
Nb 10.264007489518953 7.671016036857947 10.959888322263911
Nb 9.534308794241133 12.027917694093103 10.494653530811753
Nb 8.842980901798157 9.732668093970883 11.813942497910345
Nb 8.736144203304113 11.616599112489904 7.721728152489123
Nb 7.227660775782307 11.11504792729035 9.836670934243632
Nb 12.722673296025054 8.036149258091108 11.712521221935212
Nb 12.389511487432994 9.022899803686597 9.095992126782471
