11
Energy = -87.06136045 eV
Nb 9.572632935666615 8.965301172872627 8.71108718953275
Nb 9.76127551497029 7.329354111087105 6.837056288239565
Nb 8.193242794616273 9.77354025588985 6.795408168052123
Nb 8.891263975251015 6.4727273306457125 9.24342352584667
Nb 8.006239418826826 5.311837746414033 6.956606103417688
Nb 7.706463277125662 7.78682654094392 5.249297591254147
Nb 6.0850998763095 5.401300282927898 8.67432197279497
Nb 5.7357581614748225 6.060203689187052 5.857237464276742
Nb 6.95539426749729 7.839593019029434 8.102478305570038
Nb 5.328927369495552 8.683804750045475 6.2225242548955935
Nb 4.257009254339651 6.795754844747533 7.737436336828298
