10
Energy = -78.383853 eV
Nb 6.355501626100797 8.47390065986676 5.281341389927462
Nb 5.400258188561938 4.5248538857314555 6.740682480408152
Nb 7.02686211943379 5.883641665310484 5.213415171584808
Nb 9.350992181011033 5.91436842363113 6.328137830413196
Nb 8.799198189734232 8.189815056811344 5.593619368584341
Nb 4.382881291141533 6.691938807082439 6.0097248794183935
Nb 5.140581059045786 8.495701640512095 7.611956951419049
Nb 7.663381162969876 7.749752923838993 7.832770321878246
Nb 7.725983992750377 5.066442232279152 7.972602348005356
Nb 5.349787422694402 6.205011938380367 8.611176491804898
