13
Energy = -103.24674697 eV
Nb 9.524137098718498 7.405439709249038 7.311932266955865
Nb 8.298014965503073 8.579486222122148 4.976776029741027
Nb 8.932012446143649 6.139440686852727 5.009824175420038
Nb 7.524459927450533 9.257755929922991 7.446633948578387
Nb 8.646161934648067 4.972083016106361 7.941374920088919
Nb 6.314140124400752 7.178289315806608 4.0107262154368355
Nb 7.442662959168588 4.74638596838935 10.03422156472139
Nb 6.86306289014794 6.457669822319251 6.56513719571076
Nb 4.310970896676368 6.858954864877084 6.160366674753301
Nb 5.517894306688001 9.014413602152805 5.672465666892765
Nb 7.675109868976629 7.301598910585736 9.313019494491419
Nb 5.549366545165129 5.465158383445112 8.698262246262674
Nb 5.242374837574247 8.08322550619897 8.382072993034337
