11
Energy = -85.28057781 eV
Nb 6.763166125862787 5.5126493726767904 4.232812349190383
Nb 5.188358972381993 3.809898969537448 5.592826668534943
Nb 8.55933440857711 8.112254663088006 4.392674746931114
Nb 8.868871816748886 6.128646299549249 5.792153447587033
Nb 6.329488654676526 7.9162683646850684 5.296822297462265
Nb 4.282694212130088 6.133937267154813 5.525613929555659
Nb 7.85896014145293 7.964340296688684 7.476422276969704
Nb 5.004100537177265 7.7571387963269265 7.6687307969192045
Nb 4.395783100633311 5.18355046828797 8.0155882406693
Nb 6.465781833605015 6.6753556338290245 9.377729599419707
Nb 6.777415200576618 5.299914991914595 7.12258065058322
