15
Energy = -123.70219696 eV
Nb 6.240482893887311 5.050052005203976 3.1283056931680573
Nb 5.345327644774387 7.319598995778002 3.5175357523279023
Nb 7.989889277846703 6.885064237030457 4.1259611048967795
Nb 3.7541887126583444 5.363604284977086 4.772098049753655
Nb 8.272723789527305 4.573849616795695 5.0577207114698925
Nb 5.578680002491517 3.30792956822686 5.045174802587635
Nb 6.7712513929838245 8.674002668462197 5.868581050872237
Nb 4.073112153681011 8.152836952498758 5.843757999807921
Nb 5.944517018934412 5.961154293535379 5.93401938999678
Nb 8.135111907742038 6.544170026037805 7.107469968075454
Nb 4.463945009291041 3.7931726395505123 7.2663854833354025
Nb 7.1774666951290165 3.6759782830218604 7.317643283787746
Nb 3.559815385785863 6.292165720654973 7.449247789580379
Nb 5.718136000014946 8.057885642187783 8.016832588713486
Nb 6.140464843720018 5.513647794506544 8.714379060094817
