11
Energy = -83.96604056 eV
Nb 5.782835319436069 11.689669038908875 10.125612396829577
Nb 9.585787019803094 10.650664231015355 7.388827930264341
Nb 8.918536542346157 8.645268323532077 11.315512907382725
Nb 9.168594195018954 11.167797762905552 10.263728803788036
Nb 12.00688976916529 8.258085069193331 8.690128168582962
Nb 11.16563485020364 7.18972909027691 10.659465997918586
Nb 9.351779709954327 8.607331594249645 8.86004916170892
Nb 11.483420915430088 9.644822580062 11.102896737360515
Nb 7.438233394876845 11.312537839158262 8.338310718016864
Nb 11.567727517385089 10.846441771867093 8.935579257158624
Nb 6.63600859869668 9.857762470823388 11.018010012972423
