12
Energy = -95.100852 eV
Nb 8.551389450098672 8.320205491882254 5.637157536600684
Nb 3.725453985126524 7.263656195499408 6.424451932591979
Nb 4.575361412266789 4.982640540673695 7.336211382832436
Nb 7.619499816215564 6.39094919317674 4.1677682056653325
Nb 9.025333321462728 5.9595777911886225 6.611340047174277
Nb 6.8547129976388685 4.451363578588812 5.930395440246218
Nb 4.868865496921299 5.788257749284753 4.616683135374327
Nb 7.14431248358429 5.0873379468627276 8.569383283842626
Nb 6.361796647879467 7.284427257587968 6.71692367462742
Nb 5.249630865534283 6.791955927268743 9.07363963073753
Nb 5.7651948427346 8.206951484153395 4.300792173109529
Nb 8.231152662519554 7.445381072531937 8.587957909255111
