13
Energy = -103.04582212 eV
Nb 6.686621539227843 8.559008228496003 4.324824570815821
Nb 4.974488160053279 6.55124228503915 9.219170151540078
Nb 8.737733237608696 6.668831086527926 5.51943808233765
Nb 6.4591034903108815 4.635950621210186 8.600303056183506
Nb 5.294860312177055 4.651737663927772 4.16209153515248
Nb 4.709594529756711 5.679991915769662 6.597356557003544
Nb 7.193678928064403 6.208266626116399 3.547172546155703
Nb 8.74911016678045 5.829364764052156 8.319567128180402
Nb 7.230865521610845 4.672337226697607 5.986672260162222
Nb 4.453584269285292 7.022005786571406 3.996122643193062
Nb 7.274850364081588 7.011895260840657 9.863146208892816
Nb 4.723114612624511 8.426167996575307 6.016495996796073
Nb 6.784033560627478 7.354839353742537 7.119277709079122
