14
Energy = -111.3412161 eV
Nb 9.37097481599126 7.752265199352637 9.15664770715113
Nb 6.8885337947113925 6.897586561913207 9.761168271689067
Nb 8.437561789367146 5.681799638359309 7.751390882189876
Nb 7.312588674445781 9.35384630642198 9.709450126324613
Nb 9.89620582484812 7.7420473307230635 6.5506479316251385
Nb 9.621274723512679 5.4832730478797895 5.4056048103923455
Nb 7.241511140493587 4.511423250093862 5.417816018515099
Nb 5.840694074886255 5.9293567639787685 7.300455639791169
Nb 5.237119176087116 5.9762320688944435 4.511113701992491
Nb 7.575225788921456 7.199995502519636 5.027220451973668
Nb 7.397359912151254 8.603749218404959 7.263857466083998
Nb 4.954220016903485 8.274327712853225 8.381264419139443
Nb 5.0879792377939195 8.391858016673725 5.620497802308943
Nb 3.533844134623149 6.652101366418158 6.505977947453523
