12
Energy = -96.45335168
Nb 8.253596230918493 10.248254226755877 9.650580073014224
Nb 8.209824958854332 6.217692269318343 6.816866091840299
Nb 6.198290691340249 9.67609969026736 8.24198720776838
Nb 8.29350547885194 10.41678467572705 7.0875307710255395
Nb 9.585889976757317 8.10152090786618 10.225906382567839
Nb 6.853248380820168 8.227003955875116 10.207117857843805
Nb 9.61222789724297 8.227003955875118 6.258331233996666
Nb 6.0694031240092645 6.996044504569174 8.17768661883105
Nb 6.881556766248968 8.377399749740404 6.241206686620372
Nb 10.397029848859932 9.47137692087481 8.279122643585895
Nb 10.268476086991383 6.790289151433958 8.233492051959276
Nb 8.17623355910484 6.049810991696848 9.379450380946242
