14
Energy = -114.24035399 eV
Nb 11.036791075577984 7.769948610913686 9.430184677317225
Nb 8.78265253238846 8.736957066818098 9.043842272150963
Nb 8.950229347201358 6.426312805293018 8.841422601335212
Nb 7.77703273329131 10.851905452758349 9.836295759718828
Nb 7.8192202276294065 10.488539541047949 7.732715218003995
Nb 9.58518022840465 9.666236669926496 6.877794250571402
Nb 8.192554631276005 8.350305518548709 7.289743779328925
Nb 7.203536885637127 7.266173204680234 9.096720582465949
Nb 6.373828414218053 8.877408443621315 9.014583054688526
Nb 10.285959245615226 7.946347179359452 7.34902650697239
Nb 7.422459626590139 8.737969670488772 10.94971951896411
Nb 11.407597505023194 9.254785202751163 8.99225269712122
Nb 8.6673428254677 7.35861015454128 10.71653838342869
Nb 9.42581614746091 11.19870090503291 9.043842272150963
