12
Energy = -93.61394799 eV
Nb 11.97403595405246 7.451283242974456 11.335455853783007
Nb 9.472278237693155 6.9535396989670675 11.52600656905545
Nb 11.999563571643161 7.482421907362757 8.782551379260964
Nb 9.102292529173692 6.990745658222386 8.609444939971661
Nb 8.728088853412759 11.38839834041892 9.140557953928287
Nb 10.97004347949813 5.511083314714816 10.040520674547924
Nb 10.06135062270974 9.179949705953517 7.725476510799521
Nb 10.368256006554066 9.443713475767867 10.243176374951064
Nb 7.238554393870955 8.516246854910753 7.221390013901668
Nb 8.086868808533032 10.873432553537217 6.722469181953807
Nb 6.395420909466443 10.50613665679172 8.580310613046722
Nb 7.923942016380753 8.720590862360666 10.073003298951622
