10
Energy = -77.71670601 eV
Nb 9.708330442766053 7.895842475219864 6.622296940697435
Nb 9.209873820138876 8.753227641222464 8.808788751854562
Nb 8.030058090811508 6.396953161875273 8.392540584542798
Nb 7.76400982543655 6.391446836051297 5.718746198935416
Nb 7.24489887089362 8.980508229325578 6.708205605092256
Nb 5.416648264017384 7.733127348099181 5.232113792176775
Nb 6.757325790970192 8.713016121256958 9.236487635531018
Nb 5.3610284379531015 5.231495234315518 5.468260361225354
Nb 6.4523948422197615 4.520481476465388 7.463139637950923
Nb 5.383962272868534 7.022428653542866 7.7232029950995456
