14
Energy = -109.77622825 eV
Nb 4.824803048707003 7.977386129100034 6.554056609820676
Nb 8.829720650122866 7.52562199093875 9.79156160166717
Nb 6.993992305299477 6.449024066036043 7.737558231223674
Nb 8.945419486918173 10.217240785199904 8.299516966544555
Nb 12.67820259613044 9.714550208387116 10.763170868737982
Nb 5.216535416634006 5.644698836452142 6.073724155229773
Nb 6.9990636675058395 6.949338870175509 4.972441081173036
Nb 6.95013092489924 9.211628020344376 6.12176772138781
Nb 6.742472242535402 8.856593046881889 8.800963538931448
Nb 9.053644689151955 7.889310475201669 7.007955041141758
Nb 10.780749286869723 11.216434097600843 10.574896031552736
Nb 8.719997033166024 9.879603340256022 10.980628338251154
Nb 11.014398192543998 8.765070534718662 9.054166088837158
Nb 10.759820578381314 8.645980015774581 11.862884922170919
