12
Energy = -94.48654589 eV
Nb 5.100460224319161 8.030157398320238 2.7866765359153463
Nb 5.19524157944313 5.55813857192553 3.230689784906126
Nb 7.264626087333354 7.329998975627821 3.8009086286845517
Nb 4.829700513813284 7.634475331696839 5.286373192322968
Nb 3.959642575348576 5.119325299260908 5.513980550254879
Nb 6.861545973833111 5.141831395075405 5.171003268256051
Nb 8.098444580195324 5.24507396092552 7.488163332670568
Nb 5.720806189575577 3.6278937523432186 7.039697295378698
Nb 7.23475256606572 7.653255733524064 6.504357285903581
Nb 5.109902502822365 6.205712731965472 7.575790317784854
Nb 6.489024452026362 4.412744019497245 9.314432466765993
Nb 7.012318718694012 6.917858793307406 9.164393304626671
