11
Energy = -86.38886961 eV
Nb 5.678536592531115 10.20773498969598 8.964559886599373
Nb 7.786045187381507 11.770534367395324 9.569099940912206
Nb 9.657709491224402 10.883379123169373 11.101469209932509
Nb 7.802835146067991 9.812555007254717 7.597956060276752
Nb 8.278298901825998 7.5417053129340506 8.785489844452112
Nb 10.20719319109298 9.0440152487216 7.298303026911186
Nb 9.647575269933983 8.25985297103019 11.197341634423474
Nb 10.048301941655625 11.42636574478214 8.374148196656067
Nb 11.520950456531923 9.829054619496663 9.716477727345461
Nb 10.849156072779087 7.397307136846509 9.1276479252819
Nb 7.380869791546062 9.212365452640832 10.582663595317541
