13
Energy = -102.63493762 eV
Nb 5.113039740144812 7.529716699005274 7.711191545037552
Nb 7.808160769470623 6.939407020479241 7.530537911585229
Nb 6.446867647911089 5.231914726201261 8.868392997939074
Nb 6.522542454569626 8.900826444762872 5.958668662814026
Nb 4.045983905840869 5.420434886378049 8.712949500049573
Nb 8.446834074853127 4.886096133707024 5.768245913411651
Nb 8.812482639595087 8.059144290135189 5.575601226647326
Nb 3.3087111254966732 5.759133649457008 6.283639138083822
Nb 5.820842650415726 4.902488832321023 6.328780814749676
Nb 7.047675299454458 6.53451958113382 4.337982145446515
Nb 4.631961893244772 7.295874934492842 4.886954724701147
Nb 4.850882927195273 4.591092132178169 3.816906894902536
Nb 6.960858177822971 3.6725142460873013 3.9909168363800056
