11
Energy = -87.12513562 eV
Nb 7.723863040216035 6.015638117972282 4.3434746691234905
Nb 5.401967697036119 6.612124385064384 3.33955158422059
Nb 5.473250409297452 4.4042368063301085 4.677167237271716
Nb 6.169339548558894 8.319582764845316 5.118221151055204
Nb 3.9244020019478345 6.703633230636144 5.475461672537943
Nb 7.27505170256404 4.71108652172227 6.5644618621889705
Nb 8.212322438698815 7.471486781705346 6.346674902139794
Nb 5.503322926239864 7.337188679545379 7.4564275104310695
Nb 4.375433644229905 4.683540591225803 6.93154441462312
Nb 7.805001162995395 6.45875589246584 8.61281982303534
Nb 5.900503482120071 5.047184282391709 8.898653227277773
