5
Energy = -31.09934118 eV
Nb 8.881013332121764 5.680482867410777 7.150118095550819
Nb 7.143987198584434 5.183157150174553 8.527605332117442
Nb 6.826284022986855 7.196657792435411 6.994631875888264
Nb 3.9800633691680254 7.97458549551669 4.608076589603361
Nb 5.378927296368508 6.236453091748388 4.962427929987629
