5
Energy = -31.26177999 eV
Nb 9.558818011523291 7.751899646921121 8.603687464220114
Nb 8.591359704149392 9.998770686181485 8.225087794779093
Nb 8.364571678186719 8.696871444012231 10.52282870773298
Nb 11.11250567336698 6.129381363806281 7.525811417199041
Nb 7.460186241921378 10.809751544613695 10.113512962759142
