5
Energy = -35.46890418
Nb 8.54881844789351 8.030932215876724 7.661638376187611
Nb 6.419705644794925 6.944131705364767 7.3075861620394456
Nb 7.695583399428352 8.123240757388679 6.767006476857962
Nb 7.984107432712609 6.654008284422429 7.661638376187613
Nb 7.218256046498865 7.234525065619049 8.468601580055738
