5
Energy = -33.24090895 eV
Nb 9.15381899736078 8.416058979783125 8.456717588330719
Nb 7.879612829349639 9.806301946393347 9.990634110889175
Nb 9.03662613298208 11.357856176637009 11.34560909804457
Nb 10.594987429184865 10.093948904710672 10.04496275428534
Nb 11.510559973127954 8.586283001973698 8.42486754209568
