55
Energy = -477.50229498 eV
Nb 7.665202679330413 8.316573654305447 7.436687602089258
Nb 2.6778137850310224 3.143422193089263 6.381676749445886
Nb 7.613734353003646 3.4256694319517575 10.151409823381526
Nb 3.0866953111614297 7.845052497303389 8.296367633078752
Nb 7.398418533100953 6.567846405384312 5.155379864673632
Nb 8.10140350292059 6.590141092479325 9.945495520977069
Nb 7.696307447420526 11.30449387123066 7.473490175172177
Nb 7.823037592615341 9.769417476570647 4.959839275780612
Nb 9.67651255747773 10.726626839322 8.849531791722711
Nb 7.795389949987453 4.827736175827482 7.642430567374219
Nb 7.457018155596922 3.217639266628489 5.292710213571126
Nb 5.545082700508504 7.748958530776914 10.420462364578187
Nb 3.1829537874426364 4.800696748287325 8.20844636806305
Nb 9.761805082243756 7.886583773996307 4.861840747810851
Nb 3.352113793265643 6.247510915063884 10.33951847108022
Nb 7.882944787892411 1.7965368340862184 7.406489304909774
Nb 9.69451575853714 4.866855269953321 4.963437911208113
Nb 10.26709011127926 5.060859304802853 9.480928750430126
Nb 5.423358192609765 6.445534107873282 7.871698945019231
Nb 2.692451657950635 7.966567193967702 3.886291704265095
Nb 9.734712919121062 2.4819699958578507 9.150606057738223
Nb 5.140993732518718 9.701373599890033 8.38946380155289
Nb 2.636845558416539 4.962335780363542 3.7468571373993194
Nb 7.484850637670291 9.58350073485148 10.000054922960365
Nb 5.4403781801380475 3.1501043745080866 7.843033240220758
Nb 5.012278541287379 6.394452396589965 2.9902485041061735
Nb 10.303064995341908 8.121660401016316 9.17117705923488
Nb 9.997911938250079 6.462077354589245 7.158927218273344
Nb 9.544048969904704 6.2747951136277775 2.7358892609647585
Nb 3.049482703078234 6.478277687422139 0.895891547757756
Nb 10.155401179919938 9.71049376663378 6.652868765945065
Nb 5.523898991390186 9.28815107366372 3.282119052382077
Nb 3.4137184805346803 8.897678037803459 1.612149950003666
Nb 10.191298887135305 3.22668935619296 6.806100572501121
Nb 3.473623300709555 10.487838283187457 4.317651643474244
Nb 3.283591794887068 4.032148255099873 1.407073333856514
Nb 5.028335731206998 8.118623325269901 5.734825615089762
Nb 5.291208937752794 3.3144293539631424 3.0409766393733184
Nb 5.478006972528393 7.944826802464471 0.4514015399947712
Nb 5.591783247535143 10.790499484669532 6.108943569148568
Nb 3.2000785002168692 2.359243247935443 4.11668713470786
Nb 5.471176468583149 4.895697935088339 0.4262296454423032
Nb 5.091927535867333 4.786200828197545 5.497485808550416
Nb 7.667630151905255 8.004924529075366 2.5554278596970676
Nb 7.451060477199764 6.370875983887554 0.5160547112438486
Nb 5.143818708157655 1.7348779147603295 5.7457994218049
Nb 7.39940427685661 4.848661029392615 2.9123824276959582
Nb 9.610062842700083 6.707238331127647 12.472879973797554
Nb 2.7592636796658168 6.3390310407529045 6.040055748246514
Nb 5.4947079070064975 4.8510062798566205 10.108296120393414
Nb 9.507517170517595 9.102821907969325 11.464857906086392
Nb 2.7199757916442833 9.62893333020748 6.481269265499479
Nb 7.343922136553448 8.102582285816766 12.613819568294662
Nb 9.329699732167875 4.358543833117972 11.8580630925482
Nb 6.909870626016719 5.60211620600871 12.339699543141663
