5
Energy = -30.86630126 eV
Nb 9.349575739638707 6.811900693253479 8.52715400500165
Nb 5.779632127902731 8.572126058826708 5.325675264877104
Nb 4.545370811618589 7.816652027688168 7.005380145886449
Nb 7.108567667769572 7.101665060251696 7.112978195831143
Nb 8.678850694833425 4.990157869022994 7.462127404400066
