55
Energy = -484.7883102
Nb 1.6149121066585677 4.5611981250607645 7.707843608758303
Nb 8.295253203104028 6.5615443559452205 4.294567410726997
Nb 6.170043468198098 2.2167275410356466 9.336988897840142
Nb 3.714880374881303 4.10455014313864 2.8460543948185526
Nb 8.33240676835289 6.764700682051254 7.52145004965911
Nb 5.920809600966818 6.113800637265235 12.132062176255085
Nb 3.836929379555287 4.446565076341581 6.101182074823346
Nb 1.577414955122853 4.361670075632774 4.546136109782669
Nb 6.0221398622377995 6.414979731550805 2.75446313674444
Nb 6.078957859655952 4.601666174332834 10.87949064798786
Nb 3.7908534957201785 4.516415435346725 9.376249036167817
Nb 6.1034032364461375 6.795658391409916 5.925029161994185
Nb 3.765017940393967 8.682745596146578 2.575338549570847
Nb 1.6805739464948375 8.789117337698517 4.21989118557651
Nb 6.0954553573993175 6.817508180071497 9.120843025808359
Nb 3.8308344888129726 9.071533463351615 5.80653959111963
Nb 5.968238294168477 3.9951564249827443 1.2921667366933154
Nb 10.519738092353883 6.361400612252227 2.8761365635910776
Nb 8.300279775517986 4.042639240521844 2.802285581917285
Nb 6.025606849831136 4.2613061364986295 4.443084612200951
Nb 10.674365408728855 6.642440195701665 5.881038716340027
Nb 8.317908175030993 4.351316570776887 6.054006664556307
Nb 6.063406954889216 4.468091011301928 7.717925747826011
Nb 1.5433546240291534 6.553175107729099 2.90447097529502
Nb 8.374738227048669 4.454283406090394 9.319829423443569
Nb 5.980036547519067 8.427876741314776 0.9987738496000932
Nb 1.6172032871889956 6.939711507451333 9.060623944009636
Nb 8.27798555315584 8.625794932813152 2.5187583366234922
Nb 6.093286042557986 8.986808316338998 4.11635014408992
Nb 3.873673503856885 6.904280663150439 10.72986663491901
Nb 8.386374820111206 9.019203147505467 5.7580957363242335
Nb 6.133318677642026 9.196263107102183 7.44090010648433
Nb 6.063845895410393 6.898450038608484 12.132062176255085
Nb 3.761376943674398 2.04803082129458 4.665517051825433
Nb 10.525712498300948 4.326907673393843 4.416465054000514
Nb 10.589392207672065 6.738638602082064 8.900547733513056
Nb 3.798410104683179 2.24710462262334 7.826878170969205
Nb 10.562471151218785 4.52864752073486 7.627540872854929
Nb 8.275805699666732 6.890532732870369 10.71289207511336
Nb 3.762222797860533 6.301044372609249 1.1997515459882306
Nb 10.46607674323859 8.716043843701776 4.175153815414697
Nb 1.7187210955136256 8.993347510891144 7.466979861310109
Nb 3.8207615172779157 6.618996059271094 4.339609440479965
Nb 1.703472200890895 2.380160953548771 6.256209994318206
Nb 3.8409829381701925 9.09354719588401 9.060770051985795
Nb 3.8590866992981323 6.823598370955855 7.573523795161029
Nb 1.483817057695384 6.7984773663356055 5.97992240844063
Nb 6.090481690697581 9.036512639698014 10.607314019980864
Nb 8.155686353559151 2.0273507753198716 4.518641540737884
Nb 6.098734411124383 1.8242334443120665 3.117368975946685
Nb 8.35269255658732 9.0367179878713 9.022513552222286
Nb 8.194051618209228 2.240337565917502 7.874706409308493
Nb 6.052151461961431 2.0072735093941203 6.228874457288896
Nb 10.502233072888693 8.912868228975588 7.3186835625986655
Nb 8.16590054157885 6.284538230604004 1.1158889871899373
