5
Energy = -32.48236829 eV
Nb 3.6168058572350255 4.339886211408046 2.692669232383975
Nb 5.648384107829594 3.0782998215488835 3.1563248293435513
Nb 3.297495732729811 4.9102141741318315 5.1780069789870895
Nb 5.771572763754733 5.024092853357495 4.772572428348397
Nb 4.561816465655265 5.5451676519363025 7.095069729208666
