55
Energy = -478.03513709 eV
Nb 4.330346849050351 4.014990392410995 1.6935594298724324
Nb 8.577964839809201 2.4077311869741442 5.38788632906616
Nb 5.87522526856332 2.2932602963510313 6.081410903005966
Nb 5.667645665435816 5.7877677256106645 3.7218342400372717
Nb 3.7899073637060696 8.163950782226562 3.407947718994642
Nb 5.945933176795133 8.046489027739627 1.7860790827203583
Nb 4.016404389410257 6.40488747870063 1.1829558771944113
Nb 2.382597458839223 7.091788619795811 8.252123944399209
Nb 7.89143856098705 5.468631985076079 8.371058954333112
Nb 7.063514162663602 8.077072132282636 4.868824917743604
Nb 9.613970795695213 6.985138282509416 6.670261552814655
Nb 7.4744659826638715 2.725841440084203 8.140260484487076
Nb 2.881619529488393 5.7437419101611855 3.6798531812881206
Nb 4.054213495465653 4.3203794055219165 11.387624466119162
Nb 2.803077334443643 4.516184691041716 8.830281706618162
Nb 12.047686913588482 7.01033967181051 5.571578027716476
Nb 8.849604922784938 9.752545791945026 6.853381782482857
Nb 10.57988724874027 5.963544725076514 3.6431806520100674
Nb 4.3351989158083715 7.655336831257079 6.132316528709181
Nb 1.9019765365815273 9.418157588863583 7.2991300921924775
Nb 3.6887283066500114 3.2922003234320396 4.2870348550849116
Nb 6.934519675005977 10.557447340045739 8.980646549988162
Nb 6.563259899523842 5.189415330224152 1.18023200027142
Nb 11.29789862847637 5.048483522003522 7.902430636861204
Nb 9.838021461670039 8.573539281665713 4.135565766425738
Nb 11.358141238628022 9.518019766906354 5.905656934769483
Nb 5.534369861929964 10.16512576310203 3.9167101889735587
Nb 6.768541065416948 7.861327289361071 7.701050935252487
Nb 4.953643453914326 6.367637508545729 9.21783353054434
Nb 10.372834160332824 6.327337828699277 9.739664760872214
Nb 9.993299949882823 2.5858106965735956 7.595263948476148
Nb 2.2513293503975524 5.122269866836408 6.185437419871158
Nb 5.06146882073028 6.625795088061028 11.964465345840441
Nb 3.2347604147171705 8.440547207105546 10.608565819435897
Nb 5.215517706224896 5.023601157104868 6.3619650636731455
Nb 8.48010888768476 4.105494165119878 3.006990552803155
Nb 1.712525079113315 7.783219366663331 5.325055726479434
Nb 8.262408964586648 6.870548785561546 2.6207679168443083
Nb 11.465896723042025 8.233773202011461 8.069385510993646
Nb 3.3298096853541 2.6930982012689717 6.6901205522630836
Nb 9.487466552544126 3.7716176264484447 9.797181216211673
Nb 5.082557242840933 3.443871068413771 8.800283420825844
Nb 6.669726874565988 4.37298196199507 10.79916178773679
Nb 8.293371055730436 10.870607001432917 4.582147118994316
Nb 6.056493928799642 10.40264158397731 6.486346519400142
Nb 3.3149238270209573 10.263652453366596 5.527386924806822
Nb 7.672052066863688 6.639138311559079 10.732549815097055
Nb 4.323842326765259 9.448108822083405 8.443160053047768
Nb 7.781311212556439 9.810229529260923 2.469457437031507
Nb 6.114949145983229 8.865549253563465 10.546256384742348
Nb 6.27073982138719 3.1148208746620125 3.563281927679894
Nb 10.69761111711788 4.280136863826428 5.47545899298222
Nb 7.9228776088140505 5.00828864209947 5.509385353872534
Nb 8.916567750151524 8.669442059098577 9.280940678337915
Nb 2.4113247769489923 6.222020344374896 11.046186533596774
