55
Energy = -478.84037034 eV
Nb 6.9073526997439565 11.478145442144822 10.720398793532693
Nb 8.273642984629076 11.986101429164618 8.755703334666196
Nb 9.36097045483024 10.514106631987689 11.302838238783552
Nb 9.152772777724469 8.006534176479738 12.170731782899074
Nb 6.64520294968965 9.025935286016077 11.791769902913218
Nb 10.862219278357294 10.570236591466077 8.860383935088699
Nb 11.091218342858664 8.46303102816869 10.32624582513386
Nb 4.819001056315777 10.019845157737352 10.014182429189178
Nb 5.537451963134101 12.392788549589863 7.84124445247858
Nb 7.177521386112311 12.25849216318039 5.675601427790169
Nb 6.821570957846438 10.088206984921843 7.324124925753036
Nb 9.643313655651262 11.472828950572813 6.700499970560448
Nb 7.194508558239869 6.456745608219681 11.121837248270452
Nb 12.832713149422153 8.803763450546485 7.982862196332423
Nb 8.043201192891303 8.835451980593042 9.541298483262315
Nb 3.6785215169783574 10.020832241868048 7.711335763986088
Nb 2.6142649147475536 8.422298785323326 9.83857152015167
Nb 9.747945518335296 6.286509223061557 9.841107011025036
Nb 4.244117619531045 7.274294084874352 11.344614967188717
Nb 11.652334746932025 9.76935222684987 5.8706206486387
Nb 9.884193214248766 8.311979902734755 7.518580199921235
Nb 4.454358163605612 11.469917716275484 5.5948589267578415
Nb 11.98351512219632 6.336147512969162 8.459484874660163
Nb 8.534272344878913 9.691897978218831 5.036270187703089
Nb 5.4134116187584835 7.714667236682894 8.772979330905
Nb 5.258724964346975 8.33814189066965 5.719620610414476
Nb 6.068276606169998 10.378042476777598 4.023851890331639
Nb 2.911716048594756 9.246737213775702 5.016447169901678
Nb 5.105317883093282 5.003248758485429 10.19455597962401
Nb 2.9827225197175418 5.875601648543142 9.103892804721056
Nb 2.7161081373682396 7.539822951978975 7.078945965951878
Nb 7.464609941364299 5.494354214772206 8.548902134162716
Nb 7.612119004763617 7.161309314634867 6.31899927258188
Nb 4.86663795069975 5.537830632067615 7.0538559876039635
Nb 12.32535677764213 7.142965866364488 5.925171619625526
Nb 10.209098934178272 7.701935876441008 4.56894420834221
Nb 10.031725589470717 5.6087023155072195 6.560248606967764
Nb 5.1756448007797475 3.068119600871625 8.178669054147779
Nb 9.94205318428208 3.683972048453488 8.317521573025713
Nb 7.579217877316054 2.8687754848824443 9.197819163922903
Nb 3.102390812402113 6.549625473743237 4.420140028362076
Nb 7.502092850057045 7.76664629021395 3.320358296495815
Nb 4.9058597362278755 7.592493030291854 2.848172368650679
Nb 5.961086976296479 5.66133110621397 4.632177972736481
Nb 3.208831234820326 4.265766060925227 5.437573797228686
Nb 7.489311078668488 3.8967414014624064 6.374360791894578
Nb 8.784566049705845 5.44086069617867 3.9451301104605188
Nb 9.159188487806894 1.4571752315370279 7.220510801441055
Nb 6.5918488204496875 1.0722446522847269 7.23422810212476
Nb 9.771371055144455 3.0403407492255208 5.202856523761931
Nb 6.711189880644126 5.580360340414653 1.868512723884355
Nb 4.388411487040804 4.472756299667874 2.8594702859560526
Nb 5.2952166513148535 2.7534472645537456 5.1760184662933915
Nb 7.212200238236211 3.3994696015229264 3.289142559988962
Nb 7.699754208069125 1.333317142221646 4.848000726132947
