5
Energy = -28.55901256 eV
Nb 7.493469639272307 9.691650492633457 11.290946329515618
Nb 10.533446535679097 9.422991937484223 8.072822039589699
Nb 9.14347638469732 8.946070437495857 10.018976682767136
Nb 8.488052862905993 8.391175338789903 7.361253819242198
Nb 7.190972759522574 6.716935298239819 6.439038151830998
