6
Energy = -41.60698328 eV
Nb 8.677330699321073 6.414468029504844 9.627721125580136
Nb 8.089391967096972 7.8359011032198085 8.047017596281597
Nb 9.069034996686915 11.300136821946495 10.396659759702679
Nb 9.67236686940398 8.733601557685098 10.158360193099615
Nb 8.768619429657967 10.31078043060924 8.084910897640203
Nb 11.062749053847414 10.710408515827638 9.071350070723092
