6
Energy = -43.86112451 eV
Nb 7.365438542590225 7.78787928169566 7.435585995267576
Nb 6.826935946969534 6.855026985462721 7.134473929807896
Nb 7.171941677264901 7.3101861556438505 8.059781288276355
Nb 8.323063884196618 8.197960269738171 7.73813084534738
Nb 7.770279406388241 7.257958505192597 7.543955908015211
Nb 7.365438542590227 7.414087802266993 8.400685000751404
