6
Energy = -41.03341729 eV
Nb 10.23190806213013 12.035218667391135 8.966776012140887
Nb 9.62171838078341 9.95651821836731 9.963293284150705
Nb 10.001305405423206 7.836568825373297 8.475534977747234
Nb 7.460231330906446 8.417448919029752 9.116777908262048
Nb 9.077103198773882 7.887419302413327 10.92234926325101
Nb 8.736428555470088 9.974032649723407 7.519085942295532
