6
Energy = -38.39532578 eV
Nb 7.527899597578324 9.179125779181678 9.653283119853352
Nb 9.133773533678658 7.2583663843343675 8.773083766957935
Nb 11.020735830367656 7.953374216576525 7.22199040840013
Nb 8.17744617834703 11.64419109190003 9.310561287500542
Nb 6.871246035283623 6.726169975577885 9.810146870646575
Nb 9.669731004392155 9.818460033190739 8.289471579346337
