6
Energy = -43.03346356 eV
Nb 6.203564247671508 6.451313069439371 8.241758875981507
Nb 5.116133693164371 7.7166201583745515 5.997894692758974
Nb 4.937188470016413 5.299293274446295 6.032825394721965
Nb 7.396901897171025 4.808451797243268 6.745341085009366
Nb 7.6213192380532515 7.86254039170318 6.706459354543223
Nb 7.195776872418876 6.332665850647005 4.74660501547995
