6
Energy = -43.69258782 eV
Nb 5.845568770723924 5.554100309515533 8.08323934814283
Nb 4.973780706436983 5.086757287139206 4.080762909852583
Nb 7.054511932884272 5.666469297787213 5.97714590366946
Nb 6.031000076002857 3.3847616114163626 5.788137166448276
Nb 5.080369358709378 7.179939511381289 5.609055271589598
Nb 4.06183707890015 4.9160653058473445 6.452766144724459
