6
Energy = -42.07744395 eV
Nb 8.958265057975991 11.82730120548089 8.317605267702106
Nb 9.175761648767208 10.252213855084355 10.254375922201177
Nb 8.025991482123278 7.907051651091914 10.172482450955096
Nb 10.489702089309338 8.094750179424256 9.612646975264543
Nb 8.6908721040724 9.425530066680068 7.79419178221939
Nb 8.92962833773519 6.875264877095516 8.086718572441114
