7
Energy = -52.08539293 eV
Nb 10.298184080354515 10.351976704882464 8.093145138972432
Nb 11.496250736121057 10.08238841151903 10.46268203225324
Nb 10.782221176386347 7.990271829079243 9.065292633467227
Nb 9.002146919137362 10.937838323222282 10.626864013991234
Nb 9.599605362259299 8.506601910600965 11.340265069930606
Nb 8.21556034893866 8.565707095680203 9.097697877240787
Nb 7.922876469540754 10.92929959750753 8.407296929058118
