7
Energy = -53.17152146 eV
Nb 7.169449999232184 6.514481399869796 8.08456063995495
Nb 7.6925681014028084 7.055134247919683 8.823666341393665
Nb 7.717539758305891 8.852155641679621 7.124130260740534
Nb 8.076981332701333 7.575083506229342 7.258839063606033
Nb 8.795327009692677 8.064719925860045 8.21329631602781
Nb 7.384397922578637 7.910800833630566 8.236315760749374
Nb 6.711192937504808 7.575083506229344 6.979129556109224
