7
Energy = -52.23566062 eV
Nb 8.016190520578071 8.599831255121089 6.087999940798039
Nb 5.577705180344465 8.584096400628546 6.183541130613164
Nb 8.696241726436194 7.606463916822354 8.48499002825715
Nb 6.093165213132551 8.114895082059698 8.533419373905023
Nb 9.037511392967186 6.225457362284609 6.387891358013793
Nb 6.526576609525978 6.19822161593527 6.454838760706982
Nb 7.0570812167210475 5.712508398735244 8.867346263794854
