7
Energy = -51.74033805 eV
Nb 6.737845116612903 6.130881086501861 4.802769952172112
Nb 4.69867311149939 4.251728653235239 5.009479133762644
Nb 5.656779713079193 8.18800047249988 5.8645901427969145
Nb 4.466207350100408 6.076307591923174 6.7080511827836915
Nb 8.018562700412577 7.875859975006082 6.3505711717528595
Nb 6.558290858518219 4.094820082892791 6.413100798835678
Nb 6.786552151054416 6.305313139218471 7.774348619173337
