7
Energy = -53.17609506 eV
Nb 8.014338023102464 8.027520687342879 6.258497897991759
Nb 9.956060870629834 8.333522336334147 7.833220398269432
Nb 8.822492660426109 5.919364774004141 7.6525816523451144
Nb 5.958002168721973 8.78264768929908 7.470523807007032
Nb 8.048391475284904 9.885303253854998 8.403610131981262
Nb 7.717684957625085 7.588891968516456 9.42585993618868
Nb 6.314393738409092 6.277348111101886 7.770494054809575
