7
Energy = -46.93403404 eV
Nb 7.796766045746799 5.165180138113888 4.952870728774175
Nb 8.817883048639462 6.938331728896808 5.926080452191597
Nb 9.759870596651716 8.927313896409327 7.236387739297143
Nb 6.224510808674747 5.932349900090167 6.5533540119617
Nb 7.261996410641152 8.007549049055301 7.785521998732482
Nb 5.652011966747747 8.62754325573697 9.590492870742352
Nb 4.840919098236013 6.881120145730751 8.50778914365743
