7
Energy = -49.82691821 eV
Nb 9.555121999526042 10.659922140142308 11.689070778417218
Nb 10.376260217952067 10.949994790122503 9.242144126071528
Nb 9.074180340621242 7.800105959871095 7.105261255965627
Nb 8.872689965340133 8.706733349569335 9.885837820225253
Nb 8.666147960819028 10.13282470230931 7.578579694063122
Nb 11.008750268347363 8.741896917314802 8.198930338728427
Nb 8.360321627720477 8.96506486121888 12.429248149113876
