8
Energy = -57.0670309 eV
Nb 10.27737597144516 7.3212490944828215 7.484194757646243
Nb 6.865089762503992 5.889355198951993 9.60654283716407
Nb 7.554878222574306 7.489320355766618 7.502015578409022
Nb 7.042477451893641 9.259799127633986 5.484733750818176
Nb 9.32882021735614 8.75835768682186 5.853547996217083
Nb 5.17346966025636 8.619043278700468 6.793028630174431
Nb 5.107380970071913 7.165350466420053 8.663876978625009
Nb 9.17471177747153 5.953927853882497 9.070949841367044
