8
Energy = -59.28623164 eV
Nb 6.258029431762733 6.0934767834692805 3.4098176816473194
Nb 6.278342974798237 4.461613878390967 5.224030275669101
Nb 4.976459450168555 7.2050913520359625 5.24843122428368
Nb 7.763208152330507 7.1021260761339775 5.049976555695433
Nb 6.573023089611267 8.167897741466565 6.922400461117848
Nb 3.9183959175112713 5.158230045803612 6.620562559338796
Nb 5.1103102737830985 3.4466481769125417 7.487402029046021
Nb 6.551197001525789 5.793882237278144 7.466345504692989
