8
Energy = -60.75262935 eV
Nb 9.02953092630554 11.049501286359057 9.672047625940635
Nb 11.909850833607939 11.03051953640879 9.2403167522119
Nb 10.42874491204465 13.007117210652329 9.136344460652282
Nb 10.862332304494794 8.382904813227432 12.216350300104038
Nb 10.791871778084218 12.441340044059228 11.520683863243654
Nb 9.380082062393212 10.361765993853085 12.110557814332049
Nb 10.540119320951119 8.953634762820757 9.840791540758076
Nb 12.261494600110561 10.366053192724692 11.71368794273635
