8
Energy = -58.50980773 eV
Nb 8.083189219669084 5.1980344729199 7.759012827357491
Nb 5.731570687088547 6.016036991071114 7.304309233002387
Nb 9.157148471604984 6.363190796959976 9.608171459090833
Nb 8.07412948975194 6.63983252800092 5.676143854629866
Nb 7.769219614516326 7.977768763483078 8.384117027055042
Nb 5.657315466192112 7.301209564421043 5.09127702591066
Nb 7.439196740189255 9.091667522825036 6.020488289281305
Nb 5.354536007224428 8.540353013974963 7.478984820660937
