8
Energy = -60.95644224 eV
Nb 8.736051962710613 8.225105847219135 8.166277250449632
Nb 8.908113262877707 6.090710928618675 6.677774845203207
Nb 6.600196334358629 6.399940572279504 8.280618605496441
Nb 6.435553939466853 9.007420554501648 8.478923586230588
Nb 7.277031252340481 4.339107816944183 6.796679879154029
Nb 7.533767834100661 8.276658414555897 5.870830298982335
Nb 6.111788584536957 6.002004339264893 5.5246695889356126
Nb 5.069317525424566 8.107086421572342 6.655443746517121
