8
Energy = -57.62054029 eV
Nb 9.019480607732362 7.772564883537177 8.76353297814485
Nb 7.841521032217979 5.493168747081676 8.620033269054806
Nb 8.727566505324203 9.544079373201782 7.365813578331271
Nb 5.405724150288186 5.574364063996816 8.739929499284626
Nb 6.301862985942886 5.169338902692077 6.495035208777958
Nb 7.411620348455335 9.177070834799437 5.297767424834835
Nb 6.609010542324599 7.779464572287395 7.528381295277317
Nb 6.383430982609897 7.173965543514012 4.914816182269595
