8
Energy = -61.4476509 eV
Nb 4.330807738469596 6.86461104146217 4.432612144530248
Nb 6.328719619695813 8.066903079064748 4.961454693615812
Nb 6.671138536686439 5.186881065000374 4.826786519966642
Nb 4.113045986124425 4.598944280092601 5.186635583603867
Nb 8.03308251462728 6.96738582587685 6.239707110794073
Nb 5.3839722245735535 3.9316023577671135 7.1062972408486855
Nb 5.190103068550683 6.66517498317365 7.0219111369545075
Nb 7.372913994554337 5.142281050844499 7.64837925296817
