9
Energy = -68.91633667 eV
Nb 6.38660419697266 7.805223325166775 5.178290849802233
Nb 8.615091271715084 6.665672130559955 5.820053839357475
Nb 5.956483348000405 5.563933844691101 6.175586665583191
Nb 8.141417382046509 4.710929534780956 7.29832900185844
Nb 6.054853777556778 9.901288752979184 6.606541082893161
Nb 6.1192122177600625 5.566207556955629 8.80670299940676
Nb 5.763410559925482 7.831893001350826 7.967490143195684
Nb 8.31502064777967 8.846145350855776 7.17520223562023
Nb 8.40079656864069 6.882489855288198 8.704391852831549
