9
Energy = -69.86632089 eV
Nb 9.367873004729894 7.203600697559329 10.699066678543645
Nb 11.425285023228232 7.767359035004324 9.470131978273884
Nb 8.844613913124851 8.958758402453816 9.010551678268577
Nb 11.496400542781316 9.89729571505731 8.335549540983068
Nb 10.99955025724933 9.714376555943277 11.207138506499273
Nb 8.48841400561768 9.188581383298171 11.856573562615344
Nb 11.016593226827565 11.92383780671952 9.909302567622616
Nb 8.603432008762468 11.302506688989977 10.694827844252217
Nb 9.263087101141624 11.304763221369615 8.140102606086186
