9
Energy = -69.47208965 eV
Nb 5.902512868380392 4.2230229387129725 4.32265385200135
Nb 4.113326979940233 6.00764367204478 4.086485491224649
Nb 6.281791068633078 7.0690602824574 4.825784137680191
Nb 8.041301880194853 5.188210557975876 5.190697583337944
Nb 3.8982823662666855 6.556151318522936 6.549127516561684
Nb 4.151499693644616 4.065284236037087 6.1490296008206125
Nb 8.113579036837208 7.106564008680424 6.986382282590669
Nb 6.322114859517419 4.910274263874866 7.123386787877353
Nb 5.962647624200712 7.660845099309227 7.55350912552113
