9
Energy = -68.25470892 eV
Nb 11.392416679101569 11.458906657809402 7.592708257021458
Nb 10.122810706195803 9.659840169527797 6.741405627671678
Nb 8.173400081310628 7.48907951296192 7.62523223737095
Nb 8.282240898071375 8.575257376012164 10.488083789287774
Nb 10.3287492559991 8.155671423249496 8.93524239260799
Nb 10.242955929024356 10.741267101034394 9.544899388946023
Nb 7.995645926375112 9.992816860792486 8.325176282878369
Nb 6.186277567210184 7.580872325389218 9.303667947127957
Nb 8.102986484642944 6.066535273595623 9.804336441266093
