9
Energy = -68.53320989 eV
Nb 6.1477003060183755 7.533846035081488 5.415930260212188
Nb 8.415631890012335 6.47352825987139 4.755758140161028
Nb 5.02656168913136 5.224163927665814 4.912648269261127
Nb 8.560459052685179 8.52351506788821 6.072112612988318
Nb 7.142266522493588 4.732122448762766 6.292719877482306
Nb 4.411176380402707 4.2362726885361575 7.223459219197823
Nb 3.1996091497848336 6.320119958607218 6.312750948428392
Nb 5.287627554406811 6.592393654631214 7.700419604868677
Nb 8.062584552250206 6.617655056141565 7.5678181645853755
