9
Energy = -68.84024891 eV
Nb 9.099127657957219 5.963479560128523 9.183850104748252
Nb 8.11690225565098 7.875764093911297 7.781322261406805
Nb 8.43818147714902 7.84808407220053 10.696646807583042
Nb 6.896403168692909 9.755457856084865 9.158774472938662
Nb 8.025224956472252 10.241763870933834 11.228938857733521
Nb 9.794419532926401 10.094786726107744 9.370843229365873
Nb 10.234936207085582 9.045371655727614 6.809744237098222
Nb 10.773580668149128 7.686399275487935 9.00883333178393
Nb 8.442038016271264 10.598556034641518 7.196652896401976
