9
Energy = -70.21040335 eV
Nb 9.922510491163077 7.979962435165479 9.248360082622794
Nb 8.397775579434208 6.04555309489576 8.856019494166151
Nb 8.939337771688034 9.762531989298047 7.635702725849791
Nb 9.568292268861262 7.551718372366033 6.626177440032337
Nb 7.414488079119543 5.924129470085675 6.560943954971804
Nb 7.527258226596175 8.597255649480829 9.918026588014376
Nb 5.989058696921159 7.156549317523208 8.500589074470971
Nb 7.036998055687101 8.317811241989004 6.016915836707987
Nb 6.367282772385272 9.75684301113459 7.927067517878566
