9
Energy = -68.91126558 eV
Nb 7.599645822898655 4.934613064860648 5.554124852161513
Nb 9.627986994487868 6.190692852938054 5.921986372763129
Nb 9.128577336515441 8.343523605385476 6.898134195923301
Nb 7.085880558388025 7.504980691312093 5.4832291029575275
Nb 7.977683486971818 6.067674366684102 8.120000610570116
Nb 6.841583629554744 8.38041288558469 8.16744283079855
Nb 5.636919719845506 5.6955109539461395 7.103689963042979
Nb 4.753042471261806 8.144525806185756 6.5434612172907345
Nb 4.382847969929752 7.409579623540141 8.784172463870838
