13
Energy = -85.13758295 eV
Ni 7.859054580129506 7.859054580129506 11.495728679907836
Ni 9.31065600000003 12.226390960129857 9.31065600000003
Ni 7.859054580129506 10.762257419870313 11.495728679907836
Ni 10.762257419870313 10.762257419870313 7.125583320092216
Ni 10.762257419870313 10.762257419870313 11.495728679907836
Ni 9.31065600000003 9.31065600000003 9.31065600000003
Ni 12.226390960129857 9.31065600000003 9.31065600000003
Ni 10.762257419870313 7.859054580129506 11.495728679907836
Ni 7.859054580129506 10.762257419870313 7.125583320092216
Ni 6.3949210398702 9.31065600000003 9.31065600000003
Ni 7.859054580129506 7.859054580129506 7.125583320092216
Ni 9.31065600000003 6.3949210398702 9.31065600000003
Ni 10.762257419870313 7.859054580129506 7.125583320092216
