17
Energy = -67.62382516 eV
Ni 8.836457926305268 6.145079819158605 5.64803132192598
Ni 7.732684129750194 6.7161615555187995 7.683885507952691
Ni 7.46331373931159 6.156100220874259 3.7417011220951206
Ni 7.1304451302637615 7.8986491216902115 5.569317666541702
Ni 5.921293030534684 5.035153506103181 8.0156991508889
Ni 5.526169520134625 7.410623620425503 7.410799667889469
Ni 8.113215583788998 4.427813795153554 7.118430257269543
Ni 7.909383363670987 4.114640646201897 4.716744377136584
Ni 5.488596800898485 7.256312417889066 3.953967786036579
Ni 4.273306862335895 4.350242478631711 6.4270290766819445
Ni 5.41205790660218 4.766687791940419 4.2321681604963235
Ni 3.3222230376232704 8.145059737461784 7.175737626752394
Ni 6.481853695921959 5.728766707507414 5.906470667669038
Ni 3.707121012402754 5.989826207172387 7.974887397716013
Ni 4.8963543668427825 8.805479405194697 5.588134446658634
Ni 6.280086049610349 3.331185648685003 6.143286372425841
Ni 4.1424191065407285 6.523233163334717 5.673713423390804
