16
Energy = -62.60021279 eV
Ni 7.8408316781025515 4.3389312339081565 6.7419387158266755
Ni 8.854002544408736 5.66721213996962 5.03412637922737
Ni 8.610636527087836 6.565693224254236 7.110654085834115
Ni 6.330006612847857 5.958145949793102 6.414486426714964
Ni 7.090167899834139 4.345464110484833 4.432612943531535
Ni 5.186141399365192 4.108036719265238 5.725311376570866
Ni 6.789600318985214 6.024303463461315 8.624154373930956
Ni 4.497359072864518 5.37981119704643 7.692645187175717
Ni 3.610307950459092 5.819601644638341 5.538881583612158
Ni 7.58393609821044 6.219430117999547 3.1327987174782965
Ni 4.923619660594406 7.510382715424493 8.51142452865934
Ni 5.525898662760869 6.150071633548382 4.2394880254760965
Ni 2.923061251071618 7.089173428030597 7.377658750349864
Ni 6.878024096397918 8.076867710100093 7.3882578583189895
Ni 7.343326040883038 7.519971913726824 5.093865701029505
Ni 4.858510665179556 7.71242566504022 6.131843677181061
