12
Energy = -44.89374732 eV
Ni 8.706215748235122 7.63278867086739 5.960723972095479
Ni 8.757336582625472 7.087427631945522 8.281945750905457
Ni 7.532508449120552 7.291395032491458 10.431714953721984
Ni 6.613737712284085 8.505818745411936 5.9981068306033976
Ni 9.429078795603155 9.209108876748186 7.434948685209628
Ni 6.62213801932501 8.006361279393444 8.319995905284792
Ni 8.31629804961003 9.19835550963905 9.486949965526746
Ni 7.365579174136931 10.108009751881577 7.530000195641751
Ni 8.38585129518461 9.936166003155462 5.41031167180575
Ni 6.959666805408794 6.29257018630368 6.707964302237994
Ni 6.883081627546575 5.661490952001009 8.891770795387727
Ni 8.872760049422238 5.5147598209726265 9.989818975463782
