10
Energy = -36.28968125 eV
Ni 5.850135601790603 5.39183055100483 7.3845460816104715
Ni 7.087745889898615 7.268844830048877 7.818681574564813
Ni 5.648445353629841 6.436250195531208 9.451206747763829
Ni 6.188337999460546 4.422521355002369 5.245415224476045
Ni 7.643120218479739 6.103586830444508 5.854003352743197
Ni 7.993555836830214 4.9141165695650555 3.8882558560342626
Ni 4.546162481202624 6.178380495369301 5.607369233459686
Ni 4.739358822323172 7.424148257233479 7.602000085989861
Ni 6.112524511566897 7.842550495232757 5.701398198801176
Ni 6.197803991975428 6.333687065645198 3.9249986724126487
