11
Energy = -40.95451562 eV
Ni 4.985278978864253 8.823588710706877 8.236621014847465
Ni 6.363839037092444 10.294493815588444 7.22128860935722
Ni 7.328813493841249 8.659355070679549 8.683449405525682
Ni 6.586739402664418 7.984345213539111 6.671950502919064
Ni 7.398000547418708 5.773829162901412 7.128581882751306
Ni 8.813839193966208 7.29910273463565 6.1103475772491125
Ni 8.136629839536385 6.443277467103899 9.144132819357203
Ni 8.47405861679543 9.521087484373993 6.753652471787027
Ni 9.561316904627846 7.959333572097452 8.1281006991146
Ni 9.728330847142624 5.663364672752752 7.562693439355405
Ni 5.873654751699083 6.7375307662738 8.62081405989257
