15
Energy = -58.57005538 eV
Ni 5.942940646029678 6.777980544727576 4.717099821369489
Ni 8.28407739983495 6.544940782503642 4.852593793674285
Ni 6.866567815914013 4.8599364961708496 5.677087602661464
Ni 7.194474191516945 8.174567576626837 6.166835066006662
Ni 4.831349468091006 8.089052661074557 6.319094505675318
Ni 4.8826150418909195 5.748642988735176 6.5280123454948855
Ni 9.541263951263044 7.8970420656519345 6.367276211641908
Ni 6.0947921862604 9.448303434482446 7.828103027249546
Ni 8.439232463724187 9.465908554357984 7.717883251275869
Ni 8.168634151714288 6.149795601821835 7.182788548656588
Ni 6.0687777687824145 7.100066324659026 8.07668100788743
Ni 6.427634557512749 4.762871871466543 7.989018237055112
Ni 9.35207753435658 7.55278442212608 8.686298439996017
Ni 7.370127177666792 8.450114248595478 9.53222708560965
Ni 7.677100383279099 6.119657164837604 9.500665793582973
