10
Energy = -36.41395137 eV
Ni 6.317570559299149 3.948993235925958 6.711435151612699
Ni 7.447077989389857 5.972849467262264 6.699263651014547
Ni 6.287267364235308 5.395621814785092 4.788635078981991
Ni 7.979682805350929 7.0912103351830185 4.763588764280565
Ni 4.303402799960622 3.689187976515093 7.780905647011318
Ni 4.278645798019441 4.344853119265196 5.575157313211209
Ni 5.054352619042921 5.827096141121991 7.151041904253483
Ni 5.9881073581741555 7.458343259980654 3.667869464091178
Ni 4.26617339333138 6.543238664555302 4.914904679176011
Ni 6.0410895841810985 7.7006098815850335 5.974216847666972
