10
Energy = -35.45801918 eV
Ni 2.895473613510744 5.258616877277296 4.820284962690482
Ni 5.316822631831075 4.083416768486912 5.540745325979652
Ni 4.147244614950193 5.997979619148485 6.5669455226564715
Ni 7.982100339208084 3.8879427722737536 6.3612239640871
Ni 6.5141563239257465 5.356844661670056 7.2834246589706115
Ni 8.524892710177705 6.177106433313323 6.593083205359475
Ni 6.095044716072007 7.347814690252717 5.875519160895799
Ni 4.907725199416799 6.070081067098664 4.131318265293312
Ni 7.27389550988428 5.432240520051272 4.847797876023216
Ni 3.4353448580027566 7.5455168226870875 5.053862070443584
