12
Energy = -45.05948816 eV
Ni 4.1937124128648025 4.951936904877373 5.847577514056423
Ni 6.238008130587445 4.313474136606201 4.7627493520011335
Ni 4.333143276463527 4.7309296077687915 3.529624671364468
Ni 6.234663105267225 5.928802467299303 2.9845988600655162
Ni 7.198960774193936 6.360890043451661 5.050222491025614
Ni 5.7879874129668805 7.1031686042144555 6.849397362631092
Ni 4.271519931441077 5.649368535459707 8.048999160174738
Ni 8.015815753744763 6.43979520469107 7.203550091994932
Ni 4.875086585575946 6.7659649890277676 4.6608039805388275
Ni 3.507346377345192 7.170834932504515 6.497828859249661
Ni 8.227359823605612 4.447707718722258 6.009442971792043
Ni 6.234518015393792 4.8832809516390325 7.0935915031615515
