17
Energy = -67.15625853 eV
Ni 7.165593372009095 9.836584851727409 9.403138155936144
Ni 8.668907116535289 6.080122620668222 10.669665508341556
Ni 8.055141624670918 12.218421194967373 9.727785615221531
Ni 10.134028733943302 12.407731523839464 8.4298979956972
Ni 8.49530375971495 9.056510903430324 7.275810732193789
Ni 8.180429353076377 11.347565736182847 7.568444797714253
Ni 8.62932770923869 8.37914705303906 11.052301252629942
Ni 8.152569671118828 7.6424587605865115 8.988049610833555
Ni 9.339433710500526 10.223882426004096 9.283115712453668
Ni 10.397976838986498 10.430802879842897 7.138619636376762
Ni 10.561928994781656 8.422849045825817 8.535755985967032
Ni 9.946671564022795 6.197443016441097 8.73678289525602
Ni 10.683998508078389 7.293801081850042 10.65638259312336
Ni 10.684594119601712 9.575703620336384 11.054700950954615
Ni 10.255447664545134 11.945715978197873 10.694090079659855
Ni 11.623602697107199 10.618038265897356 9.14742933940051
Ni 8.422359155209614 10.650923609710512 11.427710525771806
