15
Energy = -58.70206091 eV
Ni 7.814981183706683 3.6363186933153244 4.270426435283774
Ni 8.646897462624917 5.588973660518221 5.223361721552879
Ni 8.207650454061497 6.003677006985 7.455858135767254
Ni 6.81266557346884 4.491854480181096 6.252375369480731
Ni 5.499970710241557 3.4435207046430523 4.603050862925771
Ni 7.279496446073012 8.020374347636725 8.158110582046406
Ni 6.493003962577664 5.601805434506248 4.2426782191359065
Ni 4.452350786926951 4.896044945979926 6.185822926431123
Ni 4.193305017128056 5.146668006313845 3.7841013896826494
Ni 5.826442220168283 6.191737786473431 7.657051244283423
Ni 7.0320759779990025 7.248079608471953 5.910614370330615
Ni 5.244512031802856 8.342998664033917 7.0440370871540425
Ni 4.757659218656388 6.949549431701719 5.175290048200697
Ni 2.581045730668398 6.004806038486746 5.25246383471678
Ni 3.5346581563837036 6.794779624479697 7.231750005354481
