16
Energy = -62.43563219 eV
Ni 6.3775355362576445 7.322036021688086 5.896389035677897
Ni 4.550721768781321 8.47786867956906 5.19660725511458
Ni 5.248080406135331 6.478763209467197 3.9043960720574082
Ni 4.963265284864466 2.74003993392161 5.306344611059661
Ni 4.154484478746523 6.384872483478653 6.074585972404757
Ni 5.042936439571999 3.738488473246031 3.2126649748026392
Ni 6.371211163762248 3.527455424884137 7.136958365444281
Ni 7.769259292595057 5.612214569659956 6.745254896478092
Ni 6.832491899792055 5.060032735838655 2.891351106279727
Ni 7.17753752082224 7.511522868015577 8.065695063626352
Ni 5.6894753784198695 5.741854932842634 7.769578648597468
Ni 4.940653381293635 8.044131938651564 7.557077428369116
Ni 7.828698972706189 6.298377157712902 4.4870084800601875
Ni 6.110542500918431 4.763958970044041 5.202475689912662
Ni 3.604965393440014 4.633512398896691 4.709325082254456
Ni 4.1565052150484325 4.203074102671358 6.961926199435064
