12
Energy = -45.1473702 eV
Ni 4.181569952539433 4.517492851056162 1.958686792846221
Ni 3.3122887871403557 6.51573060908942 2.817203427461487
Ni 5.531877221957154 3.4259261582724565 3.4440851217418538
Ni 5.372556964153268 5.814517222355079 3.667288090134774
Ni 7.082903441649944 4.564200913259872 4.7059926975530155
Ni 3.558866671185929 4.5051374097682295 4.215983907283648
Ni 3.69595643272774 6.751806254078012 5.0604990331336985
Ni 5.613671737752231 5.825121344217571 6.0805051020364935
Ni 3.4168407257708417 4.987121519402867 6.522235767135519
Ni 5.183933292688383 3.58120913148845 5.779774408388473
Ni 5.064731555994051 4.382457160438074 7.980413014219193
Ni 7.19044256156408 4.334918771697233 6.972971983188588
