16
Energy = -62.97689006 eV
Ni 7.099143938784164 7.099826193503245 7.341920618376394
Ni 6.016671348253171 7.950603596214497 9.311333321360667
Ni 6.904658061050831 5.743010973019663 9.301976140834975
Ni 8.378464729562491 7.610882203136436 9.304346244917282
Ni 7.268618943088965 9.335202027312572 7.723100972314812
Ni 5.020723667444852 8.513917291896966 7.3034057630926235
Ni 5.078087163956633 6.12960602716736 7.7162929761521895
Ni 6.919047574418154 4.583717202261604 7.3084891242313645
Ni 8.953940263143604 5.840863872561253 7.706361614739926
Ni 9.372173483128817 8.20840101388936 7.307583501986525
Ni 6.376110260396921 8.302092307191245 5.439345862213736
Ni 6.399433752997551 5.866924676107809 5.448371488151384
Ni 8.517479095567957 7.107394438884053 5.452008045740289
Ni 8.364385025896627 9.48760972789869 5.6372561192134105
Ni 8.527041193828083 4.790192464936187 5.632542118799774
Ni 4.377816966649907 7.0035514511239025 5.639461554979901
