17
Energy = -60.47560905 eV
Ni 2.727194382332102 4.6801431224686745 4.207472641177467
Ni 4.435381952121666 3.148100425394624 4.569957892937857
Ni 5.245800368993883 5.252699402014046 3.1190931711103977
Ni 2.405650447569735 3.4262496902740143 6.068667586861593
Ni 1.808265272408983 5.780614619726618 5.963823641736224
Ni 3.4967969766762095 6.875302357550322 4.386403643859793
Ni 5.930555701046293 3.236417806594491 6.461384188248097
Ni 6.915147035039765 3.5479993675788855 4.370424420597733
Ni 3.795122059518218 5.061727369543882 6.608370323854945
Ni 5.84419981694474 7.697085732132383 4.203973047934309
Ni 5.902268485955124 5.5438694417888135 5.232154211449774
Ni 4.838851817586508 7.59743638894136 6.23151022733409
Ni 8.134140514870499 4.14457059099506 6.220948959982624
Ni 7.928440585569946 6.002498597937293 4.346622799096612
Ni 6.804242597870987 5.8552006864132435 7.566386603618839
Ni 7.2117981035866885 7.854006398530717 6.04910441460253
Ni 8.810391309559153 6.327039738123123 6.574371239042719
