10
Energy = -36.69085205 eV
Ni 6.2371951105030226 9.285815015425015 6.643113432255023
Ni 5.653124326201723 7.4510628672098145 7.840447837323578
Ni 5.724469315195297 7.579386651218949 5.310709598202148
Ni 5.306368426516154 5.401122189520347 8.728623630493258
Ni 5.192404189772268 5.351346725945347 6.5077777776691805
Ni 5.4164800100478905 5.610125990715425 4.272888029677707
Ni 7.901527257762101 7.736252934099269 6.57820513939039
Ni 7.368569165378615 5.511894068809689 7.7806135262071825
Ni 7.435684195102067 5.634640023018376 5.2532827162766615
Ni 9.223449999443222 5.897625529960124 6.5436103084276045
