13
Energy = -49.67379702 eV
Ni 5.851808270039485 5.529400739312024 5.3820183444608585
Ni 8.009575057305863 6.56972386365527 5.125191380896308
Ni 7.731340906638311 4.671459128901117 6.589688985347399
Ni 6.069631449094448 7.90759753014988 5.303109721884941
Ni 8.071602658388757 8.589119562744965 6.450124622063412
Ni 4.5189896871232555 7.004408791734065 6.821180645884906
Ni 5.927811683697854 8.911353981286197 7.479509011053309
Ni 9.07042773587522 6.5462378231908875 7.2359931311742525
Ni 7.739086453092003 10.188852287899563 8.089009338337672
Ni 5.609313981779832 4.779778794853438 7.60081601257929
Ni 6.718720668257055 6.739400935112315 7.250228408457493
Ni 7.941147252535578 7.99982750538953 8.773400869668412
Ni 7.723157699641037 5.545452559239994 8.882343031660717
