10
Energy = -36.57675722 eV
Ni 5.393976188535796 5.0572052632089 5.1854815122267475
Ni 7.567393570411216 4.259889166453419 5.5598326608443465
Ni 5.047961454025854 7.401587484386241 5.207306363164909
Ni 7.226155635468807 6.518296680770534 5.563400944275504
Ni 6.90272253894155 8.783137330820123 5.590725121879659
Ni 5.935348124643372 4.0131627439055615 7.2046439403024864
Ni 7.786660232963043 5.395206909079399 7.587360909853723
Ni 5.605082155764106 6.271281629964276 7.218846120409018
Ni 7.4498247068598795 7.731007666133498 7.6052467766065
Ni 5.283634583235518 8.53928237006952 7.247212805546059
