13
Energy = -49.70032473 eV
Ni 5.922148374143813 4.254127612671265 5.33599287445204
Ni 3.9998017525524268 6.826566694342392 7.554591041160878
Ni 6.824006062192224 5.875826998504908 3.8507069841739807
Ni 7.479002879246623 8.358649644150399 8.981671411002756
Ni 7.68789502584841 6.162649527773461 8.38199854435372
Ni 5.604518486725757 6.840755335857976 9.305551417526697
Ni 8.885032056924295 6.930361586702514 4.593271994477781
Ni 6.873361777171887 7.935527410151334 5.008079192873477
Ni 8.455898990561503 7.814129793132115 6.8222725339575225
Ni 7.479680528252857 5.808834937380176 6.052708185465993
Ni 6.133049426606233 7.673710485985873 7.230532104284263
Ni 5.665169179427168 5.218890951587635 7.497693450546273
Ni 5.089133643554138 6.398667281254748 5.483628448931693
