10
Energy = -37.2056887 eV
Ni 4.776923099999977 5.0326951000000735 5.315303099999921
Ni 5.831274099999952 5.167770099999939 7.476341099999996
Ni 7.173460099999977 4.8720761000000525 5.4986320999999245
Ni 5.794142099999966 3.240017100000094 6.272876099999902
Ni 8.418025100000001 6.632741100000084 4.780601099999942
Ni 3.9001140999999935 6.935594099999926 4.435025100000058
Ni 6.168791099999966 6.832278100000006 4.523610099999991
Ni 4.826679100000051 7.128607100000071 6.501642099999961
Ni 7.223134100000023 6.9678540999999745 6.685150099999953
Ni 5.88745709999996 7.1903670999999925 8.510819099999983
