10
Energy = -36.50086785 eV
Ni 8.125663851321612 7.109153809296823 5.847600114841618
Ni 6.499941671559992 6.902862727073807 7.504370994822262
Ni 6.245552003394953 8.526639434740702 5.8318105477607505
Ni 4.371995297055104 7.241297454122543 6.438541655688166
Ni 6.00131551404787 6.371169541182583 5.04413743251241
Ni 8.72259965739223 6.2384121181573295 7.8445334972937815
Ni 3.776899025073238 5.495178127908783 5.013217636840516
Ni 5.045699073372177 5.060912341356076 6.968912051940271
Ni 7.364038833074864 4.923481648450055 6.507133405809226
Ni 5.737946444072496 4.116063452913462 5.008948832806526
