14
Energy = -54.21985667 eV
Ni 3.785449266992067 3.0031079993648637 6.527028683432286
Ni 7.1387413131609065 5.162063217759384 7.655359235671961
Ni 3.518934778231484 5.292131554327751 6.4594141116980826
Ni 7.7151781667675206 7.402428825935181 7.141431237622406
Ni 5.665705811734128 4.339759978084376 5.914884207990587
Ni 4.953772395352239 4.345676652716506 8.094391877412605
Ni 7.175798834326756 6.0390011343533825 5.381907760108507
Ni 6.1158593589355785 8.177987976852988 5.569620566227778
Ni 6.664945797189546 7.199478748377392 3.4725776162073836
Ni 8.323360344681022 8.079895624689817 4.936665590013939
Ni 5.4029180779850785 6.560321559503148 7.13970026962272
Ni 5.974732925901709 4.93678718219218 3.578714329121771
Ni 3.927136009263178 4.125069537355931 4.434271898124052
Ni 4.729018796367402 6.427841885376136 4.785584493634253
