12
Energy = -45.20688798 eV
Ni 4.599542446051255 5.508151487205036 8.262893258457819
Ni 4.933049085294311 7.636796891724726 7.391504740824373
Ni 10.012449952818116 7.138475079395654 6.475932512363819
Ni 7.124615991170554 8.439677633252881 7.528953816744488
Ni 8.476432368429876 8.701387910718221 5.656693356773069
Ni 9.422064399211752 8.909906104057713 7.801656051385253
Ni 6.1958554886372745 8.057857659690503 5.408149870569593
Ni 5.521959504704798 5.848423137798042 6.121074941191667
Ni 6.899438111144715 5.117972821586658 7.8617436444229964
Ni 8.552327133247239 6.775590233262958 8.309001720421161
Ni 7.767007453968613 6.530239280916121 6.149224068649354
Ni 6.309541808479403 6.898702892165917 9.138095580956287
