19
Energy = -76.92996579 eV
Ni 6.309057415420211 5.201569749446453 4.124694029304528
Ni 6.234512855778448 8.974872803461263 4.846802772727799
Ni 4.915016564560372 7.017794690464179 4.803940608108148
Ni 7.560562808239839 8.394165924592398 6.757358971133794
Ni 8.706664674964955 6.314369543024361 6.716009081223684
Ni 8.530075843392801 4.905328173118471 4.8742930770700035
Ni 5.122585063563818 8.385920786225029 6.838430834224412
Ni 6.455027488440078 9.023872258091139 8.684780568750368
Ni 5.095312147172976 4.584533632602315 7.843738242033254
Ni 7.975026332320981 7.236716363245513 8.800346671517083
Ni 6.770515188307801 3.9660683525981795 6.155160305946639
Ni 7.368795579168934 5.03268688742952 8.30483307325807
Ni 6.334138778836202 10.387264979848233 6.745031798707652
Ni 4.533434891673384 4.700156048439868 5.533094138953134
Ni 7.574292672963848 7.073726952380613 4.700216701418542
Ni 3.909178872832381 6.427263772663066 6.968903746782292
Ni 6.3113379923797055 6.2277943340088555 6.502948865973994
Ni 8.980097540345167 3.9956263191650634 7.002196890066231
Ni 5.652996480082833 6.7821297079630956 8.671306698936629
