16
Energy = -63.1223067 eV
Ni 6.722392989174578 4.833524093488258 5.464527753049347
Ni 8.926678483552305 8.692384700140993 6.679134084897714
Ni 4.822007831695818 6.559194932591107 6.703272194449013
Ni 5.948207871075647 6.861811328472276 4.621621505976358
Ni 8.007629411955007 6.02775031623665 3.888000484528752
Ni 4.385750364010819 5.091988489377999 4.931582966494356
Ni 6.000472093163212 4.966501775990383 3.219280929923786
Ni 6.671787145587335 5.53289890158977 7.754709014303434
Ni 5.706925509194252 7.39709655324932 8.750486800121557
Ni 8.277880184830826 6.454595055757323 6.247139353950702
Ni 4.405936203594112 5.438559121653963 8.681887863440776
Ni 7.9252034465290455 8.206180617812764 4.639475298833086
Ni 3.0172035384988565 4.970462408662312 6.829375127040998
Ni 5.102166345213163 3.9870988029684593 6.934788895479599
Ni 6.631473064919344 8.053995874880597 6.614280687341056
Ni 8.014763751897581 7.413298423192379 8.407465459969844
