13
Energy = -49.4259961 eV
Ni 7.154485081912867 5.647944521916296 5.482750092653269
Ni 6.735618968745033 3.4849177633168456 4.738272736374325
Ni 7.229770700387403 4.345461958455228 7.338199260207664
Ni 6.967960108317657 6.763912645982956 7.455611226216626
Ni 5.4510814694984395 5.447551073644712 3.9480979686499187
Ni 6.214620206001192 7.612602624286296 4.6782257042089075
Ni 4.952045148533914 6.554682564563107 6.267122698220781
Ni 5.1762145111377444 4.200878075910183 6.23002605483022
Ni 3.898806948325191 7.122916642562494 4.172997771796278
Ni 3.294841044525976 5.159172299440136 2.962544083807174
Ni 5.311412412021389 5.371226094910266 8.234416713439899
Ni 3.2467811840992336 5.206698964657548 5.282195243160611
Ni 4.388841395336737 3.4428775366822046 4.151067956863632
