16
Energy = -62.9521601 eV
Ni 7.200579471393669 5.984550731388793 7.9161678054187155
Ni 8.629190082954786 6.57445175927439 6.0994827439859645
Ni 7.925874144851661 4.309811405809521 6.354799022477732
Ni 6.107204434707966 3.905754155341581 7.723182480269978
Ni 6.786368734885269 8.371236630734396 6.5379559634182955
Ni 7.601792697420059 7.641352455871224 4.245027994429707
Ni 5.6020027717133445 7.5309291987659845 8.569666834674257
Ni 5.588482751019172 5.361054284455417 9.512591431886044
Ni 6.344848956945109 6.337886432646733 5.765622646443878
Ni 5.8289251991216675 4.235055678013753 5.255967501969934
Ni 4.736771856407353 5.726787228586029 7.344321530445296
Ni 4.454009190960771 7.9994718257620425 6.619910478258127
Ni 7.918773111674223 5.256656393580054 4.221438470690546
Ni 5.341060702177094 8.160212527633183 4.463813042455319
Ni 4.128066433449706 6.19146269676135 5.095291827264735
Ni 5.847429535913104 6.032156824091052 3.4713885540636675
