15
Energy = -59.03698551 eV
Ni 3.7807978962416917 4.696210451973167 7.162051146102431
Ni 5.8288017493945015 6.68510962243117 4.527498374350916
Ni 5.884865562789565 5.234852281964338 8.204026849366644
Ni 7.957477000263399 7.5491716557978705 4.678947575296282
Ni 7.862648599805411 5.147865659544331 4.876822513063293
Ni 5.92608365874593 4.600916569629624 3.5484474221189197
Ni 7.784067242964109 4.347733223312604 7.103368184793113
Ni 5.810133203142362 7.647245109743848 8.288400268691023
Ni 7.1751494673831395 6.5415635321344014 6.684672998622568
Ni 5.804916452679521 4.552573881422809 5.923297746798233
Ni 6.187943324341195 8.50254569535159 6.046946404154569
Ni 3.938387673498736 5.236146727452181 4.793755568515034
Ni 4.640222964712234 6.735162983021371 6.5263038400631945
Ni 7.483821401093759 6.1890578566567 2.8434541118051953
Ni 3.9447603754853025 6.343921322104722 8.802083568799699
