14
Energy = -53.43901344 eV
Ni 7.092552647876818 8.72704720280989 7.092552647876818
Ni 5.45805809294375 7.092552647876818 7.092552647876818
Ni 5.945763235576269 8.239342060177375 9.134489127692321
Ni 5.945763235576269 5.945763235576269 9.134489127692321
Ni 5.945763235576269 8.239342060177373 5.0506161680613175
Ni 7.092552647876818 5.45805809294375 7.092552647876818
Ni 8.72704720280989 7.092552647876818 7.092552647876818
Ni 8.239342060177373 5.945763235576269 9.134489127692321
Ni 8.239342060177373 5.945763235576269 5.0506161680613175
Ni 5.945763235576269 5.945763235576269 5.0506161680613175
Ni 8.239342060177373 8.239342060177373 5.0506161680613175
Ni 8.239342060177373 8.239342060177373 9.134489127692321
Ni 7.092552647876818 7.092552647876818 10.831734
Ni 7.092552647876818 7.092552647876818 3.3533712957536355
