12
Energy = -45.60123347 eV
Ni 6.155537330353873 8.108244049474138 4.412622860545849
Ni 6.234835048882291 5.798322404006422 4.454027086014543
Ni 6.248484118546657 3.5910438448897426 5.094223801574357
Ni 8.23324240095469 6.999074646822951 4.505402274738332
Ni 7.886750015045133 5.13383449520406 5.98549745289856
Ni 4.579545801239104 7.029051319598877 5.74235625252938
Ni 4.190904443550539 4.787632628956675 5.134680810832711
Ni 6.908845663072706 7.225127456776558 6.411356294070223
Ni 5.182669513965631 6.886890326558074 8.014325645239204
Ni 3.3909175411460004 5.607386112514163 7.188488097869062
Ni 7.324999454488028 5.870673538304337 8.220610292482883
Ni 5.682001509902601 4.981452018042093 6.855141972352991
