18
Energy = -71.16738268 eV
Ni 6.586136086385419 5.318899570747328 6.656756227949325
Ni 7.355599989697059 6.107542690944967 8.808164911022148
Ni 7.8710644133955 7.525721284866108 7.078788183341631
Ni 7.433772025615246 4.329874993216097 3.4855107389292
Ni 6.766924258045697 8.362298519868093 9.141446000477693
Ni 5.9707258613744765 6.110777588494786 3.7987739997624366
Ni 5.61590697758376 4.124652466198365 4.937496951182002
Ni 4.489100387152578 8.969268469676775 8.493115866049079
Ni 5.509074183508249 7.066641339934593 7.706165591661333
Ni 6.829825137325751 2.250384619532876 4.381174821461395
Ni 6.333143095191807 9.353815194448378 7.048753028772723
Ni 4.264965835647259 8.531543935381686 6.16500086838477
Ni 8.005172735067125 3.7492699649068917 5.646718731262946
Ni 8.023740835048956 6.096577249422382 5.018126212496686
Ni 6.298663460569177 7.725851597995341 5.36714530715799
Ni 8.885418535642021 5.3502691610994155 7.1241987956706065
Ni 3.212157374144993 7.0786895015688724 7.5767142442224085
Ni 4.513690139214531 6.098197307747579 5.793209441965371
