12
Energy = -44.96598334 eV
Ni 5.084958520383299 5.095697776400294 2.914537553277737
Ni 4.937302860333508 4.9269721757088485 5.238153844787543
Ni 4.8252559320532615 4.830842839747702 7.548553722213933
Ni 7.016016577158161 4.781918235123321 4.243163029293809
Ni 6.935747759330235 4.862634026449112 6.579097962100615
Ni 6.743818595763408 5.0753888131592575 8.875582793523812
Ni 4.785107314988473 7.017812233228568 4.248427225171515
Ni 4.868785199591018 6.939949619875277 6.582968676220075
Ni 5.063647041821709 6.727360990571618 8.887117869790853
Ni 6.714814193478163 6.706224360374302 2.915093024871526
Ni 6.863814339703144 6.875966161709501 5.236677091717158
Ni 6.978153766317051 6.976654868573737 7.548049467471907
