19
Energy = -76.69984845 eV
Ni 7.56374647293429 7.611470549229948 4.345987947132965
Ni 6.616994158432597 7.105867998107692 6.496191115160651
Ni 8.750567656175154 8.12990322196086 6.303686945697748
Ni 9.368927170821076 6.298106567794514 9.653681529695453
Ni 7.826016967480515 8.232945577245035 10.225055140081462
Ni 8.533348427249603 4.823237826686244 7.9772336265418
Ni 7.190833118061065 8.942523837141385 7.98813429565642
Ni 6.739500028315581 9.404772070797868 5.734299704926605
Ni 4.464195828739683 6.146294586684039 6.030036782255794
Ni 4.885697733398123 8.44464577799399 7.114438777365362
Ni 8.39724471525328 5.770253608898986 5.77104840069864
Ni 5.218519557635551 7.91662432078567 4.714950022032803
Ni 6.415563639771199 4.852662195799364 6.9347513304912916
Ni 7.235399377291741 6.560502227026639 8.753126932841308
Ni 6.277076000620781 5.6513937124621885 4.637539307479739
Ni 9.404815313600103 8.31376807105373 8.532854828736328
Ni 5.569952324219773 8.17360055205837 9.461826148631348
Ni 4.973042994262538 6.317254937567824 8.253521475835646
Ni 10.056385798888428 6.448142523467787 7.3484063923098235
