11
Energy = -39.46063729 eV
Ni 7.130028416066848 5.722361872914089 4.953675250725155
Ni 7.02391391149155 8.057501151397013 4.922291306322673
Ni 5.740888804193093 6.829944894514688 6.480162260138989
Ni 8.945787805752401 7.009001831643708 5.649090629411514
Ni 8.26844890560587 8.997862743056961 6.6687804930166354
Ni 9.298642178920751 7.300203891001055 7.934486084467145
Ni 5.922429095092922 9.16862436071024 6.657450418279274
Ni 7.682772719800487 5.764017540452027 7.223594408984075
Ni 5.824397303487751 5.913299043394762 8.628657490130097
Ni 7.029415733383626 7.8169855559068315 8.214763228565351
Ni 4.7450485331857095 5.031970521989385 10.278821836940102
