18
Energy = -71.17127906 eV
Ni 9.440633160806845 7.407044369566522 4.851141637740948
Ni 8.928765464075687 9.135160540569377 6.314270515130687
Ni 8.826588896617551 8.59890423687159 8.61742482469205
Ni 8.624557370259257 6.908551738687677 6.986472294921339
Ni 7.615473910182282 5.894922094269425 5.050733226508082
Ni 7.252633897770041 8.184820298076108 4.902355244306375
Ni 6.823192119003606 5.395658512565378 7.199721009423605
Ni 6.884382991990129 8.418260391408747 7.310251524901203
Ni 7.441184021098807 6.756634717050927 9.041696506681939
Ni 5.230323849939978 7.1777185538312835 8.434661720610507
Ni 5.626742969475073 3.409379192501782 7.377422007428485
Ni 5.822634142275562 5.010866893978987 9.22594597555152
Ni 5.105796229783765 8.78226164331356 4.570593873779433
Ni 5.730696352548697 6.669270321372601 3.8186905252492407
Ni 5.397383150232643 7.070898118828195 6.07263996794984
Ni 4.372526496785041 5.334830478532423 7.321841388272749
Ni 5.547394931214143 4.769683856557883 5.26716485803016
Ni 3.771782676515457 3.5117636029868717 6.057500828770202
