15
Energy = -58.18535179 eV
Ni 7.152314710488123 7.133350894109643 5.413740298426011
Ni 4.750228527812183 6.910436552844051 5.115828464386837
Ni 6.7892949464477965 6.078806278591615 9.320795902384708
Ni 2.6898285487619495 5.583514702731864 5.029492790033038
Ni 3.7554006544282754 5.7304111470045465 6.996846413520973
Ni 5.6967053761856326 7.053718686543353 7.343045773222689
Ni 4.918608482675233 4.654083820949848 5.231283298552415
Ni 9.370671512095653 6.210388099220695 5.68511228127088
Ni 5.9558353120796985 4.805206580170503 7.414770467916752
Ni 7.933316030025194 6.1135912298969615 7.401505493567899
Ni 7.330004443485231 4.875629292539463 5.40448553599047
Ni 4.016881015109405 5.655358765523351 3.1691664861886744
Ni 4.523367688650341 5.878220563058585 9.098168165266811
Ni 8.43325219883408 6.075216072035681 3.6033460622782534
Ni 6.20612640397791 5.8656485926884345 3.5656209252794224
