13
Energy = -49.92358188 eV
Ni 6.547201263208546 5.338608261132969 8.567825043975821
Ni 6.385191242441929 4.215658050664515 6.392124505737721
Ni 5.424020356666042 7.468971677691335 8.277082710436497
Ni 5.119888359136892 5.589578131847789 4.799110975734252
Ni 4.5576825917792 7.620373780110064 5.998124064507749
Ni 8.429584196221098 5.379415372758583 6.994664056231694
Ni 7.57033537554974 5.524884588607891 4.723590458115106
Ni 7.848185659385074 7.395164517360086 8.163318748748194
Ni 6.449856832672232 7.63819318801595 4.474698335682999
Ni 6.611175919340457 8.793048182049704 6.603739717999818
Ni 8.513585213301065 7.518539900449636 5.797328120219781
Ni 4.518298559195455 5.500517144168225 7.1861581796506435
Ni 6.500618577098813 6.492671351139788 6.497859228956011
