14
Energy = -52.3731669 eV
Ni 7.391609171078942 7.62376704219526 3.8649808691691443
Ni 7.043860941571434 5.018774861762809 3.877336947894328
Ni 8.180207881079705 6.2060178279953595 5.364974146452195
Ni 8.063110787730121 8.446135628637226 6.348069008495394
Ni 5.920841674825426 7.9512414543058965 6.0406530317942995
Ni 7.479799925130524 6.3032072716928935 7.830725828983995
Ni 5.420798370326083 6.560511162628661 3.8969828132316113
Ni 6.59315389147825 8.331395784613342 8.592402730402274
Ni 7.47064290242515 4.095096253397132 6.376803153860892
Ni 5.525332832428763 5.1041962875031865 6.057882193995359
Ni 3.914713757741532 6.7755425047947 5.683996871303501
Ni 6.071475829333158 4.634966150296058 8.624807717751352
Ni 6.298432544169737 6.478768919731433 9.939546892924604
Ni 4.9360050055638744 6.66344931101899 8.131276460958917
