16
Energy = -62.38116257 eV
Ni 7.505099625153611 3.615714988339412 8.155550009969371
Ni 4.869569185289382 5.918743118338807 7.9191826943185335
Ni 3.7931796028846474 7.2819734670841045 4.443489900099473
Ni 6.144131965708207 7.930832900954656 7.420748557067245
Ni 6.043875973421078 4.4150783750688865 6.455878070315581
Ni 7.441514616778862 8.145803548767464 5.3645325990534625
Ni 5.967205200406583 7.767246364818755 3.545081145794591
Ni 3.7969530754458694 5.362946244271491 5.931588778954364
Ni 8.182009977602508 3.567873039015045 5.963143720410677
Ni 7.934079808943492 5.8601441997433685 5.724613345237052
Ni 5.69743522744132 6.5459461319332455 5.497871287938125
Ni 8.600699583739708 7.480560843813083 7.28640022300811
Ni 7.149415321768739 5.875696485368194 8.011980507228564
Ni 9.24458106413866 5.075155386054734 7.48304139763954
Ni 5.223889688587056 8.932778831260066 5.42467098384694
Ni 3.8119798321597314 7.62834268040249 6.785926788662264
