12
Energy = -44.89482601 eV
Ni 7.018002750534941 7.018002750534941 8.253839294920377
Ni 5.164688071350258 10.419117000000004 7.018002750534941
Ni 8.871317429719625 3.6168885010698864 7.018002750534941
Ni 7.018002750534941 7.018002750534941 5.782166206149503
Ni 7.1750421208917885 4.668603504868924 5.868809296543278
Ni 5.427124406091988 5.8087650562113815 7.018002750534941
Ni 8.787003801675827 5.915186189266552 7.018002750534941
Ni 7.1750421208917885 4.668603504868924 8.1671962045266
Ni 6.860963380178092 9.367401996200957 5.868809296543278
Ni 5.2490016993940545 8.120819311803182 7.018002750534941
Ni 8.60888109497789 8.227240444858497 7.018002750534941
Ni 6.860963380178092 9.367401996200957 8.1671962045266
