15
Energy = -58.40278927 eV
Ni 6.1064785534586825 5.081788487957527 8.470522833590975
Ni 4.203477138268525 4.992023396948882 7.135093599446895
Ni 8.088060894373738 5.096560249593884 7.249056876066094
Ni 8.236293209610206 4.605407087277577 5.0078743950609494
Ni 6.113030609196953 6.096339323107262 6.271088972597942
Ni 6.237279239902442 3.8813945640204808 6.183379988907085
Ni 4.398397627345723 4.854290017110645 4.844546151974371
Ni 6.2553705746292625 8.446606768279999 6.527128560024167
Ni 7.319598685700214 7.120555889288674 8.115031252261446
Ni 8.057926898092866 6.958269616300775 5.635112221630543
Ni 4.190340772700564 7.118811021920861 5.653041154714597
Ni 6.423496258778702 5.53147682577418 4.006698313831882
Ni 6.1078453272318365 7.779874694402104 4.339154119217897
Ni 4.875675751100723 7.131918146728017 7.983272388951338
Ni 4.384475190088883 6.607908174666278 3.323523155384842
