13
Energy = -49.58449201 eV
Ni 7.082335894876964 9.342740361390124 9.14773797718668
Ni 5.951818254734389 5.8414588162361385 7.31284878909912
Ni 5.951818254734389 8.323212973517485 7.31284878909912
Ni 5.935158773057188 7.082335894876964 5.299137182412212
Ni 7.082335894876964 9.121728502933935 5.31249212000234
Ni 8.212853535019534 8.323212973517485 7.31284878909912
Ni 8.212853535019534 5.8414588162361385 7.31284878909912
Ni 8.229513016696737 7.082335894876964 5.299137182412212
Ni 7.082335894876964 7.082335894876964 9.034104390709999
Ni 7.082335894876964 5.042943286819989 5.31249212000234
Ni 7.082335894876964 3.7087877897539263 7.133066263545943
Ni 7.082335894876964 10.455883999999998 7.133066263545943
Ni 7.082335894876964 4.821931428363799 9.14773797718668
