18
Energy = -71.91387052 eV
Ni 4.517544750515181 3.2832024864701 7.649864848184808
Ni 7.122452055639263 5.6081497905158315 6.008774817718552
Ni 5.732323597687682 6.848248610953921 9.422466498428863
Ni 6.515536900724944 8.822535696795333 8.10716693061754
Ni 4.081557604617461 5.469251020188265 8.44281801167526
Ni 5.342585717799697 7.083808967164426 7.154525796441145
Ni 6.94462140389668 8.46469257570456 3.903111907321188
Ni 5.522279532129099 6.861409619349029 4.771580037300253
Ni 5.293427823098035 4.651365867232128 4.008414933611227
Ni 4.5485958473357435 5.118442406098724 6.157660671678232
Ni 6.223411711541113 4.817710584553637 8.036569057830969
Ni 7.5344027106902125 4.356254528144168 4.138741978938216
Ni 8.373995366604586 6.6501852719351 4.359833349800762
Ni 6.124659775065096 3.455019378038932 5.93243780635519
Ni 5.631924140429923 9.012103133264183 5.858515088694395
Ni 6.668157461364423 6.235810437192225 2.87923916670179
Ni 7.603917640703728 7.950742671103855 6.149181326326944
Ni 7.614967430074623 6.7162027208473445 8.09863189866305
