15
Energy = -58.34129737 eV
Ni 6.56189472256473 7.369338631965982 4.224966478387565
Ni 5.036419318399287 6.969099063816182 5.990345854410518
Ni 4.363725942686766 8.358037727572263 4.2371122605796225
Ni 7.317710667848778 6.663435099658039 6.442676650292404
Ni 8.42156997710781 5.931012978334203 4.540889126014002
Ni 9.523606437608185 5.906095392566058 6.532604865775077
Ni 4.5691862507125585 6.141919016461399 3.6846701187455926
Ni 2.862862086602631 6.6976260629206665 5.156620387161913
Ni 6.2607132521841 5.075395210648164 4.854708395810708
Ni 3.998149517782595 4.571114882292324 5.4346462775410505
Ni 7.819403111438926 4.360578516591094 6.46324649317676
Ni 3.4140000848417436 5.7893189829535725 7.271202303766446
Ni 5.699244828875159 5.092690469217938 7.306616894924819
Ni 5.826640751935583 3.1269649348206787 6.137731525837004
Ni 3.9692829766610878 3.5078805045977766 7.5351291277981
