12
Energy = -45.32441184 eV
Ni 5.509036573604444 8.965716702830095 7.219285856914543
Ni 5.64362238183785 4.228112765589569 6.919204752400466
Ni 5.461285759965038 6.612385616487146 7.20539965958675
Ni 7.403520900830208 5.372042445124449 6.025741942148486
Ni 7.1411494948931 7.733240376210573 6.040489258934808
Ni 4.729468856812869 5.538515022349183 5.219900652459154
Ni 4.924949994643018 7.862842452338868 5.240706123981761
Ni 7.106468637397302 5.421888886075459 8.362671781318337
Ni 7.098032706311259 7.812514266622074 8.431682385324496
Ni 6.5081114429542195 6.398074777499271 4.134567648487858
Ni 6.318627220321783 4.014036861763981 4.521559351245493
Ni 8.803914985968888 6.688818778775613 7.326979540801034
