17
Energy = -68.02855581 eV
Ni 6.578450698288307 6.235029940720688 7.994176368583464
Ni 4.517966416044007 5.082985949802565 8.48478135518237
Ni 4.729782015478068 7.439986351044418 8.718084981458036
Ni 5.939515884707211 4.272676104557307 6.7169811056586255
Ni 4.302146095191987 6.466448700596722 6.6365712192688875
Ni 5.908553488647906 8.2925759892782 6.846320731744187
Ni 8.228141117811402 7.45867804158039 6.657557186897272
Ni 8.175034310051391 5.044995473128961 6.589793325640571
Ni 6.468354208811077 6.3353841643518045 5.647692130354641
Ni 6.410871332628413 6.438456178371574 3.3317573998150003
Ni 4.6831026398535 5.23627276957792 4.579947681314123
Ni 6.952354529971606 4.3247209442817525 4.500800519745417
Ni 4.814649535266705 7.670232032146237 4.665803787101127
Ni 7.162797579072036 8.336594175436561 4.725570628679402
Ni 8.471381021799719 6.263302814858548 4.498072739534706
Ni 3.635383902708699 4.1593106741972266 6.466840597001175
Ni 5.058000779702133 2.978835252103909 4.975733798054912
