15
Energy = -55.71969012 eV
Ni 7.819840158251904 5.477254639434294 4.281129404114251
Ni 4.523970128083537 5.3989856097664655 6.595715734634348
Ni 7.686062984938281 5.467406791755245 9.096002063972803
Ni 5.619760159753034 6.648683565635469 4.557313194872359
Ni 6.717869374632343 6.6485679001080396 6.6652786996848885
Ni 5.526863307672376 6.655268779044701 8.655768909144262
Ni 7.705171212965278 7.792589276205763 9.100806065783916
Ni 4.558495882369309 7.9141684022591114 6.592225572606304
Ni 7.843426867532103 7.82715304634107 4.265936622541254
Ni 6.361032410669722 9.019362124684035 5.44022375694763
Ni 8.260752026803756 8.724203914029173 6.667746731423775
Ni 6.293802183670047 8.990254444807412 7.816956715536307
Ni 6.243489599220806 4.29335654302418 7.820880730750498
Ni 8.224226357392038 4.5160781665469365 6.6987093778087035
Ni 6.327479021725493 4.338908472038004 5.457548095858596
