14
Energy = -53.65821121 eV
Ni 6.909741482897761 6.658720137327705 8.367518226211036
Ni 5.773181792075322 8.485179987486504 6.935636016714861
Ni 7.774276334023187 7.497077296582464 6.402968144764533
Ni 6.86853942580066 5.328376674630152 6.3787366810115405
Ni 4.668662332835875 6.699438963914536 7.920933440328097
Ni 5.737619399338026 4.628988339428635 8.293892378217546
Ni 7.85650434583648 6.366062699470347 4.367653788778576
Ni 5.675931478420675 3.325248045477143 6.154001923396734
Ni 6.46629563722736 8.303724569266077 4.665784136412905
Ni 6.772004006807516 4.307756979074967 4.281023484935349
Ni 4.00679660708962 4.787295440346287 6.72431740728101
Ni 5.152104833380136 6.620057365878444 5.616963943492062
Ni 4.517301867396222 4.641754710819555 4.482146634064358
Ni 5.80298493225959 6.332263265685164 3.3903682697796627
