10
Energy = -36.81198346 eV
Ni 3.9864245084916985 3.050684975431688 3.4941665350130027
Ni 5.1616437109551 4.752289461311991 2.6416891655356824
Ni 2.8182605028189145 4.993622087802968 2.746029023355137
Ni 6.351085378490305 3.028417955836995 3.6939999255753215
Ni 4.277451424234098 6.340717673398029 4.04907591199809
Ni 6.295236348686959 5.246699150557008 4.6098081098590775
Ni 3.0375506345134275 4.580393624206816 4.991961248827564
Ni 5.080904544460991 3.522166606212621 5.53364708411092
Ni 4.6700488596857435 5.725843374288565 6.27649187368632
Ni 3.4934939320668223 3.9312649353573836 7.1352309664426725
