19
Energy = -76.6864877 eV
Ni 6.001260989510066 9.207744967772197 5.647008845067056
Ni 8.168046117521918 5.954670771680561 3.9537718887027107
Ni 5.440578461104674 5.885115149865855 8.987410487161586
Ni 3.7141162772048046 6.718715517731373 7.500637767849311
Ni 9.288356050890666 6.686263018161608 6.299862183387155
Ni 5.782852520211746 7.871925814107381 7.662134091816549
Ni 7.600362284764245 6.339206215406394 7.952008894551186
Ni 6.670667117714528 4.083472123343901 8.07404547346897
Ni 7.858006314265285 4.818953965424971 6.108969987299616
Ni 7.146547788328871 7.151059470306226 5.692163056295647
Ni 7.987767402833691 8.600901360159773 7.201270093111714
Ni 5.967356317831254 5.428499038482321 4.372853309050283
Ni 5.893230670162933 3.451234911957156 5.888131510195208
Ni 6.39295283874702 7.682471732158391 3.6419493440586015
Ni 4.714256597307779 7.3202804197810964 5.315883754804413
Ni 5.535397095304965 5.5781839441991 6.686022022729377
Ni 4.268065040820757 4.127723323546617 7.84916362750607
Ni 7.4470976131794355 3.6512926911264314 4.128205350406525
Ni 3.9072401341189007 8.95766413414058 6.758228425508606
