12
Energy = -45.12853752 eV
Ni 5.8087778942834305 6.916134104869318 7.536779288499959
Ni 7.730814129832101 6.0746083924085985 6.500503632041192
Ni 6.72410221040073 4.836688075716931 8.325380547273195
Ni 6.033510888452477 7.094218562314686 5.185750973993935
Ni 4.433767602017236 5.2125624345685235 8.188981452733401
Ni 3.9590002827943556 6.465395227250254 6.093477273886608
Ni 5.595386435471035 4.757368927323307 6.242721516456715
Ni 4.107772477801755 7.52150330725691 3.9250559893646244
Ni 7.69409247924972 3.8045064465140244 6.391462121254433
Ni 7.10531069699443 5.067027954653439 4.4561743753397876
Ni 4.71501631396568 5.301490811538709 4.143246883807146
Ni 6.1022718325542336 6.647611672821343 2.9090555812793903
