18
Energy = -71.71496813 eV
Ni 4.6700322183457095 6.430670446581643 9.099473585940913
Ni 4.747406611490773 4.144372455395221 8.847175879250006
Ni 6.789745168705941 7.2333455540268305 8.823319706722456
Ni 5.079660553263169 7.850957933223028 7.245664277874471
Ni 4.684293072714269 5.515908394843155 6.929140260669401
Ni 5.664122378597509 3.2562160432887737 6.922131992788433
Ni 6.710167238305077 5.116415692207745 7.969722000064006
Ni 7.321568626876434 8.816071844110233 7.287433889664833
Ni 8.51534863803801 6.6758084721114805 7.1750247574361214
Ni 6.672385988422838 6.764080821266469 5.937085556207453
Ni 5.058395882970853 4.359351672968561 4.9799113219932405
Ni 8.56027927202144 6.2018370698569045 4.660190652332264
Ni 4.8060416356963165 6.775796095010379 4.727701030923674
Ni 8.389365934197412 8.44301786217753 5.3047404083215985
Ni 7.299783071178459 4.544476141506444 5.756945700351191
Ni 5.965928990094436 8.940199844576986 5.345096409522204
Ni 6.539649824951963 5.461182761422081 3.6426125375395273
Ni 6.935266135023021 7.706066726067742 3.636929654876248
