15
Energy = -59.01327959 eV
Ni 4.835882323462928 5.73953736791285 8.215347586076474
Ni 6.890045206288709 7.748911774968755 5.5884763027042546
Ni 6.930164755706858 6.27573097680815 9.25221513225986
Ni 9.022704714949855 8.608656850471991 5.7455507924762035
Ni 8.916589678487076 6.209486114696618 5.924141168787324
Ni 6.976992958989981 5.661241656623967 4.5979269491532975
Ni 8.832045145436565 5.384208796732935 8.144892120766306
Ni 6.866162528958609 8.697983598634462 9.347820151664969
Ni 8.231769322965125 7.581703667133486 7.74691992362763
Ni 6.857456996199859 5.604389817510745 6.966642270125754
Ni 7.248362597618012 9.550505068465753 7.116343477388993
Ni 4.995124129615025 6.310017780793159 5.841057420566853
Ni 5.696311417812704 7.783128756500134 7.582229520359332
Ni 8.527575822264202 7.2706995396328695 3.903478729236366
Ni 4.997280262104521 7.398266429597001 9.851426651288579
