14
Energy = -53.8169256 eV
Ni 6.6682509113020085 6.715558209293997 5.520483186740445
Ni 9.054335220348424 6.7192027509850965 5.556702302774756
Ni 4.295111690567508 6.738757973064823 5.711806181862027
Ni 7.906317652915637 8.770366591643143 5.606801165325161
Ni 5.500015551440483 8.775581184841327 5.659124468294241
Ni 7.8293421781466845 4.6410136454519 5.584266563539546
Ni 5.472858707655754 4.6477402671962675 5.684836870974758
Ni 6.748175538691792 8.160649654020334 7.540904883623206
Ni 9.058304475171782 8.026862747392556 7.512538071409327
Ni 4.432686911527934 8.071924845344357 7.634314520444293
Ni 7.988081980268361 5.973482924554006 7.491588080771842
Ni 5.493607066647749 6.003038173148216 7.593067450264141
Ni 6.719568881303583 4.0339543823493695 7.567574621875784
Ni 6.832809821541975 6.721333158484561 9.335458219630674
