17
Energy = -67.52112163 eV
Ni 4.8728157652824855 7.903739191632056 7.694141982836856
Ni 3.4661015104047714 5.91736636185483 8.29774603630289
Ni 5.839765398315394 5.915249045670457 8.426003309116444
Ni 6.91173093193546 7.057138721499736 6.645102099519424
Ni 5.375931230732417 8.165019378685248 5.357610325016899
Ni 2.917761025650289 4.553959904310363 6.2563195454455665
Ni 4.73796753410936 4.0340503907634595 7.615431140333692
Ni 4.567100622985262 6.1290616041311194 6.289916543721277
Ni 7.542173616825035 7.7656724869555305 4.389426066982251
Ni 6.7913067134489955 4.682555283543271 6.648139086663995
Ni 6.038144677406025 6.057156461565065 4.472138507685939
Ni 3.770885449176055 5.391436357691747 4.169847159813901
Ni 8.378271328818244 5.78373634127789 5.285475656984164
Ni 5.044887286122662 3.8443126824003637 5.267997926521532
Ni 7.765515438450551 5.689536466012774 2.9935274994483145
Ni 7.282182455837353 3.8986902050354795 4.474646781184374
Ni 5.601248101888988 4.41560594828375 2.949143999508947
