16
Energy = -62.79328991 eV
Ni 7.9434473541056905 5.9528522873484695 6.647829555650554
Ni 7.478906575163398 6.83242619356234 4.169402281150525
Ni 5.818849261853701 6.878444954435126 5.8393079582473595
Ni 7.692184312443071 8.346371986993313 5.992620762026272
Ni 5.636183535446538 8.84903009907869 7.082480326994733
Ni 3.5042102268701654 5.538347604861044 8.28644822291758
Ni 9.529911621324533 6.918611917800095 5.258816077379419
Ni 7.129718057496345 7.5149927324967205 8.24846424827674
Ni 4.854466700410119 7.44941599107976 8.862566400585484
Ni 6.617861643367122 4.087253558393787 6.238269234589132
Ni 4.338200151355816 5.008044349707072 6.124142707401044
Ni 8.322378007144648 4.788302811718366 4.701511992084899
Ni 5.906612272828004 5.098688783636697 4.347865316428829
Ni 3.7995387142552093 7.296981586893324 6.836629033649707
Ni 5.794088559119808 5.593410822404713 7.847505389949736
Ni 9.313485784809458 7.6735528347876425 7.483715296265652
