16
Energy = -62.46871904 eV
Ni 7.833523781560232 9.05973549143353 5.669198209801902
Ni 5.900507483808678 8.940554590220204 7.220932761809689
Ni 8.620818266208298 5.434107201342546 7.775263547504928
Ni 7.480418218783713 6.784262082903577 9.201779093502465
Ni 4.855501989067368 5.218842259307773 6.849264951107227
Ni 5.8285791269047476 8.280056958825064 4.915292690736173
Ni 4.235591948743835 7.395144489860498 6.33883223153464
Ni 7.684615987903888 6.788329205011862 4.722440849369374
Ni 5.21631076241647 6.933791774427859 8.49115030261408
Ni 5.412660321882052 5.994789037089091 4.744615272094089
Ni 6.740882269507951 6.883851012147589 6.800524469586749
Ni 8.149457717654398 8.632528708961136 7.9941111048064535
Ni 9.193085875385814 7.2727588929878255 6.499529377364308
Ni 6.4275357205692725 4.774348695219024 8.437333078053639
Ni 9.796675079549328 7.175508568419913 8.806060369674503
Ni 7.080091385362294 4.787538697973265 6.047254103721859
