13
Energy = -49.65841766 eV
Ni 5.432641509391223 8.574346762576385 7.848091185270306
Ni 7.368383766022387 6.187637450238411 6.4206531331257946
Ni 5.406872352742596 7.368383766022387 5.832965320824129
Ni 9.304126022653561 6.162420769468386 7.848091185270306
Ni 7.368383766022387 8.549130081806368 6.4206531331257946
Ni 9.329895179302333 7.368383766022387 5.832965320824129
Ni 7.368383766022387 7.368383766022387 8.553268570156451
Ni 9.304126022653561 8.574346762576385 7.848091185270303
Ni 7.368383766022387 9.705796123996663 8.423001088228562
Ni 7.368383766022387 5.030971408048424 8.423001088228562
Ni 5.432641509391223 6.162420769468386 7.848091185270306
Ni 3.590592532044776 7.368383766022387 7.2450582813478865
Ni 11.146175 7.368383766022387 7.2450582813478865
