11
Energy = -41.41831156 eV
Ni 5.99113400000011 8.386290000000113 5.132175363636564
Ni 7.586994000000132 6.63339700000008 5.0969623636364885
Ni 4.8008240000000795 3.9927030000000365 5.009894363636441
Ni 4.413029000000072 5.366611000000111 6.903041363636526
Ni 6.738289000000009 4.766256000000115 3.907020363636541
Ni 8.177084000000173 6.007238000000044 7.30717036363652
Ni 6.633606000000066 4.705214000000053 6.204554363636406
Ni 5.217218000000147 6.245485000000106 4.797170363636509
Ni 6.239186000000141 5.233895000000038 8.409004363636344
Ni 4.053393000000119 7.613628000000062 6.234858363636402
Ni 6.14924300000016 7.049283000000215 6.998148363636584
