11
Energy = -41.42794559 eV
Ni 5.845906777704583 8.317391485815193 6.465694778651192
Ni 4.005786218530207 6.851738393049905 6.227433944304881
Ni 7.862768374434132 6.99634120072162 6.669539080493576
Ni 4.801368082547064 4.629963262433769 6.266444360656009
Ni 7.16123263045573 4.689708286299794 6.534980373962698
Ni 5.968008366750443 6.281028678118818 5.170057307128173
Ni 5.68189876001872 6.223010630407869 7.674032194993759
Ni 6.926735731923198 7.951045674291901 8.538055966502535
Ni 7.729966823840951 5.73595477484294 8.58935418133155
Ni 7.370642054066182 8.033399923009148 4.67514477846456
Ni 8.173634674099217 5.818366185379851 4.717211527881759
