17
Energy = -67.44247273 eV
Ni 6.751010104986 4.097656577395947 5.182752222851135
Ni 5.99194872742163 7.6361458814151115 8.853024148903161
Ni 6.4741319364441745 6.458683750298051 6.460405013952918
Ni 8.068010004570358 4.973954712316753 7.071342084151938
Ni 5.838059922919064 3.9612446073409306 7.299246025064963
Ni 8.384949109040159 5.658840409623447 4.729631355173029
Ni 6.551401765391321 5.395736459483852 8.956136047951832
Ni 9.099267122918404 7.10381335001193 6.384942359722067
Ni 4.571178090870333 4.7613067319816125 5.531733929897533
Ni 7.83564294072442 7.901002567843355 4.624660278467966
Ni 6.044865692561153 6.257547838879593 4.251836411453377
Ni 8.178489011566667 6.968233785404407 8.496342635064678
Ni 4.5875014709214295 6.046398197408979 7.6275915490777635
Ni 7.184709100477649 8.55434710380495 6.906105318692249
Ni 4.73502125876128 8.444558058052422 7.096856996696515
Ni 4.023982340189231 7.000373758193109 5.437377205166391
Ni 5.657114352712095 8.57516869023914 4.980759719873136
