16
Energy = -62.87487091 eV
Ni 7.142090746654031 7.943869289100393 4.354720005128605
Ni 7.089289828319136 6.955471075363405 6.471326808911399
Ni 5.180883869147345 7.229630791383431 7.991618087225581
Ni 5.002207247663413 7.696974642620461 5.594673801753826
Ni 8.40441544661903 5.946412712606523 4.7938544800033895
Ni 7.677321520835858 6.328964864846009 2.655989204078346
Ni 5.993182954070397 5.982045837834456 4.238604663973219
Ni 3.1972094418059553 6.620625024783692 6.856667872848201
Ni 7.246696940841306 4.182783961548529 3.6328963487604624
Ni 5.279487050098753 5.520503206382951 6.504225155828776
Ni 3.685080541154106 5.820174635027586 4.691445780258103
Ni 7.17059901007886 4.314974487839205 5.961816543395775
Ni 3.26492240723418 4.236884581713281 6.38017063346167
Ni 4.040170075518136 5.085602031915802 8.460796667751818
Ni 5.297662449534946 3.362890734888765 7.229630812900201
Ni 5.119138588164622 3.828759798161219 4.839768286652609
