12
Energy = -42.09414699 eV
Ni 8.43259980608424 10.543709008045832 7.23579882488563
Ni 6.0389978436870155 10.543709008045832 7.23579882488563
Ni 7.23579882488563 8.596564138800995 7.23579882488563
Ni 4.924291442283645 8.564977429888941 7.23579882488563
Ni 6.062811090614864 6.57802142975325 7.23579882488563
Ni 3.7769216497712614 6.5710950733048135 7.23579882488563
Ni 4.962695293945076 4.550397682925785 7.23579882488563
Ni 7.23579882488563 4.6166203619599635 7.23579882488563
Ni 9.50890235582618 4.550397682925785 7.23579882488563
Ni 10.694675999999998 6.5710950733048135 7.23579882488563
Ni 8.408786559156399 6.57802142975325 7.23579882488563
Ni 9.547306207487612 8.564977429888941 7.23579882488563
