13
Energy = -49.43971523 eV
Ni 7.07152110245953 8.56301331424495 8.742394000759539
Ni 8.276720692969262 8.185454831379488 6.757657583466886
Ni 8.80092264246025 7.07152110245953 8.86417997880885
Ni 5.008927003312402 7.07152110245953 4.855014615644763
Ni 5.342119562458813 7.07152110245953 8.86417997880885
Ni 5.866321511949797 5.957587373539568 6.757657583466886
Ni 7.07152110245953 5.9582838561434786 4.723858954190008
Ni 9.13411520160666 7.07152110245953 4.855014615644763
Ni 7.07152110245953 5.580028890674108 8.742394000759539
Ni 8.276720692969262 5.957587373539568 6.757657583466886
Ni 5.866321511949797 8.185454831379488 6.757657583466886
Ni 7.07152110245953 8.184758348775578 4.723858954190008
Ni 7.07152110245953 7.07152110245953 10.528248749270945
