12
Energy = -45.48756061 eV
Ni 5.756062496001841 4.4902316093806185 6.54353654326846
Ni 7.53823809539218 7.041406742129608 7.756025108314354
Ni 4.235018596300814 5.5267175796679835 4.9893704139741955
Ni 6.204067894286386 4.559288568755311 4.2005670514898465
Ni 5.9774595890358935 6.888156497895378 4.1691445952260935
Ni 7.495395446532104 5.8500787603393105 5.721342414312776
Ni 7.221097631719966 8.163913642543376 5.672310728339433
Ni 4.733147754309988 5.567656151576781 2.741593811117372
Ni 7.745436334932008 4.7214772210443385 7.760905873082792
Ni 5.499281070666059 6.900525675346346 6.553917071491912
Ni 3.7963689520957042 5.500871138462057 7.276699878000993
Ni 5.797920213959514 5.701063724841253 8.5703183633611
