10
Energy = -34.70834311 eV
Ni 5.432586681747245 4.764531095213824 5.511371435646438
Ni 7.733121061578357 4.764526539193132 5.51129967426042
Ni 5.356816841934074 7.153830228696931 5.375767872136888
Ni 7.8089768264573545 7.154739512251928 5.374798550995108
Ni 6.582607117299193 9.07345863657385 5.521027897609025
Ni 5.43227443315167 4.751478223210891 7.655245075042984
Ni 7.7328102170739825 4.75137510402972 7.655211103962538
Ni 5.378800029639031 7.165742131743237 7.785792429359791
Ni 7.785909843816106 7.164732071254593 7.784694017339785
Ni 6.582792698493799 9.082281969743534 7.651487455558284
