10
Energy = -36.25531536 eV
Ni 5.764578106803956 6.162595878455111 4.571993562040382
Ni 5.275466746703906 8.29744676442258 5.3153152252301314
Ni 6.7879451798401735 7.124887992609616 6.535931731158922
Ni 7.663892244321539 5.229937263491398 5.564374194316564
Ni 7.477126038630143 7.714323700744611 4.4609199015753696
Ni 5.328163623590507 4.843014985015404 6.436478876984101
Ni 7.0012260206743875 3.353801134820866 6.691925973883794
Ni 3.8484262164685825 6.496397425253091 5.84038162863993
Ni 4.986486359783384 6.66199847413869 7.856946515334088
Ni 7.071913901349489 5.320820819214955 7.930956829002762
