11
Energy = -40.3528771 eV
Ni 5.358302887536261 6.275020270083926 7.526410992730557
Ni 5.354957838006267 6.275396645879292 5.270548931408278
Ni 4.2795631519019635 8.02634462049805 6.401081064001579
Ni 7.003014152732456 4.704260898095927 6.402745865493467
Ni 6.575500429560567 8.202182178040083 6.400102664633262
Ni 3.213641440282547 6.039779515161485 6.399283553235152
Ni 4.7818031312715545 4.275363974658888 6.39968903658018
Ni 7.668830935483778 6.561674947616707 7.602779392967051
Ni 7.665175807780955 6.559004967953482 5.198805372936775
Ni 9.379727626864817 5.578198114526036 6.399989422480863
Ni 9.11851357431328 7.90180484128366 6.397594679267579
