18
Energy = -70.6046182 eV
Ni 7.911489114409188 5.297651692991434 3.4223934843244277
Ni 4.081675443828138 5.830098182822246 7.806848386670322
Ni 4.343822706975718 5.678808600263616 5.468397821608733
Ni 4.817863126766181 7.658317542866545 6.622098271698804
Ni 6.986306718179011 6.821141220788304 4.981089587299857
Ni 10.304740715348128 5.976246284220785 6.702257296491892
Ni 9.532899099106329 6.438897152558525 4.5203755786888085
Ni 8.281229072254728 6.456513464871598 7.833292592327143
Ni 5.602716844992204 9.40730184170914 8.188619575596586
Ni 9.11188852437795 7.905168635801627 6.2141074313232005
Ni 5.791300435860495 8.645920152545282 10.339536406047134
Ni 7.006098582398078 8.235759473559058 6.8465991819274015
Ni 6.213956178455223 5.641457137727548 6.89224912249931
Ni 6.12724858105414 6.913186714119872 8.793343275547837
Ni 7.7618650953204735 8.55332167870106 9.023033568317496
Ni 4.021616130419135 7.88518560197203 8.929299839338439
Ni 8.28186686758729 5.072352028917094 5.8905116972683516
Ni 6.2279359481025836 4.576830442519789 4.776605027932522
