15
Energy = -58.78034617 eV
Ni 9.173025461979783 5.62682141435689 6.291737113315399
Ni 7.038096928114768 5.311783235866892 7.251104772915016
Ni 8.16643420988477 5.489265510464574 4.1717451758162065
Ni 7.849061634357647 3.767177714349322 5.733673435782824
Ni 6.263617488312189 6.863520737903246 3.598385566206974
Ni 6.0710595076949705 7.4489740793528485 7.678630295761732
Ni 5.986105159831577 5.003254858288548 4.964862940406712
Ni 5.657799591896887 3.467428899820152 6.680706121533142
Ni 4.678323086672939 5.604107794849512 7.137329175474814
Ni 7.343278781444223 7.0042310798827625 5.712564879759597
Ni 2.810492656650863 6.341297745813137 5.809903106977326
Ni 4.983467973350418 7.3309634787657245 5.567858947234687
Ni 4.103440443739281 5.974196959758722 3.882421212565361
Ni 3.802841259909724 4.2411594165754325 5.459984643232995
Ni 3.7465668194849284 7.711647762056148 7.498689048860695
