18
Energy = -71.85952479 eV
Ni 6.907067110955828 5.667234054831007 1.9640570507482442
Ni 5.544174612378329 6.757327079200205 3.443264704383946
Ni 4.111599222332058 5.297330470262323 4.692051232682839
Ni 6.1537806833398365 4.457221654288632 3.7611960495720442
Ni 4.583838902091323 7.62033559870635 5.539915751131379
Ni 7.942256686337283 6.203579264782142 3.9651247700547048
Ni 6.906140747283759 8.072943577212703 4.856802504525578
Ni 6.145460754743287 5.9661494114328875 5.688877008305758
Ni 4.083697234796477 5.602077053997552 6.9827907103453235
Ni 7.88221615107604 4.3660223776242555 5.367377005238621
Ni 4.227984261793171 7.779484016317393 7.922967049265782
Ni 5.590696188177311 3.789440260649463 6.069993689384272
Ni 5.210102184498776 4.099804302796642 8.4391894291664
Ni 8.110625098310413 6.598784913420397 6.448991476647462
Ni 4.023676117405193 5.911480582880627 9.284931267209531
Ni 6.06193871279648 6.293892994444598 8.139179698332255
Ni 7.3487574756399825 4.460050378549144 7.587978603796073
Ni 6.322570378522843 8.313230373419286 7.052429757653173
