11
Energy = -40.62579941 eV
Ni 7.616220100881763 7.9597397404733545 7.180693999263265
Ni 7.253387579940666 7.803063130396254 4.620345071855651
Ni 7.575510486502901 5.717486755192132 7.939305744207122
Ni 6.374524576555878 6.398741615679666 6.142079287578948
Ni 7.1461197875193 4.112543962938939 6.173647464474179
Ni 5.069298626843294 6.932163619055429 4.373890387956211
Ni 7.0449973189216575 5.487051611728484 4.179394973004212
Ni 5.59831114552661 7.1599923122436016 8.12864092590403
Ni 3.98381949491326 6.415285224539193 6.479413898605171
Ni 5.044837083759498 4.694225348595077 5.224598153656622
Ni 5.379603985507961 4.837733309773284 7.586410695794762
