13
Energy = -49.6943138 eV
Ni 4.0432918708623165 5.598547059842921 5.77173756720377
Ni 6.37731578007081 5.917375483032016 6.021158073237638
Ni 5.3613444549074565 4.0966993429294485 7.06921789975745
Ni 5.247084802604069 7.255124411973788 4.512377691211568
Ni 3.0207540407851345 3.816570509460034 6.881870874611062
Ni 6.753354561297112 3.880411394552452 5.059949642866784
Ni 7.500030117512326 6.002731879520535 4.031372041171701
Ni 2.2097597246333347 4.402398317327196 4.807524962537492
Ni 4.400079029952404 3.352767487882604 5.07359926760949
Ni 5.39708212711529 5.1668917977938875 3.655691372834438
Ni 3.28256191821257 6.187345424234019 3.6453402971175684
Ni 3.530482971273862 3.918760039162838 2.955937942976809
Ni 5.6591077471624835 2.9246992755814727 3.1676467151168746
