19
Energy = -77.18520969 eV
Ni 2.98868640419572 5.406126166815999 5.446477594041291
Ni 6.319044147675252 3.7346285391623573 6.984494974070304
Ni 6.108627224371127 5.040596399612934 9.00007431982422
Ni 7.289613647811582 7.146710822548244 8.753934839935502
Ni 8.888379620992733 6.7429959834178925 4.425911415944594
Ni 4.317012227652507 7.185242396225849 6.209813334102819
Ni 4.272346853076027 5.037604796205277 7.392843391370701
Ni 7.72578636140377 4.901048229797885 5.391538619770923
Ni 8.22167361528895 5.071324287948844 7.802228039832092
Ni 4.942468478834116 7.124852243198958 8.505680848119292
Ni 6.543432694538346 6.841241681007364 4.574500099803701
Ni 6.313107005946297 6.065395342147325 6.883315197061685
Ni 7.7038595499189 8.795343519862989 4.997000447746479
Ni 6.28937621244406 8.406978465323569 6.869794613162177
Ni 5.284827528708402 8.774494341745312 4.745602104184191
Ni 9.87072885085274 5.462697728365634 6.1672748960566635
Ni 4.286041250080436 6.687863502307399 3.9390449151941818
Ni 8.384109780690602 7.225537603276094 6.639997303994392
Ni 5.262550338164722 4.877500553034062 5.13644344273197
