14
Energy = -54.01580688 eV
Ni 11.010966418953833 7.3588674928156586 7.540693607721038
Ni 6.777946304256226 8.694668464655855 7.536987926255701
Ni 5.825441261337894 9.396925086189878 9.615035786045942
Ni 9.048651246105088 7.133658272431245 8.805637903541035
Ni 8.135745873581433 9.32444362781835 9.365123012278223
Ni 7.681752145769746 7.9671718242481715 5.515300964782393
Ni 5.000643715103466 7.486644980981988 8.442862554262575
Ni 7.190597223649095 5.71597542722044 5.3830964833667
Ni 5.5133383890404515 7.180343367564592 6.152714294618852
Ni 7.040629959463796 6.356470134157179 7.680414245923486
Ni 10.465480925904487 8.960565325979896 9.157290018825526
Ni 9.105780617633743 6.429350743387692 6.4985084215257105
Ni 9.167754054264668 8.772471651943581 7.208446250647049
Ni 6.903859102883402 7.370893567254754 9.799788683428995
