17
Energy = -67.76258064 eV
Ni 8.121128167104796 5.376457648301429 5.460149833069852
Ni 7.27480332309516 7.6707769435092805 5.541901631279562
Ni 6.607094593344202 6.237880078784658 3.674513809588136
Ni 8.884368608512572 4.613266240140076 7.643062506786422
Ni 4.600113524688604 7.0597603358724905 2.5798843038098878
Ni 7.389165521524862 6.402137888292151 7.585016793388767
Ni 6.294961438826822 3.997593472942186 4.598435854623925
Ni 4.997796164898146 7.770140530390844 4.764214468342645
Ni 4.347763798600885 5.3436666969099145 4.13614633220885
Ni 5.8659218824276715 5.874618037133583 5.860869974547229
Ni 5.4402862308579385 7.747093935187577 7.1345273881651465
Ni 6.742504335420323 3.9879701885184224 6.97148640837591
Ni 2.856005574087909 7.140718728390516 4.089209086784598
Ni 7.141513656357604 4.70307090682687 9.154663570856878
Ni 3.616198779617929 6.376286877067866 6.26415203811826
Ni 5.126489443471832 5.509571610668945 8.05422664939258
Ni 4.460354743438885 4.083493552184997 6.191831760297
