13
Energy = -49.59207439 eV
Ni 5.841027621261398 8.892066929855893 7.083809011229713
Ni 5.841021609640277 4.147634568683237 7.083810013166566
Ni 5.765707452772444 6.5198532541117 7.166435627414876
Ni 7.777429148498189 5.296412950069642 6.374767569772218
Ni 7.777432154308751 7.743280532974793 6.37476155815135
Ni 4.5224691050915355 5.330103200285661 5.532559385845484
Ni 4.522474114775673 7.709599300190198 5.532565397466477
Ni 7.18379108189454 5.338689980880538 8.656581275367428
Ni 7.18379508964208 7.700983463426952 8.656576265683288
Ni 6.4074621587463785 6.519854256048554 4.75715194680576
Ni 6.445530500763422 8.834634814779026 4.828510879391108
Ni 6.445527494952987 4.205069689570671 4.828504867769986
Ni 9.044347618093553 6.519832213438034 7.8819813581867875
