19
Energy = -76.28108672 eV
Ni 6.953548353686095 4.299666998273288 2.9274741062115863
Ni 5.3204161266027254 3.9560223205784175 4.668728880420782
Ni 5.504807598610052 6.066400141962018 3.4701533064649936
Ni 7.486088586081402 3.0763897479867905 4.903781072784235
Ni 9.08775144462701 4.473151045609147 3.9754597101053557
Ni 3.930924071036006 7.5291228297120885 4.292673049585774
Ni 7.24545928340498 5.573066103988219 4.88454055188169
Ni 5.02560697213182 6.1241185839908345 6.008383455181936
Ni 4.0124776546679275 8.388720245095683 6.4081093987692475
Ni 3.4376613424936386 5.193687129264579 4.344884653743127
Ni 2.5633118047185315 6.524756790657402 5.995790276035602
Ni 8.739082661610677 4.505513256622229 6.341763609195392
Ni 6.2278780831564715 7.83487505854447 5.287239154593716
Ni 7.383155172516264 6.284093656273231 7.06093611143405
Ni 5.742478813936981 7.743349134912597 7.756326856300046
Ni 6.394647692204619 4.078872834616167 6.724935673089514
Ni 3.89335043291736 4.365503776781638 6.709777766902253
Ni 3.6126986821265197 6.637159215293999 7.989088221605991
Ni 5.5311803015513 5.438056207918092 8.34247922377591
