10
Energy = -36.53580037 eV
Ni 6.535195182157475 7.108799700965822 4.820926949063573
Ni 4.694099052539702 8.302556364197107 5.553000269506841
Ni 4.437964686710532 6.165263019334134 4.534300762245498
Ni 6.443717464739795 7.474338050758257 7.033004080944726
Ni 7.9022777969762465 5.705383572513767 6.077839299251233
Ni 6.400490602748478 4.8207667271174435 4.435618995317822
Ni 7.034410315300495 3.4465443780985154 6.193799785108139
Ni 6.22087863757591 5.195315398081677 7.476892311576682
Ni 4.3377614185031765 6.372084694002598 6.775203927503034
Ni 4.803850469610088 4.219593721792302 5.910059246344217
