17
Energy = -68.08217022 eV
Ni 5.355670100398651 5.113643184580554 2.98248710498663
Ni 4.5906600489544305 3.5360135657980414 4.768803350057703
Ni 6.891904933799525 6.722260012282699 4.109713629037528
Ni 4.537332132162592 7.330257600233896 3.4180417269351864
Ni 4.955940032469441 5.8430465600806105 5.136179895175744
Ni 3.1150507512338543 5.376539709680333 3.8181577824740516
Ni 3.101755056949598 4.944757884051418 6.17952369722871
Ni 5.370216686080971 8.077617197018387 5.549450459575436
Ni 6.844569900223698 6.421617925984976 6.4949584283630974
Ni 6.829789579469271 4.403138071379827 4.759669192469331
Ni 6.381335089747739 2.481954591762498 5.988481185992216
Ni 8.695878158618639 5.6620462940838445 5.315817895595551
Ni 5.305683777137938 4.305241038622528 6.932589039019616
Ni 3.125350616037358 7.229869138050163 5.408586722670121
Ni 4.601917504385193 6.560107371426743 7.36288919133144
Ni 7.68275603527191 4.252528886867862 6.977997594468787
Ni 6.3966481549042316 5.521819525940489 8.579111662463742
