11
Energy = -40.72517413 eV
Ni 5.6333525976911165 8.299810104902758 9.394721359721803
Ni 9.176641750861995 5.992458381618837 5.16277159846133
Ni 7.164687643307488 7.0898971524439585 5.145448047914228
Ni 7.59067389906774 8.97953587698309 8.22128960864539
Ni 7.024763632858673 9.328665926172516 5.990909892022993
Ni 7.6781038512544235 8.173568505061475 10.417524051052455
Ni 6.833733816538009 6.314546514874503 9.118539223664584
Ni 6.162849167102957 7.528359434988323 7.24447832024461
Ni 8.947617735284462 7.175565780563906 8.735395690766312
Ni 7.8978959649231655 5.866907166269332 7.074936250354531
Ni 8.844100332093698 7.911565482096853 6.439404534401278
