14
Energy = -53.69604433 eV
Ni 6.5801183028784695 6.09311899839453 7.063968736211441
Ni 8.4467382865559 4.982341274056769 7.816044741815086
Ni 4.546112356726678 5.24756334568192 7.69280519339441
Ni 7.880463495947229 7.8260121411521375 7.857193030155365
Ni 5.40107343100079 7.94269819165609 7.781247683840861
Ni 6.754143861602569 9.828331391991886 7.432659827446113
Ni 6.406720744171418 3.77476391222063 7.53796653038057
Ni 6.692969203424334 6.7904212652700915 4.873797897500481
Ni 8.783454135250006 6.566649041758905 6.083716418481158
Ni 4.501849148014566 6.807804217039916 5.9151703849674755
Ni 7.9324134048830075 8.693787139122705 5.729612667690932
Ni 5.620257224764574 8.810750711433856 5.655058566632671
Ni 7.696788537705659 4.5648085440878186 5.63741461447614
Ni 5.389210516423316 4.703262471607404 5.555656346671711
