12
Energy = -44.69175858 eV
Ni 3.776439458346902 4.92344450274337 3.764911274942331
Ni 2.3743861316655024 5.825553802402208 5.2819433566574245
Ni 4.615170092546703 6.783818237889101 5.075843179887488
Ni 5.964636603306798 4.974767187651634 4.22707697895719
Ni 3.3445084308273203 6.65591402628398 7.1284924399670775
Ni 4.4541637638636535 4.779205774018204 6.09026991383347
Ni 7.085689092195122 6.75566108059754 5.399824554623259
Ni 6.930747969853569 4.755585112773027 6.4233780557138775
Ni 8.20016543216099 4.878487667063551 4.3702846062879495
Ni 5.578844975815908 6.5581459622856855 7.271794214208117
Ni 7.7681287744286935 6.628820445762828 7.720684043506318
Ni 9.172399327025357 5.717271769487074 6.214052852458833
