19
Energy = -76.69508893 eV
Ni 9.4949380149099 6.841101838929285 6.621268515646966
Ni 8.63644362674858 5.155213124837623 5.275466540554837
Ni 7.626412269947347 7.3436505707015565 5.240286081969967
Ni 7.70428899836344 7.998295773695319 7.563044669974735
Ni 7.314039847239466 5.9423247027133375 3.3184470784554656
Ni 6.3074769620620135 5.328964858991849 5.255387106252358
Ni 5.480532878160903 7.290594948192984 4.165008709709899
Ni 7.541184422442879 5.709900819618796 7.326870254902349
Ni 7.047484627190192 3.549404401491285 6.46307148608599
Ni 5.99674579167389 6.792262998760095 8.806062080586603
Ni 4.9866399714939575 5.040776590767587 3.4018913023510655
Ni 5.31565284811046 4.918736691164199 7.41016592969201
Ni 3.2861117406916813 6.581462440376447 3.392619722844297
Ni 4.760502845477478 3.609453554912392 5.500599628971668
Ni 5.6474900746644465 7.327284080589989 6.595784461163342
Ni 3.7839051669274304 6.5432300181145004 7.885725551908411
Ni 3.926221253801453 6.121903200233334 5.5460602120759
Ni 2.877261456084582 4.429386189695949 4.3828837979553645
Ni 2.9923118219864144 4.472206891283917 6.809338391659511
