17
Energy = -67.31680275 eV
Ni 6.232644996319753 5.7415313122079255 4.303279306200096
Ni 6.720818785589435 3.4627768657343685 4.8940222145414305
Ni 3.9929208475128215 5.9356178207359 3.4705193724581074
Ni 5.384508423459837 3.994959701798262 2.9812463941972345
Ni 3.0817611383478787 3.6808504164392604 3.3311927976857354
Ni 5.313017009968313 7.867178790345884 4.3633275207401425
Ni 6.0382378786450275 5.307208987005954 6.740746148073268
Ni 2.377542264339792 5.05947427392304 5.085087050677751
Ni 4.701464259270549 2.114645129272339 4.219634106964329
Ni 2.820074994907207 2.8131178081463046 5.59311633086561
Ni 8.107067294607011 5.171377096312733 5.6689426277999315
Ni 3.5715677167352387 4.671321615115922 7.169182387890521
Ni 5.857250545148021 7.643780501806305 6.740546119264353
Ni 7.524194784489192 7.422556386797981 5.230339972272343
Ni 4.10794575230904 6.493186129350159 5.799036597237799
Ni 7.842416416256202 6.66109760605097 7.45574946470963
Ni 4.5753741921949835 4.208126859056829 5.202838888521714
