14
Energy = -48.72815854 eV
Ni 5.947837940646283 8.81157257662604 7.97444551481013
Ni 7.992534420532579 7.3128277228246175 8.399075963774298
Ni 8.310961862359676 8.974055088118872 6.838215385882668
Ni 5.365468909405664 4.702375683646466 6.838215385882668
Ni 4.229050741268028 7.6657556134535225 6.838215385882668
Ni 5.683896351232757 6.363603048940719 5.277354807991039
Ni 7.7285928311190535 4.864858195139295 5.701985256955207
Ni 9.447380030497307 6.010675158311816 6.838215385882668
Ni 5.947837940646283 8.81157257662604 5.701985256955207
Ni 7.992534420532579 7.3128277228246175 5.277354807991039
Ni 5.683896351232757 6.363603048940719 8.399075963774298
Ni 7.7285928311190535 4.864858195139295 7.97444551481013
Ni 4.541102919347348 10.115740000000002 6.838215385882668
Ni 9.135327852417987 3.5606907717653358 6.838215385882668
