14
Energy = -53.60470603 eV
Ni 10.660787004772477 8.069231395375729 8.59777188924371
Ni 5.807993027497849 4.924056095156241 6.574940252817504
Ni 8.64770836589957 7.257647804263859 7.794195732981821
Ni 7.178720646223466 5.524732199215982 8.374228704477451
Ni 6.694538284564459 7.692200881061301 9.211133210825453
Ni 9.600302977054788 9.173472183047247 6.892818480202646
Ni 4.942822125833924 6.189095289361627 8.423152679645266
Ni 8.708715834873423 8.959843612774339 9.380069274523557
Ni 4.213958102635393 6.499295666691361 6.135746080708942
Ni 7.978037386468011 5.7233490415004535 6.150623404256224
Ni 8.001448641996797 8.016040455830076 5.552317803158978
Ni 6.239920854761605 6.504415405876389 4.81541902170687
Ni 7.379689091979204 9.298154036227126 7.518987253844095
Ni 6.18609422658573 7.402355591751442 6.926618773488066
