10
Energy = -36.92601696 eV
Ni 7.694078462904605 5.78467441189569 7.36193731208715
Ni 5.6554204385090445 4.609032078521126 7.581712255635662
Ni 5.740933190803153 6.54389588546162 6.337324663049776
Ni 7.695832700721603 6.538400692699664 5.125047541900589
Ni 3.97527889237342 6.530425763005078 4.863485707435027
Ni 3.666096184563316 5.781061805453734 7.079717588353939
Ni 5.873709861652035 7.860711336407312 4.4228720224888685
Ni 4.612228210812831 4.356721844129522 5.49350785360557
Ni 5.912868051727558 5.585724000946952 3.923289038767017
Ni 6.990129299256302 4.359739835264033 5.658852805308875
