11
Energy = -41.03166858 eV
Ni 7.848293137134855 8.263101420918685 7.811762042161707
Ni 8.351337383859589 5.989902820738789 8.033381739675841
Ni 4.750569517034115 5.13294888484336 6.960424017027484
Ni 5.304123838909802 7.087338810059953 5.803212761742508
Ni 6.941444451526041 5.448886641377167 6.192130902473801
Ni 7.041541549602877 8.569198127854335 5.648684102777727
Ni 8.706751050496678 6.99481591829226 5.955959504214641
Ni 6.60992736954952 4.489059225108765 8.276260605796672
Ni 5.596910913984205 8.91736116560991 7.408600903334878
Ni 6.094921693835048 6.745950823675704 7.989304176025017
Ni 7.089902333613719 6.697159401067401 4.256002396618798
