16
Energy = -62.62176385 eV
Ni 6.993294337325135 5.244965923335533 4.594829359844028
Ni 5.141063077926916 5.145722245137252 5.946616084165021
Ni 8.939075115745219 5.364185809105865 5.958364029822931
Ni 8.891715319717154 7.536793711116554 7.15695853206468
Ni 7.053515076708477 4.108243135092766 6.688380597196256
Ni 6.809955002631657 6.814743073381318 6.803457535478735
Ni 8.329051335180035 5.317921996726864 8.174529624553083
Ni 8.220329579749391 7.1793526930340805 4.748884654516642
Ni 5.838087974825252 5.5181536733552585 8.336939879559113
Ni 5.722065380217971 7.371105220586418 4.933122964367864
Ni 7.512463529664742 7.163551960766795 9.219011913753365
Ni 5.314650770382481 9.059070849824593 6.715402377365217
Ni 7.413245566940166 9.034478674658429 5.7904699989287165
Ni 4.319832319281237 7.003675982278565 6.971278845158998
Ni 5.36962479944168 7.906839657927922 8.805228134194245
Ni 7.263269908054193 9.148624054545149 8.082591032273303
