21
Energy = -85.95217965 eV
Ni 7.9707959378843825 5.24379601411823 7.069954866567344
Ni 3.9805291476242073 7.583028810668869 4.233033294932015
Ni 6.401499831125138 3.5045968826055636 6.959581436442394
Ni 4.845767162531005 7.95988724637612 6.406318799540877
Ni 5.158728264828676 5.588256691178291 3.8931420280301383
Ni 5.775328150257094 5.790129615826504 6.350341827464981
Ni 7.330814144454211 6.043991555764793 3.0577464647047026
Ni 8.072165373103681 8.713621862659544 8.614675751919004
Ni 3.5358765670454604 5.796321473452852 5.733955463522543
Ni 6.014963475567548 5.152866749396985 8.636000949489116
Ni 7.098364092074242 4.509003044828834 4.878199251692202
Ni 7.960592336998 6.443073758815194 9.054156110179997
Ni 5.974305367278053 7.585142496442666 8.558402951645196
Ni 8.436654553482773 6.48967697119503 5.0917953066103605
Ni 5.46534238052171 7.345924194810743 2.403347940931014
Ni 9.349690456906531 7.1331341132427415 7.246865412526612
Ni 4.810174134215222 3.7658559249231396 5.278193240510362
Ni 7.24745919748856 7.778304579102136 6.670873166583208
Ni 4.142252098890701 4.143792023935896 7.47670824634068
Ni 6.33020311513448 7.557326574150491 4.55755149818765
Ni 4.050620216703549 6.390159119287278 8.005347919983926
