29
Energy = -122.94722188 eV
Ni 2.8689979724066976 5.361699304155969 5.747632716149254
Ni 9.669631558403633 4.470512885135333 5.34452041181431
Ni 7.650555634711226 7.321266433145506 2.9950471868987645
Ni 6.744714159030742 8.437616066117318 7.435426485204752
Ni 4.193785056282683 5.760641601192906 3.86156041349657
Ni 4.533505185103243 8.40626526216784 8.135217914075984
Ni 7.410938962834696 4.009644779099192 5.596404057991865
Ni 7.439345322627244 6.135858402835916 6.685359463493483
Ni 6.289396736766761 4.264214565145321 7.7224335246754725
Ni 7.072347943451101 8.146534479761302 5.169090289256238
Ni 5.317266271857765 7.823254034473217 3.6663972717651894
Ni 8.373387969629178 7.063739902876325 8.59511686397091
Ni 4.073642188340901 5.100122439929091 7.789676251559292
Ni 3.2852402669923735 7.608000552920682 5.005334948917369
Ni 8.927413077541935 6.6348026301617296 4.858563469008207
Ni 5.944818327014527 5.938610030069195 2.2408206190615054
Ni 9.930169820637069 6.203808845100055 6.959695155609009
Ni 5.059424831651191 4.44764470212034 5.701034701737098
Ni 5.067731633806348 6.803781789435364 6.276179774697242
Ni 6.477854580769018 5.866022181743117 4.458739730022657
Ni 3.744668958923275 6.62508537674884 9.504409919850529
Ni 7.562347359188016 5.072051194870995 9.546547974909792
Ni 5.195182238726321 4.69513742765654 9.818568941416359
Ni 8.697301781287333 4.373555608758094 7.596012725451826
Ni 8.273151726424437 4.935113836666066 3.396817975664145
Ni 2.8517428291815348 7.092124796249009 7.307322008050009
Ni 5.960319181207554 6.584503223722254 8.687392020063383
Ni 8.942922562267086 8.29365922142936 6.620817435976686
Ni 4.994653820836673 9.07718638421479 5.830317707113919
