23
Energy = -94.93655562 eV
Ni 4.051932404296509 5.544465981757032 0.8924704826712002
Ni 5.924835611800978 4.895672364574709 2.031082475771528
Ni 3.5714074292208444 4.529288996689048 2.903711139014327
Ni 4.3437373228638245 3.2615362153747847 7.3626347048556715
Ni 3.2445528088800546 6.12751056481295 4.835347886781209
Ni 7.457824040330002 4.393139577723938 3.928497843065808
Ni 4.445843418311333 6.805526396435823 2.769104008496765
Ni 6.813835181704475 6.754852611900363 3.2495425705955507
Ni 3.756447053821659 3.7376441789563675 5.12151900374407
Ni 2.7679152634829167 5.0122812887526145 6.834136807172767
Ni 3.8813963216566187 7.271273159543531 6.995273384020976
Ni 5.164363262614498 7.517561191115085 4.92427258851882
Ni 4.113559958495634 5.142420068393267 8.724042974630093
Ni 5.419373866997166 3.0615376460795436 3.4893885974810113
Ni 5.3636472872820296 5.239838743222018 4.299596736390009
Ni 6.099237027360572 3.4106820240048794 5.770750214672791
Ni 5.18141110859236 5.506242750432144 6.626335119186695
Ni 5.797236412176486 6.6223783940024425 8.672368391671862
Ni 6.334484429355187 7.902856577964343 6.8979510702071165
Ni 7.2402968575662126 6.260070111538777 5.488529823066631
Ni 8.167239392975553 4.305301551724746 6.326449969612311
Ni 6.4575452467338845 4.2767807987897415 8.042448117285392
Ni 7.885160517603255 6.19347248742954 7.70334470787205
