20
Energy = -81.65764226 eV
Ni 5.405924041177347 5.147428644912635 4.217060934381453
Ni 3.451335009633825 6.273755385346816 4.860922091504067
Ni 7.608471441932316 4.282354355722589 4.187629575879802
Ni 7.194305891681864 6.445360548716673 3.420725862233832
Ni 5.2927560277715235 7.641222364409344 4.387502434886184
Ni 7.6439806106125525 8.196469238347245 4.84359733703869
Ni 3.638411395067865 3.97716521341829 5.27782260722356
Ni 8.683879428785792 6.0932267453454605 5.327544209311709
Ni 5.855430386305905 3.124708108454201 5.327436306856753
Ni 6.461297996179327 6.358087496727264 5.958955583981195
Ni 4.432436690622097 7.319769265090575 6.717712449295266
Ni 7.943921435025016 7.697652223963866 7.1582170908630465
Ni 6.04095165731598 8.96738097677381 6.302427969563835
Ni 7.500308219763492 4.289124080469878 6.532408721301999
Ni 9.048256122777294 5.672138245468218 7.60821294859801
Ni 5.115066405252904 4.636195530375403 6.96477820046026
Ni 2.9404992373085648 5.512869898559901 7.014980992812939
Ni 6.808397910338392 5.814887965700323 8.268536119592078
Ni 5.931220038146653 7.981247781379758 8.419139782897917
Ni 4.51390183938173 6.079707715897934 8.715140566397562
