27
Energy = -113.49703944 eV
Ni 7.773565733724127 4.138344055059967 10.717564995145354
Ni 10.29846280684907 6.949408874394377 9.469385008588668
Ni 10.479418701842937 5.3314525611597166 7.795434520149511
Ni 8.478600372636123 6.328686058669647 10.882811506458523
Ni 10.020843109609707 4.659096897745096 10.110897418051916
Ni 9.167576323267738 8.568878680596308 10.82804403507451
Ni 8.33694441705623 5.098861875672791 8.650681862225037
Ni 10.307922132238104 7.576123078904022 7.169044653011732
Ni 10.055560512462456 9.28531234648796 8.779735940187987
Ni 8.11963152630748 7.519429920352089 8.659907264771784
Ni 8.511024103560779 6.267269289063259 6.576619445457257
Ni 10.600106411234016 9.792349752434673 6.556839156683932
Ni 6.404265819668494 5.9027984505946 9.859496906436929
Ni 8.991526623062256 8.25055002458174 5.207182506661073
Ni 8.293981880430431 9.320573112134802 7.065208610751685
Ni 6.839350126831167 8.118827073188195 10.62269665446273
Ni 6.710432739849763 7.741029627340186 6.280919333214639
Ni 6.37583606409477 5.79067472154709 7.51977647453459
Ni 5.766788973881083 7.836570331853451 8.497453385019396
Ni 7.865650914063957 9.92210577841074 9.390234954700622
Ni 9.027780144619607 10.833979916888035 5.272538679931382
Ni 5.561414288690875 9.9143921540531 9.669280501584732
Ni 9.034286901899346 11.354432770032163 7.7468947130545
Ni 6.976455834023924 9.7215762760823 5.134088796150515
Ni 6.03304877922789 9.911220361223718 7.36603637630487
Ni 6.740189507833451 11.75620770500148 8.600136667376523
Ni 7.154165947234302 11.760410486408492 6.303700656528167
