25
Energy = -104.91162138 eV
Ni 7.142380321616991 8.057006448292782 8.896636821775257
Ni 4.886401200010525 7.547776461405272 7.968497372969631
Ni 6.442505653333408 9.22156874782997 6.952320487889749
Ni 8.648552493335497 6.303807746756939 8.237098836135138
Ni 6.8767866293724556 6.910300268984662 6.8368466867611195
Ni 5.038921256078838 7.909940258084331 5.604438776750173
Ni 7.470468548377115 4.578294751083761 7.109155934766183
Ni 5.1906188383943395 5.361459784021616 6.79272064362458
Ni 8.716154740486225 8.373121717711802 7.034115408070796
Ni 3.917310972643453 5.460040363919272 8.681003871882208
Ni 6.3374493668351555 5.807670264695776 8.920988345236623
Ni 7.511646957609358 8.167074303476848 4.991755252519982
Ni 5.876095904510967 3.819170593468737 3.5255053754897605
Ni 4.006985232275593 4.514685437656276 4.830862189684704
Ni 5.629142839247547 5.81663208811222 2.4035878738056735
Ni 7.7902519745078855 4.2658581291115265 4.791488240817706
Ni 7.883832496559754 6.372892090444988 3.4312561086089484
Ni 3.9703664149786815 6.655390235429487 3.967355566643348
Ni 5.832992854134881 3.3093868430374282 5.884955264712094
Ni 6.086164987272387 5.870686402433773 4.700598347367693
Ni 8.758366978099852 6.211811501985888 5.732580738275558
Ni 3.5315069290676657 3.791151458610295 6.9819068637317026
Ni 5.531756839599776 3.6177485293572493 8.290993838935648
Ni 5.913762412713825 7.917847735727985 3.3376575040196506
Ni 3.2557121124322643 6.384812791855896 6.3418086030205885
