21
Energy = -85.75478688 eV
Ni 7.402848415243343 7.500918447554178 3.2512277247812937
Ni 8.424248027812823 5.73692472798771 4.544305973123495
Ni 8.116289876076006 7.8972894083772465 5.585073165729626
Ni 5.00985207475065 7.177269015821761 3.333663751545971
Ni 6.016214751196543 8.791729638538765 4.834014892950766
Ni 6.216346109205643 4.840296474612077 3.406528969441883
Ni 6.34327775558116 6.509910527291133 5.048192563602103
Ni 6.23236038514588 2.5544308669044695 4.278719279005145
Ni 4.278197759599206 3.3903373809742856 3.560557414469459
Ni 7.011927048278673 4.19985011637855 5.6128020061316395
Ni 7.725828034406791 5.9740269782067745 7.00680689944016
Ni 4.179209226104304 5.39136145305973 4.606930244315833
Ni 5.316236769581143 5.560421885542513 6.796570171208365
Ni 4.730090580832644 3.4509704165609283 5.95910659101239
Ni 4.198380892056227 7.47173981637919 5.7448212574201545
Ni 6.179315823715274 7.853476171836802 7.119119549995298
Ni 6.459517196039445 3.920192719810786 7.87812012044999
Ni 3.0518871703787527 5.369248009155323 6.664842417951344
Ni 6.180756426793607 6.106079009386279 8.868407517380357
Ni 4.257058094479874 4.58004008147136 8.598424175049278
Ni 4.078800464851903 6.999789240327345 8.12030932253125
