27
Energy = -112.8749577 eV
Ni 8.500031294637516 5.526069618604155 5.88662048865533
Ni 7.235847317074851 4.779943096591786 9.416239984413629
Ni 6.665951983023513 3.1592109259334307 7.720085568709563
Ni 7.457763411561355 6.910595122377365 4.153469373842723
Ni 8.12562463373623 3.187648154735742 5.844644820570165
Ni 5.0026265032563515 4.397342226093166 8.951641546371215
Ni 7.076097978105071 7.37433343622812 6.438105529044485
Ni 5.85541737921204 6.509754827003147 8.345318746347738
Ni 4.352979657352076 3.153928021849996 7.126445753691845
Ni 3.7934000518312865 4.257709233167458 5.200763174476537
Ni 3.9303187770585635 5.547564769525966 7.170721061778108
Ni 6.224291981930761 5.078009023683106 6.542431192358567
Ni 8.860787982823599 4.118578823235427 7.8436997017100305
Ni 6.127269066709956 8.75216314012254 4.883368881600614
Ni 5.834796554456046 3.0518123684340717 5.27185746820329
Ni 2.9813987386967344 6.54890299904595 5.176217911210141
Ni 7.244653959338193 4.563098598353275 4.156055378381241
Ni 3.8480553480444204 8.650398486406724 4.543781701017286
Ni 5.211911584397526 6.172029961823749 4.631063614172608
Ni 8.262265852200258 6.341746065929289 8.107793229359194
Ni 4.726396263374651 7.632941119319636 6.513325603743807
Ni 5.1182547450288585 4.201037705051819 3.2245621630426022
Ni 2.8979125176483467 5.086135384299464 3.254082576221788
Ni 6.588237129740133 5.7845421455571575 2.26677311162441
Ni 2.9401189988797807 7.344541069392409 2.863342546045277
Ni 5.329915437562288 7.689419053650545 2.906333165885524
Ni 4.35123393638136 5.896354302241896 1.6506593992626357
