21
Energy = -85.17092848 eV
Ni 6.427268506086249 4.4849376696676 3.245241534167081
Ni 4.767949058469319 6.415223794913008 2.7787310945034296
Ni 7.394723733250911 6.52525742358579 3.150846890498544
Ni 4.24524800998428 4.235215820504063 3.9327976570509002
Ni 6.257319419351263 8.34102930385779 3.823175614440278
Ni 3.098417293806159 6.091550399326348 4.666271624383285
Ni 7.861515375650184 5.242640510762219 5.0796706235452564
Ni 6.049162619465457 3.6914927793089185 5.429965514798089
Ni 4.173425528121826 8.12511621233483 4.686200693266603
Ni 5.5982793913843665 6.1877683297112815 4.779956829632663
Ni 4.075238938086078 6.9374448282230805 6.716646364602954
Ni 6.40848584390701 5.750587776952256 6.935072161188867
Ni 6.127025686698483 8.085697657542113 6.179975416457759
Ni 4.146548834857552 4.673992227043717 6.286362702098658
Ni 7.763364049515042 3.759522307560595 7.042654205021963
Ni 8.83841949660846 5.750008315428674 7.176209693428999
Ni 7.739965120899934 7.59073543868456 7.849139940141668
Ni 4.484362288659611 5.412177904170478 8.545519074489187
Ni 5.572504794488443 7.434785098461711 8.470867320511118
Ni 5.603040769255835 3.5438612362798496 7.804868859328287
Ni 6.949030426882931 5.302250151111099 9.00112137187467
