22
Energy = -90.78339665 eV
Ni 8.552840017203756 6.586829767471421 8.501260930820996
Ni 8.099649492946392 5.47914030813168 4.751989557905315
Ni 3.7976116837490657 3.982507750098447 6.466847084493571
Ni 6.137639464233786 4.071781644226401 5.283885354736433
Ni 6.338845652279297 5.888763849067087 8.698474825954007
Ni 5.979594006055996 6.2673644811789115 4.169820668416033
Ni 9.566482383387209 6.287684007527486 6.475207014696971
Ni 7.722618135500623 4.804776561346174 7.015072516306455
Ni 6.692734223793388 8.497712130288146 4.548087916908761
Ni 8.934221845837389 7.774109645895618 4.824486499485243
Ni 7.7672189474691695 7.050838102789564 2.9695523613982293
Ni 4.768514625470831 7.575175435538161 7.929958751126929
Ni 6.164040778840007 9.145594908268908 6.756158496156352
Ni 5.324732304658794 5.743586481606537 6.553129330038279
Ni 8.669632346033625 8.597578762757005 7.106688989982382
Ni 6.91284306905458 8.20063928682368 8.73819134709058
Ni 4.076201320848257 5.244611606066344 8.557286810310384
Ni 3.8970289015084103 5.486797080832859 4.688853119311419
Ni 3.045768748218738 6.35269246252916 6.7156902988940645
Ni 5.759357210842248 3.739843787754572 7.756142029877265
Ni 4.632801144320877 7.744331219283636 5.532288433472931
Ni 7.227758555789335 7.055788276151946 6.351107755181732
