23
Energy = -95.83532597 eV
Ni 5.258824827886613 8.51204612705222 4.259234660305775
Ni 6.285128413013564 6.934422157930471 2.691323788617996
Ni 6.526762854537433 8.590751528071312 6.428979205534989
Ni 7.7199601201315655 8.425378046657984 4.240584123211894
Ni 4.3835593056994115 7.3013756977491004 6.2261602270270515
Ni 4.26386759050053 6.215355128075428 3.9709445448564797
Ni 2.923580068772852 5.331527242049522 5.913164169509215
Ni 3.973178257223584 3.7640475447100625 4.339512812540575
Ni 3.993826525899278 3.333028246612854 6.882638708670782
Ni 4.29144951657524 5.544744680491981 8.010526439026554
Ni 5.149123444612391 4.993949451140138 5.843266345751963
Ni 6.209322048312233 4.658369529064164 3.6982890227888507
Ni 6.427601575761674 6.320960043087349 7.2191379883845865
Ni 5.283673549836566 7.807221409354039 8.46708304385193
Ni 6.405828995957217 6.703688510722925 4.952539452724922
Ni 8.473252091362221 7.027058912367979 6.153285177404547
Ni 8.272349119828224 6.068060579739082 3.8451521004706994
Ni 7.745179033871916 7.725045375849099 8.427797579291884
Ni 7.602341981701839 4.710518297868825 5.7710831598622425
Ni 8.303608977725828 5.36540099760347 8.030950007413393
Ni 6.330501504971303 5.803545616200241 9.431133166699382
Ni 6.238848160745072 3.976116166304905 7.739808006771836
Ni 5.966069187137902 2.915225863361042 5.485243421347176
