26
Energy = -108.36996246 eV
Ni 9.873427350627528 5.777616373796749 7.169959934284951
Ni 8.775381209995544 5.79913065231622 5.090541916464294
Ni 8.17932756378747 6.031881662360124 8.836996125904891
Ni 7.264438103547245 7.5396445846636375 4.524374920684039
Ni 8.043700268798561 7.205026014271543 6.844187630207016
Ni 7.781701705506197 4.711254105957323 6.944804086198383
Ni 7.79935967685942 5.631686292270215 2.9828304897071325
Ni 6.962150985649179 4.231430136993007 4.7644853415543
Ni 6.137793407438234 9.624221629521015 4.431344498946187
Ni 6.228930064142965 8.580193981794647 6.486262322493061
Ni 5.917437468160422 4.002758310917499 2.6044200861671865
Ni 5.984497739841342 6.104739520986781 6.140713135877151
Ni 6.261903119723555 4.671761381657116 8.788438636323466
Ni 6.0509643510949225 7.008637534846504 8.302264847643807
Ni 5.692874580922662 5.973314115448527 3.7369916777124774
Ni 4.64886210981608 3.6636528647625606 4.575462010616782
Ni 5.693976699072263 3.686839096129106 6.7102521375718265
Ni 4.359509833438338 3.291797163627355 8.625978654716771
Ni 4.308320719170407 9.780329362602115 5.873854133447568
Ni 4.137576080278609 7.6119470871919015 6.928667911608196
Ni 4.2568243181798175 5.436836549822666 7.7173971326133355
Ni 4.714933184546322 7.817533474724119 4.672532517259987
Ni 3.7300630023637322 5.737892795226767 5.332400744947977
Ni 2.3188768731284504 4.050658287690681 4.5017568452985826
Ni 3.3182035599896578 3.62619860443446 6.543554203734965
Ni 3.7346465257221073 5.075098346071067 2.9475812151967666
