21
Energy = -86.45091911 eV
Ni 5.057171204442532 6.183133588359125 3.467302820865795
Ni 3.2226502668660624 6.56080731872782 7.302997869645588
Ni 4.62252591704748 4.582433230465296 7.271581344206321
Ni 5.7606583039722805 4.343073476048349 4.893471264816892
Ni 6.565836474326303 3.142236466611561 6.880600347134763
Ni 8.215347817971962 4.273078069522727 5.385273692284257
Ni 8.684952422161857 4.538963018688221 7.7482692434414915
Ni 6.550498026538844 4.628683508238479 8.883552584255183
Ni 6.801016962107573 5.372245416355474 6.763853776581373
Ni 7.137130192398419 6.299589992496074 4.536581785478775
Ni 5.368489189054338 6.675840798516938 8.235440410786186
Ni 4.826042787381163 6.4100960543303485 5.710163834662442
Ni 4.600973576492902 8.51051515447124 6.863373975081178
Ni 5.737936111964651 8.274956414851594 4.489092661188416
Ni 6.789224490971323 7.66171489819461 6.524364729072608
Ni 8.193795166938857 8.471452814160584 4.945576352341045
Ni 6.520707341290009 8.834798121436567 8.43410740176525
Ni 6.536421005544781 9.86782617306187 6.180082617663876
Ni 8.66185221938151 8.721489915746023 7.298828424907672
Ni 7.827393828897573 6.727782480580326 8.491233131301888
Ni 8.892144776521608 6.492051171408809 6.267019814790908
