29
Energy = -123.26835738 eV
Ni 7.642031050630185 6.353175510520518 5.867170128895762
Ni 5.093104174918528 8.637933921574009 9.3844707747812
Ni 7.334691984305804 3.90220426179463 6.945902106858321
Ni 7.2714048533189475 9.012147176319107 6.021697156867377
Ni 7.936885430347283 5.736870300275593 8.40412049256247
Ni 4.8748509872729215 3.613062319346186 6.915275626380264
Ni 4.033335360853557 7.351705290652995 7.802412587037014
Ni 9.058128472516795 6.149935830688198 4.072650466999855
Ni 5.566198829304681 7.3610257659900125 5.902241324635095
Ni 6.279783567276015 2.641527178111289 5.272626959431814
Ni 5.797166047429949 6.35893678534789 9.634339133847327
Ni 10.723075534125995 6.808472242883671 5.614606283203328
Ni 5.310357493872537 9.211546033615324 4.562952668620749
Ni 3.782224945523629 5.729461057046721 6.065511183038931
Ni 3.56976983825901 6.937401415436742 10.046418517588712
Ni 9.191710297539975 8.365992821424948 4.910687993479949
Ni 6.895460639693691 5.572180494726239 3.17382120525153
Ni 8.034662787164834 4.133484106765142 4.743971141324043
Ni 6.804151262186559 7.8192643809302655 7.993839860425477
Ni 3.432735481373243 8.112422972393873 5.584067064453591
Ni 3.8952502115637953 5.096509879829709 8.556130469507808
Ni 5.113357982199895 9.36892296657892 7.050646538557463
Ni 6.105172264238655 4.0449420397301195 9.011667317379526
Ni 4.763884171205533 6.792484592881401 3.874711524022292
Ni 5.843396500622844 5.66688161260457 7.41317578701862
Ni 5.767160660968055 4.906602313863346 5.05655401923319
Ni 9.409589951711716 5.108128627436139 6.518853048889394
Ni 9.05934539633572 7.556604316098497 7.169306963877649
Ni 7.090298381660122 7.714076992129399 3.974850939802583
