22
Energy = -89.43237552 eV
Ni 4.300740661221461 4.881723240224046 5.175353839458623
Ni 3.5715432312279534 2.843232247045645 5.778893556206951
Ni 8.332362475335737 6.556209841375758 4.818403989682536
Ni 4.5763959893174535 4.209461216732014 7.584978740290774
Ni 2.348665150465916 3.80545896041092 7.635273930242888
Ni 5.852488893848196 5.957282091633562 6.622970187281137
Ni 3.2123234018359867 6.067566588443899 6.729407578853927
Ni 4.625562162616791 7.209998021954059 5.028083610652782
Ni 8.202402897334904 8.750565161175604 4.046050530328411
Ni 8.041460614181378 6.428560985441742 7.229380331768248
Ni 6.55667300679326 5.095276495133226 4.3140777656442975
Ni 8.978585584797445 8.33341091754052 6.224118771730086
Ni 8.138934885927 4.4822253634400155 5.94240091058115
Ni 6.748956059044955 7.969837866463576 5.7219963234411315
Ni 2.6202936023754204 6.278553196124146 4.208122180999302
Ni 2.8901675994454328 4.021715764072492 3.4731746004566326
Ni 6.433571170911865 7.27623196005941 3.4549478652087844
Ni 5.0718613000009665 3.235538936937745 3.777607937682718
Ni 6.931304232869631 4.380479546046725 7.944309917790834
Ni 4.649107147567793 5.752896117613556 3.0189689761955383
Ni 1.8607727828817866 4.532348635362809 5.53929388319656
Ni 6.0509114646711 3.395764519386522 5.930147143436332
