27
Energy = -112.45988038 eV
Ni 7.08453509088369 7.108499671068064 7.034790906395892
Ni 7.6927845713120275 4.686498193833915 4.988009788680988
Ni 4.538452044345091 7.044915044681347 6.322324110180943
Ni 5.957657020506158 6.5659938144751235 2.594925546186288
Ni 4.646183193744013 8.086291934734101 3.99584590742569
Ni 8.71355744875497 6.0099040404602695 8.647302143185357
Ni 5.4676162749501644 5.9584863915541675 8.276690990340244
Ni 9.277442669722726 8.15730695144755 7.724960253591402
Ni 8.337623953130533 8.42670130573254 5.507651540493476
Ni 7.74940709187663 8.239769794597334 11.455852795919524
Ni 5.992506227979164 6.50747261413959 10.573800286194665
Ni 7.250913699143729 7.857470250472933 9.273037140045915
Ni 6.3508865607306015 6.588040686737581 4.843863041567493
Ni 8.57767452720744 9.727337185458886 9.54107529910714
Ni 5.834439166570292 4.4646756789155875 3.651778626793071
Ni 7.404218812270576 9.525464156038542 7.490842720858345
Ni 9.557628046365991 7.7084452416754115 10.070935860887545
Ni 4.105330598661229 5.846946277496791 4.293938975987695
Ni 5.384079750182784 4.821221263580098 6.069260876346969
Ni 8.42284297945324 6.678723395299936 3.8710933579906506
Ni 5.33652835532633 8.42228039832928 8.033049457711511
Ni 5.969656791922591 8.923504232648636 5.751901498094474
Ni 9.056833530325354 6.234757269940532 6.2227451284412965
Ni 6.929448175165437 8.53590150220715 3.5780575437089976
Ni 7.385089750620024 4.6851740741999555 7.255937680059061
Ni 8.236510973277488 5.976613335027866 10.986390108201345
Ni 6.985648764449837 4.65720996532279 9.54557911016803
