29
Energy = -122.74258264 eV
Ni 7.847311913689952 3.726782316565733 9.83305234710939
Ni 6.6320603618880565 7.234948109357857 7.596274400152601
Ni 7.716084081412906 6.247999586525329 4.26088216941641
Ni 4.91489704439673 7.813039665773599 9.073674797417118
Ni 5.971464599922905 5.573781212447532 9.190328048314518
Ni 6.013453079026643 7.623494801667399 5.236989450268199
Ni 6.578654705340549 9.564133060261204 8.725248216041456
Ni 4.541984778756042 6.581520447568433 7.055081871466912
Ni 10.28041074031787 6.25678230869859 7.827213196539456
Ni 9.665330922503841 9.326260727641316 6.130324227951554
Ni 6.408180128840555 5.462956619655332 6.036314040391128
Ni 8.537438978237 9.578536119796645 10.095987340686715
Ni 9.494524373166369 7.280409597313762 10.150809186955573
Ni 7.85413539023428 5.693319596665575 10.95274510613655
Ni 8.224390973682057 5.8106086716233705 8.551172676010202
Ni 6.251126650110552 11.163123960012687 6.922396959348899
Ni 5.975221319465147 10.00636999849063 4.8576311887326185
Ni 7.362195400993012 9.155339865298455 6.5104155748447115
Ni 8.707432824489262 4.904287604286735 6.11316670817802
Ni 8.705883028234327 7.152947979312551 6.150665612215016
Ni 5.014907956614361 9.013473393705974 6.953011987745803
Ni 8.511076575748557 10.68906647213412 7.864164200908932
Ni 7.0900034864026615 3.975060563739821 7.6563723408785656
Ni 8.89983642354319 8.314378829330924 8.18750984614027
Ni 8.035153386174132 8.695643740310983 4.35961628594502
Ni 9.958129138485527 4.988714044010203 10.034250527047583
Ni 7.1403875079853725 7.644909116906702 9.939128097352635
Ni 9.469176816178546 3.861626728838797 8.057980084012494
Ni 8.14846668142209 11.009002067329842 5.395869623699939
