28
Energy = -117.4776306 eV
Ni 4.997343008512196 9.359751590417964 8.366940908740823
Ni 6.811607536869816 7.95155410609773 8.844664709077279
Ni 8.611959157848181 6.5411910575979775 9.315437306186809
Ni 4.743432389675515 7.04699513086344 7.9544170084757955
Ni 6.624468146213474 5.629432275309521 8.452704742602643
Ni 9.100979274995513 3.0397987438138716 6.4388039257241365
Ni 3.835916317519176 8.665831832568225 6.448926089477931
Ni 4.661074568321477 4.693499338807468 7.471213713948238
Ni 6.879676402720428 3.5980075123371993 7.134031695495864
Ni 6.1954524553902806 8.389936635999522 6.580014480788379
Ni 3.4907730717887193 6.35061915309451 6.016185144709696
Ni 8.063657565348484 6.961008795438452 7.060413339843295
Ni 4.714158535326237 2.4572396867861666 6.870601481012581
Ni 8.8041074112791 4.825552830064694 7.784950161624962
Ni 5.007008833133025 7.789400783148356 4.556896155490944
Ni 3.3699695139093895 4.0516139731482586 5.519589605763088
Ni 5.941036414436794 6.012164864650432 6.047749559201891
Ni 2.6532549881337313 7.995411539866894 4.521851871872378
Ni 7.378341963133845 7.330174963722274 4.814929908714272
Ni 2.3788498511550813 5.730019963940753 4.021740616289092
Ni 5.608878154550616 3.723936234195621 5.212361558525874
Ni 8.118033922991637 5.023333962513751 5.466130247827106
Ni 7.602229507059926 2.7505871539194633 4.727785702081108
Ni 3.8074224616823975 7.125300772540756 2.646053332055948
Ni 4.658499497410015 5.408838055596279 3.9129294965018904
Ni 8.58143558019675 6.083819057700212 3.321857320861608
Ni 6.870139456364604 4.602760835672053 3.4755252345178764
Ni 6.257706671229917 6.7565447606937905 2.7831267836852716
