27
Energy = -112.347452 eV
Ni 9.009105247038304 7.104680148613482 3.2950453123535004
Ni 4.734402658414434 9.170131167106817 7.832859837898076
Ni 10.582934259108988 6.581006453268776 5.103467197383984
Ni 5.349970242111275 6.886996541271892 7.495661933857145
Ni 7.911381090163721 7.151071563170526 10.886562903074063
Ni 5.095930959753692 9.776961387824977 10.109115360522834
Ni 4.312688712351566 7.5420075138539255 9.542479595258044
Ni 8.695840639903324 5.852347890389521 9.012754787832302
Ni 9.162966933577799 4.978125590600128 4.147609631590639
Ni 7.117692463781966 5.704136452856196 3.3871618233729093
Ni 6.6486143761175605 6.382152896966808 5.555829215216448
Ni 7.289836479116716 4.170818528320963 5.294423290836511
Ni 6.481602698612312 8.817557497360646 6.275820524235798
Ni 8.87311237432892 10.625179652482908 9.27814663803991
Ni 9.08408845090979 8.301311940018316 9.286142938802469
Ni 7.436939066554542 9.570981346255808 10.764584778113504
Ni 7.739456565687188 7.209789931313356 7.489279846370726
Ni 6.732512893325588 10.377279946358971 8.310847221787538
Ni 8.624451364386951 9.426305466603079 7.2558284155578345
Ni 10.081323011869564 7.349583725083924 7.358993030842132
Ni 6.909252374676364 8.048820281357303 3.9883958862537114
Ni 5.76775295671045 7.832023606553674 11.378779051625235
Ni 8.949242099046966 5.4559460641507 6.441185266567396
Ni 8.693988436912784 7.913379078719276 5.4459950516503
Ni 6.273353701072739 5.9942997091748715 9.61242244485509
Ni 6.869498212161631 4.98112521921953 7.549251053799926
Ni 6.549012118259476 8.248817732411064 9.126892247851893
