24
Energy = -99.06247328 eV
Ni 3.2751573316034914 8.799310011206924 5.963078091240454
Ni 5.5920026493130495 7.555380105090308 8.900956971139998
Ni 8.939034490341792 7.270309767854363 8.033751101583778
Ni 7.083443379807976 5.697763636711079 8.572792535178088
Ni 10.981795306828012 7.6680004342758386 6.942523248502185
Ni 6.958220545752723 9.634704093418316 5.76853078845009
Ni 5.809654164101377 5.853023214039494 5.2671507031046785
Ni 5.296348659361671 8.138694591680922 4.943124990981347
Ni 8.963650222055856 8.619399247208543 6.19522261286903
Ni 4.79949573667582 10.408066423766046 5.289864466250091
Ni 6.242289652100596 4.201293885814028 6.9618916427099125
Ni 4.05192882082401 4.674881399539398 6.303822019835533
Ni 9.802301208886988 6.695496472110593 5.183669361375093
Ni 8.432749509278809 3.927444352827406 7.835394267749489
Ni 5.150609096861043 9.186070616596272 7.268358555601346
Ni 9.210140035636208 5.473177879319509 9.476571300923291
Ni 7.70167146115616 7.492993568916688 9.925055113475883
Ni 4.304532011183384 6.920256109705071 6.847332866615124
Ni 10.10550583468059 5.4890783762107445 7.236505751403015
Ni 4.792535824754008 5.332252149779911 8.435259172068557
Ni 6.739310605122687 7.408871072160579 6.82527491725571
Ni 7.402271774980344 9.173310108001159 8.157304765460532
Ni 7.5575035724574295 7.4378821072248655 4.649558934225014
Ni 8.021879291194214 5.512827413845135 6.107124659628665
