21
Energy = -85.90084988 eV
Ni 6.724534741514368 3.036881158041055 6.02640831447577
Ni 6.479627906491208 3.228427649450448 3.6031534448873757
Ni 8.541209239952401 4.052710322500797 4.4357685695444315
Ni 4.594108264316211 3.8096158733049386 5.047145423948504
Ni 6.292598647652836 4.7697528767787984 7.5896949247901375
Ni 8.34702080152061 5.113224684369298 6.528437326870794
Ni 7.336490977600169 5.552613318878571 2.935522854303568
Ni 4.622178846807979 3.226839655444748 7.3249132433162885
Ni 5.0018204031492415 4.956210011703771 3.024640596803796
Ni 6.578671778497886 5.09397767163074 5.03240849972933
Ni 7.887705450798066 6.967917154334062 4.919372324055966
Ni 4.894927206006625 6.141752540873542 6.164539729567049
Ni 3.371795100795554 5.908553990098404 4.459656311907008
Ni 2.8984924692831178 4.5567010808036486 6.452776419444839
Ni 5.632494287120515 7.007005583261115 3.9393233290872307
Ni 6.970895282798108 6.955832493424677 7.1422716170808735
Ni 4.1302825739637115 5.5167195404629386 8.220716993748315
Ni 6.239371274416653 8.546236492452508 5.644187633977763
Ni 2.7181307600834517 6.868432274947422 6.710140709007165
Ni 3.98031745138636 8.144925690887973 5.215263305422171
Ni 4.78422102791189 7.930251124234305 7.527488703749261
