27
Energy = -113.13134126 eV
Ni 9.340756396458369 8.874284950724482 9.274498137033717
Ni 5.135575731376775 7.377377562624078 7.848413023788064
Ni 8.010361581137726 4.649894855776963 7.455178327087997
Ni 5.776134411906511 11.188218367643168 6.989652664861172
Ni 8.806671212816982 5.929510917444838 3.8480134415346305
Ni 10.882921831281433 7.50056182442007 7.794317453863807
Ni 5.6047970724153275 7.7956390309242805 10.21390498936554
Ni 8.001973683555443 7.942151313420259 4.789936786598581
Ni 7.2361623526286465 9.597911442222626 10.421108123467155
Ni 7.698571403745162 10.42532221865902 8.18603303619577
Ni 7.9462741277427025 7.279156595534806 10.634642877128357
Ni 7.370310878880214 6.76794044435869 6.682845308497056
Ni 9.674646431203685 6.6029996887339895 5.954564326635239
Ni 5.399609383900578 9.66041927478667 8.683141700725304
Ni 6.625177051561927 8.287514939261099 12.218167436435186
Ni 7.23950376927094 8.17729601999845 8.534359447553387
Ni 7.094523296799545 5.080950514173343 5.181076248367114
Ni 6.676377990116646 5.919193397913677 9.014940788681436
Ni 8.977260426216287 6.544329632762959 8.6152554556791
Ni 5.47331316665765 7.265084193130052 5.432582815690304
Ni 6.584815290528909 6.596194047712501 3.4897687073719603
Ni 8.984844902836215 8.6470905800047 6.930650346966584
Ni 9.334892472010583 4.325664023304375 5.511927314285698
Ni 6.72134671659788 9.164463004024077 6.34500860648526
Ni 4.4546814953850875 9.20470499465526 6.522748863137913
Ni 5.62275634428541 5.210244609778393 6.990401213244819
Ni 10.408223712524533 5.068364689848161 7.5193456931608935
