24
Energy = -99.27508161 eV
Ni 4.2912370080514535 5.4612352410180796 7.46040716537085
Ni 3.4512657514847596 3.554356183786866 6.351382440921014
Ni 3.8588950638345016 3.813369199832601 3.964778261703914
Ni 7.6065172281289 7.657802313629423 7.516700432201801
Ni 3.159495754500656 7.399157335190941 6.731910623720055
Ni 6.510771304570647 5.588110628389934 7.870598617733649
Ni 4.903128879693269 2.1753964286575664 5.205684300463026
Ni 6.567467740625427 9.291789759896103 6.263763920380656
Ni 5.694036221867505 6.93261865724315 5.861437252083795
Ni 3.560664225047749 7.663754083174256 4.345894707003866
Ni 5.582752760167632 3.195640950174364 7.395630909634976
Ni 6.230263131527907 3.601444258698532 3.6197351359433436
Ni 4.94667734470349 5.890708438997903 3.6224778703505716
Ni 8.302694176678546 4.083748470775885 4.741072768906771
Ni 5.8633887954061406 8.275378061937698 4.066358225468922
Ni 3.357675191609552 5.6003269343948325 5.3266059051073755
Ni 7.163506363939641 6.018487487910502 3.988872663668897
Ni 4.381010438100894 9.174816312827614 5.884327537592321
Ni 7.088248285922361 2.3121277731279455 5.589606180062156
Ni 8.097339441239292 5.876436311165761 6.157936691253128
Ni 5.8550174465507965 4.549305161735511 5.631311494122794
Ni 5.227647605328606 7.8730047902503735 7.850574969519602
Ni 7.898557369489991 3.8226802361832797 7.14642148387419
Ni 8.011423132606204 7.920413936647087 5.108456988264689
