29
Energy = -122.44309868 eV
Ni 6.606007976472663 7.056284635789679 3.387700781542064
Ni 6.927097579672245 4.804484664808044 3.944220117839063
Ni 4.738834132269697 5.712413493412139 3.5195830231780505
Ni 4.687610608662377 7.739064950213745 4.735440599982637
Ni 8.460219736981019 6.455238429743474 4.812657471142526
Ni 6.87261363821202 8.32868540781376 5.269402332612217
Ni 2.889941698678218 4.356335444080776 3.497155087278946
Ni 7.279497307859766 2.5152009588937037 4.069112922478307
Ni 5.043528886961962 3.348847246168605 3.7557702362600986
Ni 2.735840238416426 6.4272758339481575 4.728688697981744
Ni 9.021543599670178 4.0516681027932 4.588252628196429
Ni 2.8971590398864833 8.520318606771381 5.960239602475823
Ni 6.073892413904549 6.027724734474758 5.841868296362818
Ni 9.125252490031187 8.660124438038286 5.578043675286563
Ni 4.044120905770412 4.6207525297285965 5.49603616350043
Ni 5.061973794708758 9.495002582311946 6.3472311587606285
Ni 6.078956932892764 3.4414961635458967 5.892433193387141
Ni 3.8276717368493895 6.563156565909946 6.863791532010546
Ni 8.227034495738287 2.5261772504684292 6.240346124590572
Ni 7.444093731636761 9.491897342031658 7.125165375380247
Ni 8.07372996018258 4.827747243370089 6.559046784266175
Ni 8.09521226897449 7.173632048561897 7.0063205567722004
Ni 5.87477143947243 7.781599486555094 7.622755049387301
Ni 4.9067584561332875 4.550522712287071 7.661390853885298
Ni 3.7571622330674335 8.522235389525322 8.166989426425483
Ni 6.812749868369379 5.735177394857984 8.349254908563687
Ni 6.957468611885494 3.3775411683796057 8.085090209124807
Ni 4.641536882842496 6.443058217223595 9.095818946173102
Ni 5.666203139966188 4.385283655464965 9.850233197919875
