28
Energy = -117.85017266 eV
Ni 6.9878249773767935 4.1061224935047544 5.762187162759992
Ni 8.606934182915102 8.028456900375941 4.613415116003288
Ni 7.150177311067581 9.96593373331648 7.777203021229444
Ni 9.131890382339279 4.559714269903233 6.755495174845957
Ni 6.218623256529586 7.517200906337753 10.73132116594263
Ni 5.301865274903066 5.7121990096415995 5.430469782079152
Ni 8.698152388250412 8.45937808658625 6.968837403956422
Ni 8.768440735490474 5.205801292817305 4.4716261495837655
Ni 5.902240543199946 9.549641300611507 9.627226107789557
Ni 4.898471903190344 9.042993683526127 7.465067123112724
Ni 5.007933657623888 4.376757939804498 7.338671925529109
Ni 6.607593635000688 8.640826499633935 5.894924288834335
Ni 5.409321226388369 5.704930844185897 9.332295489990724
Ni 9.973082868513377 6.66230976422873 6.012759278044988
Ni 4.2983482832738416 7.8290219486623895 9.425012924649213
Ni 8.190785572016962 6.621094401167047 2.7376443136941733
Ni 8.942685125295775 6.497658982005053 8.138146976220456
Ni 7.516160399165879 6.401411999356589 6.033712301101997
Ni 8.146688576273043 8.394625043838264 9.41370714528894
Ni 6.5547998896906385 7.4427499001015525 8.111410088450794
Ni 7.731856564399597 5.973752107784324 10.032655479293268
Ni 10.351827342981268 6.768134769347229 3.679199220442122
Ni 6.355940256953963 7.293754207154695 4.0221303424001835
Ni 7.148017236681678 4.9532411501801885 7.96362874967617
Ni 4.402410682940167 6.670930977123353 7.365304008764956
Ni 4.579699986062049 8.971214118837606 11.409664496642252
Ni 4.448017675590382 7.920463957883992 5.352132742644412
Ni 6.61494040650137 5.009426777277114 3.5610604515065716
