24
Energy = -100.03051489 eV
Ni 5.777799467764112 6.05582911563424 9.54635188151211
Ni 5.191075060074821 7.703098674039431 7.92511358315525
Ni 6.925165512751716 9.019271778519292 6.727881984119139
Ni 7.485663495974319 7.151087467464017 8.228902278564291
Ni 3.9190010470454393 5.634175738508832 8.301545773492078
Ni 8.573817866088941 5.355517532087103 6.991438634687024
Ni 3.7356090450859734 6.7247287217698535 6.259282569238694
Ni 7.584877395538244 4.791560021593888 9.01959148776207
Ni 5.5048323877522325 3.7265299398262752 8.165713604818377
Ni 4.434127453292134 9.066179009137349 6.204053261560042
Ni 8.895922006899372 7.646269859834992 6.448326902216105
Ni 7.904967990427829 8.434253256767162 4.5134517346975445
Ni 4.076015531620314 7.775658366091341 4.171190165881243
Ni 7.676891720134202 3.22386429472326 7.281980839262132
Ni 5.951315789035052 7.348935732252135 5.582163514056145
Ni 5.830352048867544 9.364895127965967 4.328693146537905
Ni 4.014789422306314 4.352766189277637 6.381168311523893
Ni 8.435251833797864 3.8747812332170075 5.106340160931214
Ni 6.162036135121865 3.8024415340650504 5.5789284149837
Ni 6.169997650501737 5.568440878943864 7.112638558964907
Ni 4.882519672970647 5.531889305643872 4.532134467311256
Ni 6.27356725688747 7.091671014428445 3.2888431500443813
Ni 7.878530859952117 6.138794601930237 4.9152885894469875
Ni 6.810783998729644 4.712271254898332 3.4838876338529317
