29
Energy = -122.99759424 eV
Ni 6.102309314108758 2.4289237209678136 4.113670383738814
Ni 8.32952970820695 3.012984202352037 4.214869546313203
Ni 9.114541015219862 4.529262466393655 5.92185967795859
Ni 6.767147911235234 4.374237976059556 2.8856572364271917
Ni 7.066146401115692 3.0584874796543895 6.223382303358904
Ni 4.449693042813693 3.739036979540631 3.039683036206055
Ni 8.938982475664977 5.145738212812472 3.542159985383905
Ni 4.937512790629732 3.989125735929446 5.370067525370243
Ni 7.062551762819378 5.093023028835567 5.070669005542348
Ni 5.0596169610668635 5.878501754900389 3.720749315796071
Ni 9.010268755085505 6.865392726711385 5.104770849526634
Ni 7.243704326225252 6.851649173054344 3.5286690073344786
Ni 8.079159649712542 4.254579157905765 8.041479680925246
Ni 5.841977088877915 4.725808585697795 7.453488151443543
Ni 7.809796907202195 6.3487572832058285 7.009925733042487
Ni 3.5763843524455634 5.341202264831083 6.759625413561759
Ni 6.9026280139088385 6.053888938705888 9.130154151844781
Ni 2.963499572355614 4.957243982079757 4.4632551124956
Ni 7.129996417495428 8.223320087014688 5.588316161004197
Ni 5.351208215057551 8.18692287219537 4.038903723963031
Ni 5.48331188261479 6.6135398403479915 6.034456881877018
Ni 3.435655198942015 7.201619857427343 4.980720749018286
Ni 4.668694944309374 6.573718471205755 8.472671602322023
Ni 6.3830686727543595 8.079673066473827 7.880734366162473
Ni 1.5661444056617155 6.198629411718376 5.936412195279402
Ni 4.774631280568124 8.842204213259109 6.263502985500227
Ni 5.746670963036048 7.842751954612339 10.120232001990647
Ni 2.9109899502826733 7.612919250307983 7.256456949701947
Ni 4.277805026220326 8.912221187771628 8.59475127176568
