26
Energy = -108.89951526 eV
Ni 8.35601623599174 4.691461807456097 5.308377941371343
Ni 8.132017230495094 5.543548827338932 7.502055811987403
Ni 8.65201967205017 7.160987674215208 5.8342606901607095
Ni 5.894139926607307 5.404001436277641 8.51906216026013
Ni 6.69619867214798 7.320459304395273 7.349187059179418
Ni 8.589925457930155 8.59826290131404 3.9565523911916642
Ni 6.235194601487321 3.836279579415075 4.656419108522748
Ni 6.8112889677400865 3.7240024055603933 6.937139737596594
Ni 4.992379792437204 3.2370498829538734 8.34552484825811
Ni 8.257220707133122 6.348905122318144 3.4980984629637724
Ni 7.05854417377494 8.970240143886553 5.669887938643698
Ni 6.635805273746409 6.298988943447081 5.159848476699753
Ni 5.468131084860341 9.288940496644754 7.386408200549939
Ni 5.020713056764709 5.160386861425892 6.383138217922149
Ni 7.875332858251786 4.104723745935549 3.0402474009744873
Ni 4.553685791958583 2.917632217386445 6.033913085282647
Ni 4.387422262292624 7.144334777647597 7.765155453852011
Ni 6.348793589671892 7.958507454756074 3.593603604459708
Ni 3.3937201310792755 4.999695656553131 7.9983118777672955
Ni 4.913060570035857 7.928643038915543 5.607495102185534
Ni 2.8594300250656 2.678264902649917 7.698102069662042
Ni 4.070291141211122 4.700182740227461 4.279911119242435
Ni 5.97494963713105 5.540624735596219 3.017210891960556
Ni 2.507039364119895 4.117923156813271 5.941035135230715
Ni 3.121914929283131 6.383684830577925 5.837883112292449
Ni 4.191367396319489 6.938869905878946 3.6777726513695814
