23
Energy = -95.53681402 eV
Ni 4.223312108842568 7.003205805594836 3.2789609013932735
Ni 7.132562557737423 8.569728045054127 5.443499724546173
Ni 4.951176477172486 9.012594947234904 4.497333049436852
Ni 3.3782834267488737 7.446712317701104 5.431889642410387
Ni 6.514498977274253 7.738592155306857 3.225038916260819
Ni 5.636510284023152 6.783973710789234 5.203775243635861
Ni 5.184433033763297 8.428269086025894 6.802703512502342
Ni 5.978428889278426 5.395159765817552 3.2966225542252605
Ni 7.834272514884827 6.2886465717302285 4.610642280110058
Ni 4.6887398521815165 3.756277459397133 6.769762301647938
Ni 8.963414098835708 7.41881426171476 6.263745770766453
Ni 8.123084031783536 4.565512897540464 8.825452694178221
Ni 4.070892139648582 5.112543537574017 4.854940437707705
Ni 6.4278027950131085 4.507402544501976 5.435731947751409
Ni 9.089383276075656 6.595188557063634 8.349219201411382
Ni 5.263743318058837 7.302800874123219 8.811212692096241
Ni 7.350637732440718 8.391883497799295 7.919704508679639
Ni 8.600582301889935 4.948477151652516 6.471924366010722
Ni 4.347373390418768 6.058424762188872 7.074103920849259
Ni 6.899122368549459 6.274258971766892 7.215710154758675
Ni 7.214557302769795 6.541160687819903 9.67404498237879
Ni 6.9561445722284665 3.3002675264864316 7.312681164889062
Ni 5.7195455704534375 4.855895024268743 8.63233909112335
