22
Energy = -90.23321284 eV
Ni 5.918110342811859 5.904564427825892 8.695765428297172
Ni 3.610278082873449 8.461396587425108 7.236707139302204
Ni 7.670125582715129 6.610657395163318 6.72320399453407
Ni 3.622456762189415 6.138627085340678 7.97139941834314
Ni 6.798046539033446 8.221953370001861 5.293308975525224
Ni 4.6144682417289316 3.9773129154533198 8.064184455741076
Ni 4.431597848192688 8.299425982364028 5.0133806970206205
Ni 6.351412908083489 2.3777243345915906 7.483127345125699
Ni 2.782238372631317 6.8410146702579215 5.803181906150203
Ni 5.345360010571941 7.019073507440808 6.756155303396511
Ni 6.457056760734806 4.606121750700165 6.867485206112565
Ni 5.895001353456968 7.722786084068775 3.2378133668687936
Ni 8.352471037280274 4.801507302667178 5.435952151545674
Ni 6.18034939401073 5.852506996038435 4.802463729864001
Ni 4.090248966077315 4.960846943868445 5.950651955494562
Ni 4.629039947766312 2.7320919331693636 5.978801303296432
Ni 6.844530858495137 2.974466811745206 5.237403626097538
Ni 8.050437007343483 6.669764719954044 3.8933587648501486
Ni 4.062390440078052 6.227709340484249 3.8788270922021875
Ni 7.448237625732774 4.313287356045752 3.3736590309595136
Ni 5.080034836251929 3.9636523902659206 3.9771502464455444
Ni 5.824562884778474 5.593980880391302 2.3770698552520124
