23
Energy = -94.55613959 eV
Ni 5.682203332883144 4.566036161468767 8.238372429897105
Ni 3.7765757272012244 5.794493668504825 7.543878041508856
Ni 5.285634550703308 9.249987263020225 6.7058026950085905
Ni 4.603339241606753 2.344265251021842 4.771817661264408
Ni 5.845799369209162 4.137721196740366 4.144914454389064
Ni 6.542374818849683 7.7513290784288476 5.523562120253811
Ni 7.914589390854101 6.450396518594545 6.95063991851164
Ni 7.29756354020537 5.998128656359499 9.128408423596458
Ni 5.130583682298703 6.4412917372502285 3.8563465967857944
Ni 8.504868208270878 6.918991097227291 4.661652228032693
Ni 7.274234235470387 5.655843235400778 3.1642793718768147
Ni 5.799377078265297 5.482287553787385 6.1529603888323345
Ni 4.939126659370776 8.909270471597424 4.290204358368975
Ni 2.483126520555677 3.2366034751059907 4.9306625182144765
Ni 6.357868557452383 3.114414142360459 6.244347646238195
Ni 3.5398212394287736 5.2718305117955575 5.207790659321888
Ni 7.912115789211341 4.223562979117136 7.628677432589957
Ni 6.838178595340767 7.953733503632845 3.2376500908380614
Ni 3.779902355230279 4.195878616004231 3.2187633418502744
Ni 5.734425542099447 7.1803264107464395 7.839061314111307
Ni 4.101201574411949 3.598466274183331 6.687529014071389
Ni 7.879695535942904 4.730927027786218 5.288857554614414
Ni 4.1926207947576035 7.40181556859628 5.890011306287505
