24
Energy = -100.3663361 eV
Ni 5.173531823260603 8.625144727167571 4.349324502081828
Ni 6.185337187414352 7.059587078602158 2.7951875720419306
Ni 6.4353795557094715 8.699466773955976 6.4911044481216935
Ni 7.695444974308674 8.43007528761274 4.304890732385447
Ni 4.298063750668862 7.406101962037228 6.296310611019517
Ni 4.153033699553833 6.354394890394012 4.074625856895464
Ni 2.843144262423651 5.442533130964665 6.004432873359708
Ni 3.8722151996243444 3.894815897645704 4.4429686089149625
Ni 4.015343234766489 3.3963895346752726 6.925824773489443
Ni 4.201790790080365 5.649136475028109 8.079254262530137
Ni 5.072232895006096 5.104848487288689 5.92944059127427
Ni 6.019789118536287 4.805684293672253 3.720516713332253
Ni 6.350468997020966 6.433519990452369 7.3108308630145595
Ni 5.144887981618 7.937517541654767 8.508583570969487
Ni 6.325781155166224 6.813640567848712 5.040190935840363
Ni 8.382620302707762 7.136512528389054 6.274921850546234
Ni 8.194583541597211 6.009172658914978 3.9493148457486713
Ni 7.602830108985223 7.873499351865153 8.525773917791833
Ni 7.597118749141803 4.82494556363442 5.97285856584187
Ni 7.942621327727133 3.5869614747299696 4.081333711266362
Ni 8.223828228884056 5.524356015303036 8.197987147048638
Ni 6.20423237486199 5.961683451682971 9.517929913806423
Ni 6.172897616645605 4.114825557063515 7.847886521473196
Ni 6.026835023116953 3.0491986582427533 5.492518510031919
