22
Energy = -90.4464166 eV
Ni 4.507445626120553 5.300301621602933 8.139516140523638
Ni 7.872839571969837 6.797915070037214 6.651596722590313
Ni 4.691510779131066 5.456307632496072 4.2136690344634955
Ni 6.033582633311547 3.5610944663487545 4.945037978152045
Ni 5.512128301597094 6.7622928035342955 9.675547245874066
Ni 5.907577861989183 3.474113164782645 7.373814317683248
Ni 5.7846606793011155 7.5932208986903555 7.528750957425423
Ni 7.9295482211007435 4.316789054888463 6.2818693106543435
Ni 8.165840925083188 3.77270759910543 3.9151991986946837
Ni 6.976400012072099 5.352489427403438 8.344144544875096
Ni 3.7622071072649224 6.502436682092555 6.152963423766968
Ni 6.239721400259976 4.470415794156097 2.7558613750746233
Ni 4.166598703449517 8.733238079379298 6.2292975159802255
Ni 5.913065649371862 5.515207949028081 6.222411159422316
Ni 3.9789829120049003 4.1100453608161205 6.088096588435636
Ni 3.6350819787454713 7.513593175406516 8.325913575112112
Ni 7.49131191130163 5.898249421691463 4.473987881808517
Ni 8.140072622673488 5.637873779642208 2.291353602646456
Ni 4.076180811229567 7.719143979830424 4.0339094294611915
Ni 7.632432561876055 7.494173904291529 8.930311251418436
Ni 6.063617843529402 6.845010844645299 2.8719959503288592
Ni 6.058820559428047 7.636189724902974 5.173997412263228
