26
Energy = -109.18151715 eV
Ni 9.016760546304791 6.912157457362689 6.9495830922029675
Ni 10.734749716627718 7.410313026778336 8.433946695391963
Ni 9.59889848544818 6.704325131556524 4.755377919492764
Ni 10.807854115165417 8.21281472520141 6.193566756137297
Ni 7.186440125168499 5.582792872659617 7.6970233906087095
Ni 10.91594297633727 5.7508539169437665 6.642251281275471
Ni 8.413458617339037 7.420993599699378 9.299096867669935
Ni 8.452143643471244 8.750337576057447 5.467713166818062
Ni 9.248071395924237 9.23200467003245 7.787387964002581
Ni 7.1864605244784805 8.186137099487041 7.4044696866254345
Ni 7.1864061263188415 9.563865663496482 9.191341189881559
Ni 5.9206516097416895 8.750344375827286 5.467718266645439
Ni 7.186453724708331 10.359274058847266 6.85494836750509
Ni 5.124798654757848 9.231963021441723 7.787385414088891
Ni 7.186348328274439 6.614127224078389 5.36534309334654
Ni 5.959454781876546 7.421042898031482 9.299113867094686
Ni 8.717524938589703 4.812736920214252 6.064920247750285
Ni 5.655229516003421 4.812723320674268 6.064972945967468
Ni 5.356118004089751 6.912126008426719 6.949686788694555
Ni 4.773879768340002 6.704383779571999 4.755436567508552
Ni 7.1864375752548115 5.4892098269200655 9.958693774581658
Ni 9.383093352029228 5.319084094088182 8.593489426380719
Ni 3.5649504877313527 8.212864023533514 6.193579505705744
Ni 4.9897469496593505 5.319151241816268 8.593468177099663
Ni 3.638119484083295 7.410297727295888 8.434001093551291
Ni 3.4568089283423205 5.750878566109741 6.642286980067589
