24
Energy = -99.54247073 eV
Ni 3.988847474267266 7.4624207258585935 5.9603095361945035
Ni 6.342776158880933 8.699888357049405 8.876449611741977
Ni 5.702088288872906 5.734184757573616 8.91394138554593
Ni 6.076104062092601 4.40779018977968 7.023534956639468
Ni 6.22258521404885 7.001151149602246 7.015314859274129
Ni 8.35537988475951 7.6934191329290655 5.477480631983829
Ni 9.53594869043045 5.99253269897548 4.467003425199372
Ni 5.017904330961284 9.299082402963998 6.914019360168029
Ni 8.31680856644796 7.7241606909893985 8.024230782199902
Ni 7.238888063964598 6.530857690894846 3.804480776188835
Ni 10.187450464954651 8.613055453557571 9.08965350158383
Ni 7.964038721488847 5.307881826160708 8.12408062248664
Ni 7.481128207394794 6.732332524751276 9.977768789402417
Ni 9.758872079260785 6.295241689450335 6.828742677696414
Ni 7.284111790828689 9.404602361432236 6.658681277961253
Ni 4.3056562476122835 7.552502852112291 8.322275877141347
Ni 9.697772079412607 9.097543932151918 6.765725760722334
Ni 4.037062331162298 5.482417050910223 7.171431520269352
Ni 7.766194193380724 5.370846412373516 5.777977759242112
Ni 5.437507131400964 5.777003907296456 5.147736633878211
Ni 8.425671817903748 10.119341843915645 8.54157257092439
Ni 8.22628077924619 8.825929840323058 10.414357854050031
Ni 9.7635646301406 6.3414921785509835 9.252594778283814
Ni 6.044543089707622 8.207019955980401 4.988914100859466
