23
Energy = -95.91215611 eV
Ni 5.7638671512941615 9.018741838408996 4.790159538188613
Ni 6.785126540452262 7.444168381391109 3.21033447020451
Ni 7.026714068812653 9.106432640568663 6.940007246925567
Ni 8.215948109432558 8.936858263676504 4.759161972659241
Ni 4.905964295404343 7.808015778572989 6.742013874871018
Ni 4.7791387995752 6.736270275394993 4.49819080729271
Ni 3.4455361241834703 5.859627276904411 6.426404873890776
Ni 4.483446244238525 4.286995600805764 4.847929043552773
Ni 4.509693505586455 3.8655787669336754 7.392042195862713
Ni 4.802960189682889 6.071969313296659 8.517132791656662
Ni 5.669286829895552 5.490275707251197 6.35684479401669
Ni 6.732364374381015 5.163050429317014 4.218274297110846
Ni 6.953483811942087 6.836187710689505 7.728919243463984
Ni 5.783468476691756 8.317414464754291 8.974185808398852
Ni 6.924974325857345 7.203529663127608 5.463810088590816
Ni 8.980522798566334 7.529684673988427 6.666905273126563
Ni 8.785281739772326 6.581767089920408 4.356143958594136
Ni 8.238614994926388 8.23623434027211 8.952950987564005
Ni 8.12797538240355 5.217495249353006 6.2803184503878295
Ni 8.81894606932851 5.8765321779071 8.544824280675652
Ni 6.837353875056354 6.319924090699361 9.924658658011836
Ni 6.770388173513914 4.496643605072755 8.236115395281965
Ni 6.479860959218984 3.4175195019085405 5.993588789888406
