28
Energy = -118.15916701 eV
Ni 6.2885800947069255 7.991058791528027 8.307318666886669
Ni 4.7797260254924545 6.186034569187466 8.595384175528846
Ni 4.8079682379893605 7.382664114154493 6.5521230602230505
Ni 6.961204650435933 5.863481236177029 7.68550408618099
Ni 6.419677005881848 9.104745631147589 6.23649443495195
Ni 3.3145224960715547 4.406002249454719 8.910586187236929
Ni 3.2243121781287547 5.569130308403865 6.85009686865504
Ni 3.8067159400531376 6.420154855632962 4.633478595863379
Ni 5.401105586615565 8.178179161708561 4.31821764228583
Ni 6.783177566344134 6.618325416328699 5.458356474018565
Ni 7.868731177473415 8.360877541384601 4.499443785212613
Ni 5.506884140860552 4.002018898072069 8.084895681635969
Ni 5.218927614386311 4.8751979866409405 5.920627883643709
Ni 3.580779464340342 3.1567297219386066 6.964266782606989
Ni 3.081024984489213 4.150645062152419 4.8636224436752125
Ni 4.435946221987698 7.200908486607939 2.4262776539283055
Ni 7.611027614761154 3.712048095792524 7.053696793138145
Ni 6.827739502638954 7.566978057771436 2.526144113998978
Ni 8.22254654234807 7.767550712953969 6.883344183681067
Ni 3.7586531861330608 1.8606550095445438 5.034996084403008
Ni 3.692177206990515 4.971403897535498 2.712329749046162
Ni 5.84907470629885 5.65301996754273 3.4861631064056238
Ni 5.773528574466414 2.611596137481254 6.035997111238706
Ni 8.217856753038372 6.046534181322692 3.718661893878344
Ni 8.756396632427984 5.514640625604108 6.038782318150865
Ni 3.0079668508156727 2.752084309908438 2.991448504736109
Ni 5.098012050860042 3.41082131045699 3.8314175609332444
Ni 7.192347192738779 4.143732279224165 4.779713334142837
