29
Energy = -123.93120996 eV
Ni 5.723295878147162 8.053503450072606 8.130669755592997
Ni 4.449085837579153 6.025028296716808 8.129654924282313
Ni 8.045735896378481 7.824668007333264 8.047260021040156
Ni 5.579198271608325 3.912046784705338 8.05288947284293
Ni 9.230888884704644 5.860848146628192 7.929063430947005
Ni 7.917860383576796 3.97316952368797 7.988049881765804
Ni 6.9852067549429595 8.453601160883089 6.0055680337957424
Ni 5.071609714940194 7.171495329897653 6.080085198144927
Ni 8.872876741367893 7.086446068347556 5.877408198203628
Ni 4.9861190935064235 4.9117756209034695 6.0350203536359555
Ni 8.803005111501907 4.728277768609645 5.840972860208387
Ni 6.8171336260706585 3.5121591158116003 5.917232437542451
Ni 5.50435133526725 8.135873600830166 4.008667583118637
Ni 7.824902906566262 7.909371987686999 3.8364165290745857
Ni 4.231069584640732 6.105286251994728 4.05975284436087
Ni 9.010540671368336 5.939296287575059 3.7598565227508027
Ni 5.363432010173541 3.9967292111764707 3.9302890837190123
Ni 7.694934515525355 4.055811130599028 3.7686196598337514
Ni 6.573902297695058 5.92314108700937 9.278443181022567
Ni 6.96470745732109 5.944444991665167 7.107151043906972
Ni 6.841035602347397 5.998581219703159 4.807178848774829
Ni 6.220344421428185 6.064604980624902 2.691175989980196
Ni 4.897258414083815 9.503145023250404 6.126081807616733
Ni 3.2625110929883925 8.164909831278349 4.974563617749431
Ni 3.392439221687966 8.11994821038584 7.3993926247171045
Ni 2.898385827902672 6.112398032020019 6.1699716436715795
Ni 3.2489743807215214 4.035594506053453 7.3291078485541306
Ni 3.1228869747933587 4.078939888606455 4.902506242584771
Ni 4.665430260864994 2.5980276556435076 6.016073530262253
