23
Energy = -94.9878315 eV
Ni 8.962297353177119 3.6514656883718155 8.548133179321312
Ni 9.572048070825451 5.846218734211846 7.533946825004832
Ni 7.579251830639152 7.165642204018767 7.256300023849302
Ni 8.691741144940798 6.365096259878342 5.300835367105351
Ni 6.525217447066628 3.5341383611023 8.30538474751309
Ni 7.9089164219887405 4.524471743854583 6.712890503691551
Ni 6.374144606764117 5.996690591380179 5.570634943326501
Ni 7.726878072617534 5.5311133970305395 8.966503079213386
Ni 7.007379801819704 8.222477004330397 5.113208012425132
Ni 7.561692145503369 4.316174702184689 4.399575607972957
Ni 7.213274377071 6.42426002731632 3.4056979571260513
Ni 5.284240214431303 4.880085580739089 3.82218238045622
Ni 5.687797973158524 5.742553646793439 7.895653482391758
Ni 5.087192159950022 7.277456997612635 3.974094227612924
Ni 5.783735867428781 3.736985019919685 5.990466630449621
Ni 4.799702632134903 9.28752003182993 5.011696770181617
Ni 5.286310512442565 7.749690927646778 6.743127434925728
Ni 4.223576986522632 3.992925172355366 7.752994877277562
Ni 3.1865468864923487 7.597859218552626 5.647063084604884
Ni 3.1504492398592188 6.0795698705342955 3.7979065977590785
Ni 3.4836021876388856 6.532251944276838 7.743699898601487
Ni 3.1336218366661055 8.44562645366019 3.493258585673699
Ni 4.045304727523635 5.355122839431271 5.845415738767615
