24
Energy = -99.91998228 eV
Ni 9.363987475874872 5.562189384496467 8.15358265560551
Ni 8.030525035870898 6.864422871650351 6.849086614759789
Ni 6.863423447169404 8.411190428630986 5.358265655149884
Ni 9.363740078110972 8.164648904347862 8.156118652439766
Ni 6.863710486918292 5.315692761346495 5.361104905525419
Ni 8.074271764444589 3.998249173512172 6.876037220156796
Ni 9.355460542804085 8.2136120075926 5.584776260212151
Ni 9.355608487737886 5.511685115297488 5.587268625355091
Ni 6.862313902323185 8.391026754305406 8.36015546657539
Ni 6.86258834303898 5.335790253325966 8.358716848992382
Ni 8.07315645143681 6.861988674345317 4.099953050646696
Ni 10.827006845711079 6.8650888838121285 6.810118278131911
Ni 5.69565107401765 6.864380070974319 6.847989169506576
Ni 8.065951602771278 6.863238248796673 9.651788188808554
Ni 5.65834402068197 6.863058210537376 9.650722612203971
Ni 4.360548052604047 8.16346122509732 8.154031489889617
Ni 4.360987387919647 5.562131551894872 8.151177697783773
Ni 8.074588195674568 9.725236706149397 6.8766047609122065
Ni 5.654589875392737 6.861814696288615 4.09901924588422
Ni 5.6505259107707975 9.724713358293313 6.875829017107709
Ni 4.371233218171989 8.21337372740202 5.582547440998858
Ni 2.8982470714857307 6.864318392301801 6.805358391282046
Ni 4.3718946171909305 5.511072508541282 5.5849354557012525
Ni 5.652088709300099 3.9980589122285486 6.875254781918618
