25
Energy = -104.38029499 eV
Ni 5.344417065657747 8.447843938515147 2.837268301561499
Ni 5.703678574680249 8.796305171977586 5.178056201454547
Ni 4.648214538215197 6.75785485543393 4.284657295920313
Ni 7.453719387120333 8.925019556556615 3.6514800187749015
Ni 3.834485518821924 5.0612606682234285 5.759476634561036
Ni 6.287749361962196 8.637081947247347 7.498970152591483
Ni 4.641811413439678 7.113216701182632 6.576682596047603
Ni 6.817447372163297 6.622730693032753 3.2411849506832353
Ni 8.109064903885166 8.697527124435638 5.997323411759966
Ni 6.835774796123185 6.810239007637306 5.5510280679960475
Ni 8.966787348685044 7.299132127528833 4.213112269640521
Ni 9.000089933397234 6.445753327116376 6.363916133455846
Ni 7.777147198432501 6.044446278422175 10.109081596452302
Ni 5.471400716790903 5.85926041180104 10.130021917048385
Ni 6.621477733832102 4.2129116009563905 8.789430616943084
Ni 8.839135584781976 5.2267053646727915 8.291287843065103
Ni 5.365699856569339 3.539205729073073 6.746479764369134
Ni 4.491259063308837 7.566240236914461 8.819212955427387
Ni 4.5033963511078925 5.244531350030162 8.057144691950489
Ni 7.414190189655574 4.578017553457155 6.557799770502024
Ni 6.560655529386491 8.024590273159031 9.788685535203712
Ni 6.588841485414144 6.375411924585658 7.9770898500830905
Ni 8.451174877568214 7.7296579323852805 8.300630176089967
Ni 8.250711065994606 5.08536789673461 4.427287378823546
Ni 5.906028956458849 4.784047152373258 4.737050693048335
