27
Energy = -113.49926752 eV
Ni 6.827648335734444 6.347144089654122 3.182180629074595
Ni 7.339129128011977 4.042051198103696 3.5237190072068456
Ni 5.1093563844444185 4.599150741114663 2.9121845452655593
Ni 8.118271856292653 5.7419973867673635 5.026419988904399
Ni 3.463188199251173 6.2805013908383875 3.4168018545760424
Ni 5.18974769518832 7.5535971381687546 4.228860034556161
Ni 5.570955693035501 2.9763342458310587 4.80996142142702
Ni 5.794278104171762 5.254073974355807 5.03178125467451
Ni 7.7446576337463915 3.473648379964847 5.748008053862714
Ni 7.360501095383038 8.02133679929268 5.042023174281874
Ni 3.577256852680494 4.268554802792831 4.652036888922233
Ni 3.624557945250635 6.375738290639121 5.763403696899114
Ni 9.333117576111649 4.830495562678422 6.847854377656513
Ni 3.1083026741297948 8.412157716895553 4.655216308366202
Ni 4.476550701999605 4.418887351634027 6.832507623432718
Ni 6.0374171833917325 2.7082795525241736 7.13906452942777
Ni 8.293682117926496 6.934965061619189 7.035027367554419
Ni 5.098405387056104 9.17101988272935 5.941088919290288
Ni 7.112901458586492 8.952585975393351 7.270608747308017
Ni 8.171661296175273 3.214852088456877 8.067929901889828
Ni 5.856634584125844 7.080595151194052 6.554211644319537
Ni 4.393440530225491 6.385965131010699 8.137945539238892
Ni 3.2318027601547596 8.240752417545451 7.028284544211961
Ni 6.724190160297588 4.984269411250615 7.378708097439716
Ni 8.404421023522879 5.469899174966253 8.916099032126724
Ni 6.672186749919607 7.033850649272461 8.799266869509664
Ni 5.0584544570976115 8.699194205129553 8.364212048345262
