27
Energy = -114.35658989 eV
Ni 7.685929682379901 7.789427067307997 8.393527834396536
Ni 7.195773847404681 9.19869982026529 6.356052194619771
Ni 7.490907439489765 5.378063719458986 8.850626570273961
Ni 5.467981299984739 8.690142366297804 7.812070309025715
Ni 9.056656552406233 7.89267797822367 6.118545970860708
Ni 5.50206767868869 6.514723131096068 8.570305272790707
Ni 9.152381845267703 5.975499008945795 7.358398464158181
Ni 5.614157198295732 4.054371898503146 8.171516299993055
Ni 7.459699583869923 4.476887377378125 6.674595924514296
Ni 6.945808906018412 6.758245373427275 6.570174350791179
Ni 7.417039090624516 7.78030112004188 4.366256100193661
Ni 5.28852820515002 8.058700650031758 5.552297607625152
Ni 4.840096550870189 5.46180687390031 6.53164673634276
Ni 3.4761498711582592 5.242700789099268 8.466784329147963
Ni 5.433345024057953 7.532460568230107 3.2256982092478492
Ni 3.6873493372394117 6.636637105076022 4.666619466743255
Ni 3.6259676542435764 7.318695118150255 7.138238043703603
Ni 8.589445841026821 5.84498708867156 4.966046407371129
Ni 7.695551790744081 3.806183768618801 4.401011603405202
Ni 5.717785606153108 3.2847801163894563 5.719603701624321
Ni 4.582991431414355 5.480373155420963 2.7052650673281824
Ni 3.6637905729852256 3.420488729870798 6.911092674419693
Ni 6.077063054136861 5.609203211791929 4.608045007918845
Ni 2.466151743469462 5.389013734702459 6.292659193320965
Ni 7.3079568313524375 5.815883103036785 2.8021060219544642
Ni 5.712221205410756 3.5982820781895866 3.299708502913848
Ni 3.8530828162218542 4.270298785148886 4.639155000014803
