22
Energy = -90.62653773 eV
Ni 7.420233646716562 7.160579923313346 9.79032880193129
Ni 8.088310896402312 10.699334779167925 8.100334572597022
Ni 7.077434840144387 5.336257590994415 6.232736114983417
Ni 6.1806312512709045 5.469579919740987 8.589059535545251
Ni 4.182458664091678 6.46039041976626 7.579776108440519
Ni 9.121853986433445 9.650166395288347 6.161024677159673
Ni 6.412559727702378 9.231539535700442 9.107073955828273
Ni 11.892284519014089 7.788109941011808 8.412122860808143
Ni 6.762899744070993 9.485782231028983 6.4819867504924185
Ni 8.581833568477863 9.32035380496885 10.06136866391498
Ni 6.258512297813985 7.271548092335941 7.195532860255732
Ni 8.43663075657878 5.932722356322184 8.00825589638656
Ni 9.82224550728021 7.392383789755177 9.422356902541159
Ni 8.2713091864347 8.344506434641026 7.927713499983857
Ni 9.455870475780683 5.515344940469475 5.956154354507784
Ni 8.100632322895265 7.477262408484182 5.728244162204263
Ni 5.045469141898563 7.371193387245225 9.48868453552659
Ni 10.223330676650308 7.625775381841698 6.771447315566904
Ni 10.276167290825889 9.535434221299882 8.323974201564496
Ni 5.692199776383223 11.02844798830819 7.840247692567552
Ni 4.644216616148118 8.891375117076937 7.597374736155487
Ni 10.795992702839147 5.754989087121526 7.96727969694979
