29
Energy = -123.0615213 eV
Ni 9.70635612419933 6.090451130185181 7.9415831540046575
Ni 8.343027541290153 6.048611408682461 9.856485824437843
Ni 8.630841644693643 5.1056563555128 6.026305382137247
Ni 8.465341619964713 4.113043705686465 8.24454023490632
Ni 6.969664333219502 4.556872538469622 4.30182477670323
Ni 8.451170111806247 8.067903040507538 8.50456331594363
Ni 7.422709532265638 3.9487161060416267 10.331347742532557
Ni 8.625638020075241 6.4847249854873645 4.017252603385549
Ni 8.903164936871766 7.4527564220716815 6.2550453389721765
Ni 7.247910418949778 3.2857330668795024 6.352188903080085
Ni 6.953763634739476 7.962621609599316 10.260602348706636
Ni 7.033498772688837 5.997689382690594 7.845470405798533
Ni 6.120373986241688 3.8450544810520575 8.389006258704537
Ni 6.815868554239546 6.54701422450916 5.3880284096537725
Ni 6.0015685181087095 5.775891342484843 10.005207016172722
Ni 6.702966451359859 8.299059663321232 6.87250887003244
Ni 7.796823788345025 8.723863808979383 4.6693990054375965
Ni 8.41448618496812 9.804141034255988 6.795747813197065
Ni 5.463719865250357 4.745351123046756 6.223086809849988
Ni 6.651176072504959 9.735626075078281 8.62468350102838
Ni 6.582858416983436 7.391061273545302 3.084377995647381
Ni 5.273442709091699 7.697246950750565 8.69945996289484
Ni 4.438223950039744 5.48668742637714 8.268742656507973
Ni 4.913913969081134 6.064436538840049 4.239445551807372
Ni 4.694875468867325 6.969305231682858 6.511012598156329
Ni 6.383265064935234 10.412391902018667 5.639312609331201
Ni 6.3203621416616835 9.804407123952387 3.2924224052234705
Ni 4.6969182085107875 9.366841590295598 7.021285377487935
Ni 5.286483682017104 8.433500091699862 4.815684060906485
