27
Energy = -112.55307837 eV
Ni 6.495380485344286 10.346451813928732 6.459688921382279
Ni 7.933447957649051 10.349306612624984 4.632338022291905
Ni 5.587913509732962 10.065102957270588 4.31779463702453
Ni 8.697324979523396 9.57856476277953 6.786593386232848
Ni 6.427803591865581 8.853599747828786 8.242166494554189
Ni 8.822879830398495 8.433715125490519 8.764549806559343
Ni 7.129797708205927 8.010328821443702 10.344653445699697
Ni 5.094478731647942 8.493294994139553 6.104245383758017
Ni 7.0276373920491615 8.217409134043164 4.117037967118558
Ni 9.276324562135793 8.430471127788467 4.833174367952426
Ni 4.682933256775847 7.950160172060207 3.8339076811137853
Ni 9.56579457943484 7.200639472490738 6.8442995353250495
Ni 9.395197261011102 7.557111068180889 10.862131804505324
Ni 7.471720063984181 6.514875580484548 8.478209926590864
Ni 6.1100526343295485 6.078827036579208 4.001604953198785
Ni 7.926367994018374 5.788194192778922 10.80685721060751
Ni 4.392004831024776 6.334153511706236 5.566574289140864
Ni 8.364660051079648 6.234194973045676 4.943706177431028
Ni 9.679294012308729 6.13466570895287 9.009003470582197
Ni 5.659071089538433 6.1674157001732395 9.976097889810585
Ni 5.208058649142206 6.791565444571089 7.7584687063965365
Ni 7.297249632437721 7.72100951162309 6.393874810716887
Ni 6.487384951690695 5.476172895787564 6.199927365972126
Ni 8.620478509478357 5.021367867944762 7.053186812812773
Ni 6.424617333085024 4.035709322743491 10.605070806460756
Ni 8.32511220398042 4.136512047649852 9.236376031415691
Ni 6.223056156733737 4.523148058516892 8.295818886132501
