25
Energy = -104.56274378 eV
Ni 7.661655983845959 6.249324850705476 8.211079564017663
Ni 5.755005240422582 5.856601964411376 9.731276269529573
Ni 8.97633847639121 6.7505034786821145 6.258997065685477
Ni 7.34634916302864 8.307132184320658 6.969635124894536
Ni 5.474565464662155 7.1299604897488 7.847384049548662
Ni 8.059310184993963 4.461967632012972 6.55701846444636
Ni 5.927061526131044 4.722232201603465 7.75320891762299
Ni 7.453108974695426 7.901223319657979 4.570552415441461
Ni 6.718916616225788 6.221810813521366 5.899526651733786
Ni 3.765061642214735 5.5560108987906425 8.323688902595551
Ni 8.333266791850699 5.526439232638529 4.3375507816811005
Ni 5.244957014614828 8.232487413508709 5.829903949845999
Ni 3.287823590634054 7.452528835189836 7.0717505578547
Ni 7.722639672330756 3.285547627135442 4.483979367740504
Ni 7.076542749532037 6.491316853545914 2.636120429107495
Ni 5.904897979808337 3.455408058408783 5.868558822697896
Ni 7.721747005852217 4.285495708165516 2.406203067666815
Ni 5.246072744648073 7.050216290354716 3.853438686276168
Ni 3.129286394226354 7.434593784943425 4.809559654954362
Ni 4.510646953389731 5.6520881026626695 5.801210970303225
Ni 5.9134618190673125 4.75026499165475 3.8640408537999833
Ni 2.3703304708850306 5.342103702932395 6.185805050387823
Ni 3.8802213322829178 3.6023743144462808 7.107716478835703
Ni 3.8183960125898726 3.5926599638132317 4.804604047444069
Ni 3.5027898563384934 5.490160947807755 3.6176435165510545
