27
Energy = -113.46884362 eV
Ni 8.525053510572665 3.1421632895759606 6.170497303294197
Ni 7.121515506711077 4.259797353960189 7.660879189142001
Ni 7.310742179677766 6.6615887207048505 7.2983643024687535
Ni 9.073135961980995 5.38991966878011 6.493092131635728
Ni 8.865662826546808 4.606917163610482 4.241176394648742
Ni 5.805537912357395 5.677892480881411 8.941173063193473
Ni 6.902526011216591 5.002422094502155 5.425051872901304
Ni 6.140683242326223 2.8685422581374276 5.9215184683966875
Ni 5.473216461326697 7.867242925585638 8.158505600201837
Ni 4.741150458599785 3.947048522209008 7.6364715435844435
Ni 8.040852048928384 6.985821570498075 5.007415499804722
Ni 3.5748261100013483 6.309899970709883 8.38433237869892
Ni 7.701480053181821 2.529416366291312 4.102092878711039
Ni 6.021603668904544 8.042134404273735 5.818159952566936
Ni 2.6469233284116425 4.742995096427304 6.872585385031179
Ni 5.0172947588545505 6.026388496119697 6.61527159634385
Ni 7.941045550024955 3.852834245432067 2.2054161959053196
Ni 3.7121147981241918 8.105962476112005 6.664627921294449
Ni 5.951336888694579 3.9319209453916475 3.563237053108615
Ni 4.318133533300372 4.254713318525401 5.2422331391016
Ni 6.462008173761875 8.069979989131557 3.530700336928627
Ni 1.7069420234378059 6.898466625406751 7.0193443984921755
Ni 7.2626113402217936 5.908594145636433 3.0189919588134946
Ni 4.169755138883916 8.280933499688633 4.327186265862694
Ni 5.2002816242502545 6.192336136981871 4.114746092404607
Ni 1.9699181016530973 8.404384581965838 5.18636570060866
Ni 3.043522558827715 6.30918612559448 5.170396559911994
