22
Energy = -91.18079631 eV
Ni 6.579379810442372 8.827098607308212 6.949458211768233
Ni 7.885848455752233 6.906225754691329 3.80087239412081
Ni 8.577872212249877 7.984233395543726 5.8590029574312545
Ni 6.637014206716264 8.90757354972425 4.490557665470585
Ni 5.391056326599268 6.978599272978951 3.598477740716749
Ni 4.562029158983472 8.214587692329488 5.598826667745028
Ni 3.105660622931288 6.937631718044716 4.230616707868527
Ni 4.321369505933274 4.8053376773883985 3.4804192255706834
Ni 2.9443758100342694 6.856378910107947 6.776102388512837
Ni 4.4063030524897195 5.658851527499923 5.559363474132576
Ni 5.1651544324818435 6.966088879666042 7.63189303673924
Ni 6.545506477519702 4.93679492285341 4.318873440198764
Ni 6.5613539658201505 6.956133715085944 5.652883899301806
Ni 7.6325470608459485 6.743761972601637 7.793832761737798
Ni 8.472931532627491 5.506146160616453 5.7719853938084995
Ni 6.3321237570591675 4.970629217762016 6.776098357634094
Ni 7.483594377483918 3.2463445500937933 5.866494425880514
Ni 8.172066035973945 4.32418638657499 7.932346944952643
Ni 6.1755970985366835 5.177226242468938 9.023744322013062
Ni 5.090732344332845 3.4068028002986344 5.47331379604692
Ni 4.153268103154716 4.790038137257158 7.730975630488926
Ni 5.920501756713506 3.0156150137862587 7.8001466625427955
