23
Energy = -95.15466496 eV
Ni 8.678755817960244 10.51119099043415 5.6121537031135675
Ni 9.278404846178509 8.983040637653522 7.223564736300486
Ni 3.8713798187229105 7.4233807406580015 8.028770829475018
Ni 6.325007979458213 5.556069006742166 5.483028582595456
Ni 9.241167037067015 6.780844400057291 6.396244691070129
Ni 5.851872474554966 7.539559668951425 4.378575819004771
Ni 7.059416025060753 10.016708906832054 7.287262280828275
Ni 9.721474442593427 8.47576148812743 4.840947325611157
Ni 8.147297046651046 6.672790826479304 4.3068916542816185
Ni 8.6041390496972 5.162126257778271 8.037543083653977
Ni 6.5327816841803745 4.707528187745158 9.268276185985966
Ni 7.031363582160443 6.74186841450049 7.363557407291868
Ni 7.970107368582974 6.35576410351304 10.020337888848045
Ni 5.4119715419191445 8.374450309585452 6.586748950558792
Ni 7.560474529409845 8.495201528340434 5.604313486905554
Ni 5.057115331983174 5.437327418151071 7.559808067016168
Ni 9.676466252697287 7.196696313045976 8.680754295072576
Ni 5.393979851453517 9.182462616927463 8.741350732274828
Ni 5.764714604612453 6.940713475312926 9.342953606967653
Ni 8.486653424441611 4.70434093706803 5.678797410894965
Ni 6.809929831674521 3.913837028940686 7.0972558336303395
Ni 7.648489228412846 8.402468767223224 8.897049317699455
Ni 4.1804330531849665 6.605289405577033 5.74882590074022
