29
Energy = -122.45875256 eV
Ni 6.3428259262715185 4.552595543956964 3.8326327276516308
Ni 6.904890141972975 4.943861090180195 6.294747069805852
Ni 4.703429838811034 4.312465577618736 5.499081689682478
Ni 5.17147259243628 6.7084404809891245 6.238525336321479
Ni 9.67356269344042 7.568496387894055 7.692941901209022
Ni 6.906812030638274 6.7661308725803675 4.398796914064733
Ni 3.6253257847975484 4.360725449051672 7.665223183025293
Ni 7.6395842997322685 4.177434475998222 8.382430801092347
Ni 5.682069493787186 3.2281029122679095 7.55219472852167
Ni 2.8202353125832276 5.532589459305527 5.8427152779922
Ni 9.07718866518553 5.455457665789795 6.9887425116851
Ni 8.945933912136734 9.41984877680828 6.480754349432453
Ni 5.7568263891709215 7.852897354334237 8.33852128328642
Ni 4.276362391196062 9.030835449578358 6.9785990040771715
Ni 7.741782446813719 6.4867737769422735 8.829259926253545
Ni 7.635138010678479 8.95206319338521 4.64250493830624
Ni 5.624824101547556 5.494879120847817 8.33029736746458
Ni 7.928689247708268 8.86382159047382 8.56554026212966
Ni 3.9214752749479063 2.378586939594003 6.372606549625442
Ni 6.542863768270293 9.504458297585414 6.678304434773867
Ni 3.5704984862008895 6.789075061043347 7.837855541890911
Ni 3.163683049847895 7.726834018454444 5.447498431094511
Ni 5.302883764011487 8.527728645904192 4.816804136305388
Ni 7.464137400497893 7.354774002311725 6.6858275185838885
Ni 9.258154493959905 7.240176806268741 5.278912829880315
Ni 4.541376467048287 6.2509864693284065 4.064948731520232
Ni 6.489041391059016 2.814956356207028 5.396391816968754
Ni 8.561278601342412 5.047676076545167 4.6690986529566025
Ni 7.858897618678179 5.761029223816152 2.5813074639774936
