28
Energy = -117.8883643 eV
Ni 3.968914308703757 6.478453171063548 10.92277926935609
Ni 6.195992516193263 6.28571654309426 10.238091626038843
Ni 7.478403738810562 8.334038154556373 10.146520295065068
Ni 6.990574923593005 7.307400165462628 7.975198951563343
Ni 8.217714316346251 8.432013468146284 3.966068253269194
Ni 5.726568857994779 9.761633798252303 9.463786855865397
Ni 9.84113746783583 9.779474339677893 5.15562088067764
Ni 5.048069363532929 6.498538530862301 6.964853472204688
Ni 8.756692797306197 7.9420248911209725 6.319600232814119
Ni 7.46278629376098 9.793899861350846 5.767927861962435
Ni 8.444095529423421 6.157318678401935 9.467258857724808
Ni 10.570789768402808 6.305432398511657 8.237905621156708
Ni 8.943195420383418 10.211083485252896 9.766172806803505
Ni 6.578714586438935 7.506732051863785 5.456774592527796
Ni 6.696273367613621 5.181174545900686 5.878628707771205
Ni 8.514822808360503 6.16522455226356 4.740155878871681
Ni 7.517062694129776 9.681142418689593 8.06831406343106
Ni 10.373967051341076 7.6558432773173495 4.378462029704353
Ni 4.3996070989212255 5.358936055371466 8.943828020607997
Ni 10.597159319061442 5.986078392208844 5.943250327059666
Ni 8.613590471521508 5.633337723345632 7.136820879068718
Ni 9.366753518809984 8.201156490502333 8.685149404769534
Ni 5.374587384951027 8.292437428221605 11.262484807592303
Ni 5.52225268506801 8.91690472654547 7.084226661515267
Ni 6.632307081590975 4.9949522950400285 8.254914461348193
Ni 10.960639532578439 8.230517013346546 6.752162584442445
Ni 4.742015090039407 7.699045568499784 9.01834807678847
Ni 9.660207360060143 10.179522013657106 7.425177389038844
