26
Energy = -109.04691207 eV
Ni 6.624887046512127 7.256138719270323 3.6281817993548238
Ni 6.462063430984303 4.750731827210485 3.6047900545013167
Ni 8.642730964893532 5.648422415174144 3.525924602913306
Ni 9.015572049798212 7.556943524579097 4.731671424990586
Ni 7.143797154065739 8.619183947462842 5.5631420306006145
Ni 7.28874090326295 6.072832939973281 5.44138495605523
Ni 8.219789049934523 3.7754406034012535 4.850325731936718
Ni 5.610997082689874 9.845496121921027 6.744630099368824
Ni 4.958832666414923 5.920643001599445 4.912782137137368
Ni 5.404185323338064 8.494057876495493 8.815439606075708
Ni 7.502732513755229 9.295746765012893 7.921066919096189
Ni 9.437027949357217 5.457212290459619 6.025396120514577
Ni 4.798192411993398 8.30594582513319 4.950847306319955
Ni 8.509649345214704 7.389944867286914 7.087827205814351
Ni 3.5934498569617754 8.866876261074747 7.026173825936661
Ni 6.135199111524223 4.0102295324571156 5.941017824326106
Ni 8.224401625698698 3.695891265275981 7.200959766434698
Ni 3.1534728124240328 6.795757191558211 6.058798025398617
Ni 7.032720892034673 5.545791920650133 7.728561974313624
Ni 4.527971457881498 5.179402083387491 7.188494780299859
Ni 5.561574104018014 7.3251460358876175 6.889805095982315
Ni 7.492290031923346 7.309678835563219 9.192189430377802
Ni 3.530841530319769 7.005927068010175 8.387678917618762
Ni 5.921457015685047 3.646406931788574 8.300140946653851
Ni 5.438753268321017 6.06220181559377 9.276856742427459
Ni 9.20133226343284 5.6006121962119355 8.438574537989785
