28
Energy = -118.09780568 eV
Ni 6.875064674598032 5.308018572198668 3.0639831171849283
Ni 8.248948490750156 4.271520066046786 5.028495435901239
Ni 6.397093481025291 3.1666309844315244 4.175138017298395
Ni 4.591386405824362 6.470864900727297 2.775563048618306
Ni 4.580991192771169 4.164858219307955 3.1833080878186775
Ni 6.389971638002072 7.600250995339384 3.7119484138614443
Ni 8.096193778186736 6.60179838375041 4.891791123040299
Ni 6.639300295095918 3.225455169861831 6.530162486934446
Ni 9.67910970984405 5.736941925331454 6.437651037064841
Ni 8.794991573248112 3.7960826220876713 7.418484863779931
Ni 5.798261051985118 5.445699843675396 5.053874852179748
Ni 7.264757246767453 5.463367695527592 6.840409872314549
Ni 2.4960345907655435 5.127638698193633 2.543804644574371
Ni 6.249875542940939 7.648596014981902 6.08504483291369
Ni 4.2847742048994935 7.861513448735229 4.743988980441364
Ni 3.5023124347950043 5.647775835398278 4.714111264972977
Ni 6.877567845257445 4.225103774895991 8.779795869985161
Ni 8.63714190636227 5.814211483259876 8.752552690044794
Ni 4.463548097672173 3.4604009523128303 5.544222693395239
Ni 8.304867986958069 7.516826639289231 7.194756803843007
Ni 4.9473086013877134 4.636051392557877 7.517504394490244
Ni 4.267718078869499 6.698735395075014 6.864754895917401
Ni 2.3373340316514986 7.272985474284376 3.4858027790845387
Ni 2.454215845380221 3.597495616382845 4.350619352089417
Ni 6.1893925003399035 6.666482561839232 8.39074540857268
Ni 1.124820629151885 5.4975031179999245 4.6201647023518815
Ni 2.195530757342975 7.187826424022014 5.8809698196491365
Ni 2.6555499090823367 4.787363536585943 6.607222784979974
