21
Energy = -86.31687351 eV
Ni 8.776751810189051 5.320708165098795 8.165412481338908
Ni 8.938278465468917 6.138970454166278 5.976734575114298
Ni 7.367472669086408 4.419983634392952 6.524236693259074
Ni 9.023735204596852 6.960201665960472 3.7867217984835073
Ni 6.52987005109168 4.9144236966966535 8.706644935033482
Ni 7.15638991281016 6.825777796346789 7.413269725812411
Ni 7.481966234508184 5.281524979634758 4.281252612589131
Ni 5.04835977191043 4.038194851017979 7.041645732697639
Ni 5.87740941293218 3.6285598493806606 4.855842186289353
Ni 6.8474508963187075 7.099624276122858 2.8907932967960517
Ni 4.267457147010902 4.5468897153878665 9.179384503325435
Ni 7.276447876100493 7.6601140584557275 5.160877461834139
Ni 5.234332463759781 5.452152899106084 3.4206039309082064
Ni 5.645412623628366 5.9550642505078 5.699806269429225
Ni 4.840814545483158 6.4233065327073255 7.924999131725723
Ni 5.037775010683297 7.7473420610976635 4.272570515009936
Ni 5.475356546200852 8.274826210037308 6.5790922297491585
Ni 3.7317600761897363 4.684526038332119 5.123319369551291
Ni 2.9467347101647023 5.11721725694734 7.3109262710296825
Ni 3.1364841560925494 6.477408357212107 3.71786246744313
Ni 3.53251732981923 6.986000198059015 5.979664710248178
