28
Energy = -119.07103157
Ni 5.808294666531896 8.049489575721879 8.055541102127217
Ni 4.531537044537946 6.012454333504602 8.055444212877024
Ni 8.11578516205229 7.81771423532456 7.991853540884964
Ni 5.676187698988441 3.8979226949170602 7.972544903461903
Ni 9.367212822881763 5.867468198807347 7.828149338058556
Ni 7.994495327233859 3.995358828389658 7.915799176615326
Ni 7.105136771916083 8.444791626728641 5.88091964703179
Ni 5.189565829484771 7.1675464321710445 6.018457644772312
Ni 8.958889754535587 7.08957355820377 5.80444305969311
Ni 5.115615087581369 4.901974883028208 5.975460337554389
Ni 8.882872423986251 4.742725937701754 5.760540903546044
Ni 6.944380518865824 3.507637555892963 5.78629471724864
Ni 5.64196781456275 8.103933853425545 3.930496783081717
Ni 7.950005426837864 7.731916661049502 3.6798616935155266
Ni 4.317056677873845 6.101784706884165 4.008571871073529
Ni 5.5023713804131225 4.017313606240988 3.8527103947887
Ni 7.834430911406525 4.235714935537308 3.6197772283691965
Ni 6.6357888114408805 5.917748197910659 9.207916716894633
Ni 7.112074652584999 5.955010086654439 7.047845179938134
Ni 6.985516892705557 5.994905571322586 4.752463491433532
Ni 6.275683361621706 6.061223636025755 2.63310345926646
Ni 4.999793937633087 9.475590215384546 6.061829061632247
Ni 3.382944148916769 8.163699504879155 4.891184205976103
Ni 3.4770350597128017 8.11241036165534 7.341947666075891
Ni 3.0178631412790033 6.104772666167614 6.104922266867132
Ni 3.343248543184221 4.019581742367039 7.263572843374791
Ni 3.2414949508375086 4.077031453656355 4.814964444519433
Ni 4.772021476479555 2.6119752365335374 5.92265440540798
