24
Energy = -99.78883722 eV
Ni 8.803020564736476 9.924777078048905 6.790736418879302
Ni 6.4525805670383045 10.235057683629423 6.294137168240269
Ni 9.936845972070971 7.8171732679944315 5.5971373458899
Ni 7.70425028453616 8.439693205242252 5.481100161756954
Ni 8.859136472302241 7.743211588021548 7.605207070278351
Ni 8.171577473268826 6.119164762051005 5.679713060628904
Ni 7.032468273950527 9.183159892920985 8.281816564358575
Ni 5.3953828448112535 8.458656739003658 5.117818080238652
Ni 10.062001270314108 5.797580885339469 6.980037033732887
Ni 9.864339597461552 6.517115637609075 9.302583031881587
Ni 6.464135072497989 7.151491088833899 7.253088205501627
Ni 6.679546086829109 6.845506228200759 3.978100903202261
Ni 4.784307447235473 8.822081942907683 7.344933539369743
Ni 8.413740953060124 3.9543409651335817 6.443309579194419
Ni 7.656981022415749 7.27930744276035 9.604516190866763
Ni 4.327545592032161 7.119923311418455 3.579774450563596
Ni 8.09437412400763 5.455422203610981 8.200029212609765
Ni 5.371389595625921 7.819363116142448 9.382627577286113
Ni 6.759580387391461 4.517156409914153 4.77723897866303
Ni 3.4219113640186545 7.5079240857528164 5.853440051102182
Ni 6.208060976963047 4.71651235264861 7.065281923820712
Ni 5.12445123943566 6.020891642626141 5.465097239330767
Ni 4.352352599789637 6.343064383056272 7.728229556303749
Ni 5.98285902765265 5.570615242752642 9.272245431583883
