24
Energy = -100.14480064 eV
Ni 7.573644718141464 5.343297619857735 9.32714500621988
Ni 9.110655737686923 6.5962643410756305 7.776860243288594
Ni 6.7914178035379456 3.4297030643321555 7.863605512750388
Ni 5.116046416463117 8.40112463098192 3.46528868178002
Ni 5.520320873594345 6.8206613752778145 9.397986388763377
Ni 5.841065037311568 6.420841190547756 2.5736035376684963
Ni 4.9676635992848075 4.240788790832047 6.547804787129794
Ni 8.470953968325617 6.010239594484201 5.544405987992426
Ni 7.463990015595133 5.240646558460804 3.6222755342242086
Ni 5.171478155247596 4.578907525088697 4.124281538092266
Ni 7.4971895697640765 7.808717965953021 8.838580701408747
Ni 3.9603998384726102 7.874137437608549 5.622038303084418
Ni 7.419812555970112 7.649518336979956 4.049085548047446
Ni 3.7625115440652817 6.559766711561066 3.515704952351986
Ni 7.079998112545986 4.121197128649532 5.597882392705922
Ni 6.032417396993248 9.144037810961759 5.398287464265331
Ni 5.7744242707490665 6.523631114335344 5.1983097835164855
Ni 6.698439351185974 5.885449123555583 7.327552723604703
Ni 8.77187739211412 4.399164876481607 7.298009364283807
Ni 5.59342134239544 8.139239181966047 7.421658024052299
Ni 3.363643661400096 5.500585768493487 5.47549691061152
Ni 7.727720058099771 8.002152736512278 6.453707372125186
Ni 5.1690312097229345 4.6233068340095915 8.921341692079132
Ni 4.222547927233333 6.2743478652664 7.464560823725014
