22
Energy = -90.73640129 eV
Ni 9.157890768166368 6.1775208485221835 3.967336343711631
Ni 9.08823050557615 7.828882535091037 7.753290985353889
Ni 7.118823286536203 6.928471409033254 8.83718616844404
Ni 7.203320011257884 4.725674903367609 9.72165892345243
Ni 8.906195142787544 9.953141358230623 6.760737620247075
Ni 9.131206845762943 8.105099555402646 5.317613378956226
Ni 7.343350545899234 5.5113693254154414 2.6396890235004955
Ni 5.166133657191001 7.905100031008896 5.211301522243079
Ni 6.949267263023273 11.240900325687075 6.872217468097317
Ni 5.247328968527853 5.655494370095639 6.2028797150226325
Ni 9.070901913443434 5.642036659899295 8.636992772848261
Ni 7.204468172140804 7.4699185681081115 3.984998864593113
Ni 5.399855866492969 5.976138730720805 3.8742460682581568
Ni 5.303533721413992 5.463666315621393 8.556878939566493
Ni 5.120703856459802 7.630303917041989 7.6536039561648535
Ni 7.159340097835219 7.159348235085019 6.405941295120665
Ni 9.213418256059109 5.856661178016295 6.3010436819937095
Ni 7.240335926715016 4.91311035496398 7.354767037567414
Ni 7.3003735787940744 5.173682604463285 4.992173031288035
Ni 7.082777171053197 9.379762060111174 5.399263919427438
Ni 5.137943948548125 9.764201060682442 6.658065790165152
Ni 7.026173535602533 9.099289771930655 7.8836349463826245
