29
Energy = -122.11336935 eV
Ni 7.9463467642527945 11.165268918476725 8.186558703396907
Ni 7.585998186504292 10.323728451508945 5.8856980889788
Ni 9.165998769316527 9.297598210254778 7.319907848634122
Ni 6.3050500269167244 10.191691443466873 9.813616859178069
Ni 8.370995878697219 9.273530052266905 9.588945088546534
Ni 6.778807923817655 9.247856528429887 7.799996817077181
Ni 9.224430086516763 8.95330425732567 5.0091353661478175
Ni 5.462646185117162 9.35082870450203 5.829849088954597
Ni 7.454924369146166 7.548476057685573 6.191657665593527
Ni 8.514430348396656 7.283944490354531 8.430044365755531
Ni 6.3648928760956585 7.686307336893525 9.504741303456203
Ni 6.951972046746217 8.44538498781787 4.168528010627764
Ni 9.793119267863695 7.1190531919647455 6.435964077941933
Ni 8.888587646995513 6.872446820711996 4.145848487144349
Ni 5.0125689770207 7.225380688706807 5.055401724216215
Ni 9.312551906179134 5.172863415706455 7.9459987803088605
Ni 6.751646029354369 5.975000262124811 4.304196031030215
Ni 8.404237782084687 5.305107434487291 5.842874391136449
Ni 6.0238547612791615 5.344617707934813 6.715830505521529
Ni 5.302786020309046 7.559347935256488 7.392880481777666
Ni 3.561900384496618 6.269094649310045 6.583458787735502
Ni 7.106053436814011 5.503573032183799 8.791925078827258
Ni 4.719950972608848 4.751602244391463 4.973394522302614
Ni 7.611419311836878 3.619636815296583 7.24276842427707
Ni 6.940379638370731 3.73164201500848 4.885900917996192
Ni 4.759141576829563 5.846105416873805 8.8134407589393
Ni 5.684804395319816 3.629208578391619 8.589771979438265
Ni 3.869720954453356 4.145368258898723 7.265579506297961
Ni 5.49092159765603 2.79760554816355 6.37747920333845
