20
Energy = -80.3833269 eV
Ni 5.546082676432794 6.198740801416443 8.721075992031679
Ni 5.734352066233676 9.260751377818252 6.337407154479093
Ni 6.5550299495864435 5.503678042894253 5.12853030408996
Ni 4.4247599493698155 8.354384517010818 8.251545787172693
Ni 5.43368787077893 6.933169861563611 6.5663847361268095
Ni 5.339210459800236 7.647327674734887 4.426780755773952
Ni 3.3917157487903045 6.347785109262491 7.5672240799389066
Ni 8.981098007724356 7.933371252321007 8.598405020794333
Ni 6.73886632779495 8.229561160627092 8.264961197477382
Ni 8.058348832150083 3.9296862115480606 4.2039328760329
Ni 6.836604725502908 4.307759172490546 8.080394038506324
Ni 8.13976234341625 9.475684000132812 6.93089660970627
Ni 9.558514574492873 7.682700363871302 6.387458945414787
Ni 3.601677894025839 8.214267371009832 6.010772892542575
Ni 4.914069835543301 4.6944402008110995 6.860606155553299
Ni 7.797524370831931 6.311991628454258 7.326519523325002
Ni 6.552818300767157 3.3235733379082655 5.925831231993838
Ni 7.427404095270082 7.839202366810612 5.42872183691237
Ni 8.57792345105952 4.25832161887783 6.4652323219577825
Ni 8.841047662586274 6.004103072593851 4.967817682326959
