29
Energy = -122.24177588 eV
Ni 8.930586390479357 4.130266811810068 3.9662639479586814
Ni 3.9137558762665385 7.493564010563433 6.6995349837609846
Ni 5.382664800787145 4.063811851725444 5.166654921009143
Ni 7.013457145260718 8.58035045880169 9.380512801702258
Ni 10.237397716060537 8.505912939898144 7.739709194005576
Ni 7.044027107372983 7.783934308086431 4.909305426179321
Ni 8.985064577641829 7.001346585401864 9.157861832371266
Ni 5.948961711729963 4.243971157637057 7.676180609943232
Ni 9.92956478645364 4.1296801950172695 6.136647513262385
Ni 8.298630403973927 7.4761717230225075 7.009600868498269
Ni 6.501444170921136 10.124004264374195 5.813196408460442
Ni 6.936421753661387 5.433351484816975 4.001325698261493
Ni 6.019136534569 10.443442510267595 8.233963381658556
Ni 4.841559732215983 8.714028782392726 4.8553658800140695
Ni 7.575942251286251 3.851802449386046 5.818544022770813
Ni 4.25386028652077 9.842419790363902 6.839550682539193
Ni 4.459850414625677 6.135649175942334 8.616024218743984
Ni 6.71810738443577 6.359438946562882 8.709865680058588
Ni 9.17344096609503 9.339382997914496 9.604402584892267
Ni 3.9692884737589464 5.1794082109851995 6.565832556706111
Ni 6.405322104276413 5.989800477839005 6.327742140857685
Ni 8.334029808301917 5.055717762385081 7.687196387810858
Ni 4.84606720487886 6.385200985691726 4.67335849382111
Ni 4.619648088625258 8.538608312896802 8.844229730485647
Ni 8.781634671815187 5.997331738687026 5.319008286370163
Ni 5.476990875304356 7.153245262471763 10.513403244430345
Ni 10.315808971060777 6.212391262661384 7.202379229075104
Ni 6.065489209699577 8.261486250702292 7.07103592502755
Ni 8.126906624784246 9.71765194012208 7.541036667843818
