29
Energy = -122.06398552 eV
Ni 7.373187597099022 8.8706072154306 6.784744031467471
Ni 6.107420797388731 9.726519642635823 3.286516283567916
Ni 7.934930865327852 8.867495506355533 4.485616366714572
Ni 5.7305983295106895 8.335558900560299 5.164288980236826
Ni 7.4840419160980325 7.038493400561222 8.301680269364809
Ni 6.471266478735742 7.415911216266359 3.1537346845575382
Ni 8.5782985313095 5.1976224442232395 7.307491187082565
Ni 5.460580115135611 7.48280381229735 7.289647159647924
Ni 8.712172444925532 6.844221314956183 3.6876240122202715
Ni 7.654747430721147 6.74106514283611 5.812479607401443
Ni 4.2739863876168425 8.234581053213882 3.385088393292368
Ni 8.974063893249163 4.832823988679753 4.880759614789502
Ni 5.186765229221886 6.431985721125269 9.376331632722875
Ni 6.25145357079634 5.094045563158686 7.880537808786955
Ni 5.430039726591279 5.82131374296135 5.551420010317374
Ni 7.088569056884824 4.028698770849364 5.985265335804982
Ni 3.8275118271425272 5.852722382190886 7.496310741041528
Ni 3.5788195285976987 7.26720563735946 5.4836493182243045
Ni 4.592533103203341 5.8859593694755645 3.42124826872438
Ni 6.9607915859693 5.226809074960066 3.77850540681403
Ni 6.358466269175615 2.7521280602532756 7.915269226429972
Ni 1.7566417924463407 6.0693433274621675 6.494685423324665
Ni 4.4049562718339175 4.025772297373483 8.871493105820011
Ni 4.665914181534501 3.5723845118075612 6.589372974524242
Ni 6.131767221117492 1.9534090510536224 5.660128104975152
Ni 7.507717912431641 2.93199282299349 3.9888642132321213
Ni 3.2606132558519896 4.885839147344895 5.18528964832304
Ni 5.220992449274212 3.7166924076765993 4.292779241509774
Ni 2.4740340159067897 3.984217290883206 7.328962177869094
