29
Energy = -123.14491833 eV
Ni 7.152724180901795 9.007492232184807 9.515966534003004
Ni 8.308498413230442 10.486221662430038 7.7191047380168705
Ni 7.152740330355351 10.086852676810876 5.6446898095973825
Ni 5.095006367230005 9.100759635627751 5.955428262052548
Ni 5.234519777562271 7.013964746890692 6.91701759995262
Ni 3.563502422714559 5.524759194426937 6.274777044263183
Ni 4.7152333715103705 8.699837086256924 8.439186500847617
Ni 3.1498563019327315 7.922048671742654 6.597858136961899
Ni 4.617718110803232 7.071597099906659 4.734263747771655
Ni 5.915352988679787 5.173634598892662 5.542861968601619
Ni 3.610207126760445 6.523084489805388 8.518496189982132
Ni 7.152716531160605 7.357916635080634 5.255211159650859
Ni 7.152759879693917 8.456095629648532 7.351140808442106
Ni 5.99695249848684 10.48620891286149 7.71912598729778
Ni 9.590201390753661 8.69982178677454 8.439178851106586
Ni 7.152719931045612 5.921702315689708 7.4457264778173435
Ni 9.070902235132893 7.0139570971496585 6.917010800182603
Ni 9.161643344945103 4.772376375956661 7.934078215658343
Ni 5.955214051235075 6.840548362041418 9.276028928521463
Ni 5.143850065334468 4.772444373656056 7.934070565917312
Ni 8.350248760079566 6.8406053101146105 9.276060377457561
Ni 7.152703781592057 4.670440929303057 9.335997884464044
Ni 7.152709731390745 3.670708633821144 7.062013758614286
Ni 10.695242934985812 6.5231201885976695 8.518524239033221
Ni 8.390127672031086 5.173604849899071 5.542871318285156
Ni 10.74189239090086 5.524758344455604 6.2747285959023555
Ni 9.6877328009142 7.071603899676679 4.734291796822742
Ni 11.15561670903708 7.922048671742654 6.597849637249695
Ni 9.210381646615541 9.100761335570098 5.9554155124840005
