22
Energy = -91.11024698 eV
Ni 7.064759588061894 4.186493149310952 3.193296169949117
Ni 7.4566512137989145 6.758048170064724 3.3655121694602435
Ni 8.676026103782313 5.402412785602472 4.736828633900822
Ni 5.332043725836892 6.179038201013043 2.741535483704427
Ni 7.788641665491038 3.4552843288386605 5.498749105275406
Ni 4.447069259029221 4.212897352550413 3.5054818235242298
Ni 5.676831979407691 2.8621739424899517 4.892567738058327
Ni 6.160257783641151 5.306898042855035 4.84103683170731
Ni 7.598680910322112 7.315106521293614 5.719353832475957
Ni 7.807337394553612 5.345904387964945 6.968776308314951
Ni 5.6200830439862814 7.767398116313113 4.5522959125372875
Ni 5.958934501531186 8.743790524713742 6.7289854339842
Ni 7.192187933958784 7.388925753310501 8.10574929802056
Ni 6.019302787225414 3.84359257422662 7.071970127682083
Ni 5.475265673239224 6.304137023256723 6.777007351828542
Ni 3.838859629977275 6.253833819359902 4.645706301018023
Ni 4.039459068297727 4.289325186321347 5.899424594158737
Ni 3.8514141661327184 8.138888951317577 6.124714668392669
Ni 4.577124286327588 7.40704421489816 8.442337364212294
Ni 6.313200085085311 5.424302030311863 8.875259226501544
Ni 4.180426175582502 4.843803152379942 8.258247537316361
Ni 2.958189114346385 6.192425760288799 6.87739413101662
