28
Energy = -118.1153981 eV
Ni 9.319422953561775 9.869099273130844 5.3387027828919855
Ni 10.023428703558578 7.498990805339078 5.98307189572191
Ni 9.782402841204716 5.169857646607492 6.987208542391209
Ni 8.305788400403019 4.377201884810445 8.93596807945038
Ni 7.982164513590529 6.379929526052497 10.288137395574134
Ni 11.077292007977434 7.043455983059634 7.960526876811281
Ni 8.55183084169786 6.763209734254157 7.979805986942329
Ni 4.567063079980577 7.060886404394575 8.198687411036849
Ni 5.751629326498202 7.4646953278015875 10.461273646662034
Ni 8.338293883301215 9.754741423410477 9.008650315422972
Ni 6.287867478024247 6.7104874469683935 6.610486739502622
Ni 6.353600587489882 5.690564439340527 8.772720880936411
Ni 7.805554255869641 9.945998848929008 3.4788918415915515
Ni 8.921930379871439 8.011791398623517 3.9932612273918453
Ni 10.054536024434944 9.18677276392102 7.577414481281067
Ni 8.185899213579923 6.250369794353324 5.377772159687272
Ni 10.128684637007366 5.612154419368879 9.499404746437424
Ni 7.391097332978708 4.6568452008189345 6.855048698530374
Ni 7.910814762892166 8.589004783034463 6.560412455812252
Ni 6.257165354764865 9.96981936272416 10.184760217662916
Ni 6.433968807275944 10.457704699611298 7.827099392584295
Ni 6.8321209948949 10.361292920211634 5.527130170925837
Ni 7.8703261870484305 8.562386346426454 10.992989075364363
Ni 6.691700340743237 8.178008764262977 8.573555627088146
Ni 9.738963873757033 7.959656815755207 9.670468756278167
Ni 5.3085422087324465 8.814143418350554 6.582044815171133
Ni 4.549701730044943 9.275504966230848 8.815725503158317
Ni 6.665749694738746 8.120174995245993 4.662582028622853
