27
Energy = -113.06988583 eV
Ni 8.4632834029912 4.242039908983475 5.147083272409564
Ni 8.38382447393045 6.543362009923072 4.423743709230714
Ni 7.301019030552595 6.7114464529420985 2.302811251228346
Ni 6.288273551331867 7.5254973251352295 4.277374046467374
Ni 9.020500325725289 6.0274147837667975 6.583193510388497
Ni 5.541032848658779 8.21502724353496 2.1335408942021283
Ni 7.386985737730462 7.909924315588097 6.458520153589426
Ni 7.756227661899394 4.133611073145032 7.447462284290181
Ni 6.628512890389192 5.050765176037337 3.8268470975720286
Ni 6.2538865065388345 3.40104992592376 5.382272789847733
Ni 7.970647904968327 2.166011625077665 6.247096639111705
Ni 4.929822214518551 6.0258568626731925 2.6031879105893174
Ni 7.661070804065737 6.274251332987421 8.408389448100966
Ni 5.972373342947913 2.612886827870303 7.5370645363740705
Ni 6.632066474301575 5.795557943037543 6.165522953171213
Ni 4.459367456931752 3.935583915221188 3.910257942914984
Ni 5.67516657121485 7.301988823854618 8.096342737069882
Ni 4.546041691380462 5.926779156837093 4.972157365471867
Ni 3.9702482355999464 7.89931086860217 3.851191549588248
Ni 4.936274338522265 8.058372417977681 6.0704758221707085
Ni 5.606185420311583 4.852426775111491 8.24714959831744
Ni 4.254723375790797 3.8630612994619535 6.39231850322156
Ni 2.4980065120358987 5.0436063736549315 5.401342670740086
Ni 3.787622809166761 5.9953246743344595 7.202814692040059
Ni 2.671687665962169 7.450407498701536 5.77142263759748
Ni 4.159399796570391 6.273815720312205 9.472854729614793
Ni 3.454172353963966 8.110159728930057 8.007490346681372
