23
Energy = -94.71034387 eV
Ni 4.960932505462557 8.567247289555821 7.294447070358713
Ni 6.724910551094368 7.314858973540027 8.301920069639802
Ni 6.556680963909851 6.827849368890338 6.067699874745173
Ni 8.491286497715762 5.864905853065985 7.606658922696537
Ni 2.7250489682071577 7.751345828496628 7.5656101091743
Ni 5.811602413297564 8.753937323643866 5.073941923044102
Ni 7.3740290818615355 7.622565343689952 3.6619022820770923
Ni 8.706859262729978 6.540571559157795 5.326173281090616
Ni 3.995084645994045 7.275141984616174 5.635451549760351
Ni 6.3886572282798815 4.956434341942782 7.9191020273242065
Ni 4.598011949104183 6.326412717771418 7.759883438698986
Ni 8.260628301976022 3.5309871384282587 8.057298807778597
Ni 5.214522744087544 6.798569477705836 3.792920299618199
Ni 7.6875350313098805 4.447635039345825 5.95737096859377
Ni 7.1253567455922875 5.338191682519144 3.955448149295336
Ni 6.481678375269171 6.280056622742602 1.8819984209477347
Ni 5.106320572235714 4.876070038893199 5.597207818661333
Ni 2.747089247200759 5.572751061206856 6.588134290280704
Ni 4.237541987284246 3.9560727288069217 7.5120134796805305
Ni 6.273594286825216 2.8778930758392995 6.90076422970268
Ni 3.303938131754422 5.413398418131658 4.2733547990530125
Ni 5.149113183051301 4.6330387685435594 2.9765308229257244
Ni 6.217133977585281 3.174563705755771 4.53044901245226
