20
Energy = -80.93291692 eV
Ni 4.619657492862991 8.157442699647662 8.277681784348417
Ni 9.82671627223909 6.650953896795808 5.058630975215543
Ni 7.772103067439684 7.5726911310697345 4.879942713399116
Ni 4.9577037260570975 9.854104804705631 6.688861308480716
Ni 8.345394782611677 5.205947928115487 8.671513372202059
Ni 7.745613973536653 3.5754731184302755 6.850212888603664
Ni 6.615855478346305 9.309379448437257 8.595317503799976
Ni 7.180086079661892 5.85070206776383 6.722485878357126
Ni 3.996249638551193 7.8072855558498775 5.9120801413940605
Ni 6.676423554372782 6.932429265328777 8.767881976161135
Ni 8.775850843676585 7.360554111153729 7.199323586027223
Ni 5.708962683941951 6.444634279714554 4.896077698848622
Ni 4.837093951551521 6.0535309095337535 7.273008169811709
Ni 5.681942710702472 4.262965739691641 5.838311318731807
Ni 6.40041950826429 8.09222013770015 6.701487951493293
Ni 7.991535987760137 5.097096716574818 4.785602984170422
Ni 5.736500659198742 8.814658516648281 4.621088608259725
Ni 3.650875506813416 5.508199142646167 5.3664991330241945
Ni 9.511668037625709 5.118883894006021 6.691766530482427
Ni 6.137949358671819 4.499449950072143 8.370828791074644
