22
Energy = -91.16984064 eV
Ni 6.453542107300628 3.4225900616607725 6.4726961115226125
Ni 7.415276385437455 4.404488306597112 4.438357593278683
Ni 7.408254864859002 4.206734195413177 8.61444303507012
Ni 5.397826580381373 5.2332882589221175 5.377892487603677
Ni 7.9066231408301535 5.1974716130657095 6.536096135971712
Ni 9.190875644461382 6.048782841392502 4.740528699360942
Ni 5.467832131781626 5.125072740947857 7.821400303638537
Ni 7.05181156779647 6.768180306393906 4.4439769122209345
Ni 3.890914203911683 6.530537491081077 6.752115410376814
Ni 6.132219499112326 5.758027027620497 10.02986828111554
Ni 6.2461199773310145 7.022353791769094 6.653377307002758
Ni 7.739021553479819 6.511511517727706 8.542158518143744
Ni 8.761284094040567 8.437999056886236 4.466587961586234
Ni 8.669496527047617 7.488867383662823 6.549283468826379
Ni 5.092671212221505 7.391270753035699 8.666951937144054
Ni 4.827632981472642 7.507764850466423 4.767756462416645
Ni 6.646867800276819 8.97740916408389 5.4023615312017945
Ni 6.900204008758168 8.062007395596435 10.045353718229244
Ni 8.570238595381914 9.777338637197726 6.51990970634146
Ni 4.651478349234191 8.823147963672497 6.7648514298472495
Ni 8.848723439263065 8.560087844022627 8.646488723230924
Ni 6.749389613941761 8.995162848382169 7.846384242050842
