21
Energy = -86.11995559 eV
Ni 6.847516170479022 5.423614054967667 10.122388371104499
Ni 5.830201185835135 7.49286895223697 9.739815176788873
Ni 9.161566357157172 5.788760510584634 6.9425426834930395
Ni 6.073011124950889 8.130981077733066 7.451530764350047
Ni 7.731902006196677 6.840856635234539 8.465465374696603
Ni 7.403486539021228 4.48692603740406 8.05582177505212
Ni 8.243175325974367 7.945597057522274 6.329760990278997
Ni 5.4546162120676485 5.75492165703251 8.206657611928456
Ni 8.581094870038601 5.922568765693514 4.619375042622312
Ni 3.9517895599446735 7.564464824427903 8.266971247504674
Ni 5.639869539802951 4.199912303631314 6.32233714589779
Ni 8.149407304462363 8.11456427445557 3.962520451143972
Ni 4.121033219065199 8.769517328316613 6.229677006737032
Ni 8.158140679808572 3.9232042506091815 5.93400369337917
Ni 6.893654757050256 6.08790327348964 6.175683902074294
Ni 4.497548779583992 6.468111347330948 6.199708558030181
Ni 6.164749268382445 8.442940061905764 5.149502591622226
Ni 6.729742156503741 4.299704541193911 4.196258446617793
Ni 6.3595150354578465 6.559160087081591 3.838487788090293
Ni 4.216993964207362 7.560863071639394 4.14379569344027
Ni 4.555075382934755 5.168416396197994 4.31128109623517
