27
Energy = -113.80736364 eV
Ni 9.002839588635391 3.8913458029908785 6.275120525859238
Ni 9.227824274794074 6.062377214913266 5.4200031151559
Ni 8.308527270907996 6.764226284551154 3.280677639807936
Ni 7.692334423815931 4.692868802297656 4.157096605329562
Ni 5.3303302893341735 4.151465513782903 4.298470370879165
Ni 6.973877584838346 6.761135099163117 5.36068725621624
Ni 8.801011845944254 8.379529351646509 4.889534799127404
Ni 9.379808697114692 5.641833495593983 7.764293479864917
Ni 5.918470354262374 6.219935337711415 3.3771742175251327
Ni 3.669323725623981 5.983347071157061 4.139220843342347
Ni 6.772848455577695 4.291280014142605 6.1911212160939755
Ni 8.43306664682464 7.628754729904074 7.093882928245169
Ni 7.623003369673745 4.282137227372227 8.371469143100382
Ni 6.531992112011942 6.2040884062426125 7.6372680223882305
Ni 6.766082717665944 8.512478615776722 3.621494717182465
Ni 5.920757433596079 5.262369668126727 9.709466917718533
Ni 7.86093746132539 6.789247980723889 9.336133498489188
Ni 4.875331446190747 7.867336381644572 4.858013716104094
Ni 6.784644235789112 9.06136087507783 5.948516961343516
Ni 5.220082715003769 3.9809038141009845 7.857840042750349
Ni 4.802629988982621 5.5796890409151105 6.0469741462372
Ni 5.090912818274114 8.064685003420452 7.194004991193197
Ni 6.965531111599203 8.873543288355679 8.349465846418067
Ni 3.1019582705240474 7.1787167484094 6.34039989024278
Ni 5.434236756643776 7.564391508444838 9.504811765489805
Ni 3.2453365136424392 8.138797883955354 8.564499969742208
Ni 4.120268053478585 6.026123001653738 8.266325536227455
