24
Energy = -99.78893351 eV
Ni 7.30305720902316 7.1917616539756555 4.817707480144301
Ni 7.159577188247175 7.174714820048754 9.819720887844293
Ni 8.524434865946679 5.58586194674198 6.050031123059491
Ni 8.458259487199472 5.58362710071496 8.609352553077967
Ni 9.208045972144532 7.892691634914274 6.0751692339850525
Ni 9.113777469897405 7.882144356055135 8.681157070174534
Ni 7.234628590791774 9.255930750070117 6.024642863732037
Ni 7.159826501847685 9.233183681933093 8.647905880880147
Ni 5.32316773826191 7.797633096310535 5.951808341691646
Ni 5.245073287862453 7.793608111901159 8.540804493943453
Ni 6.116024226844802 5.520604841322033 5.992072253786319
Ni 6.045826031699477 5.518043293316674 8.554465539203646
Ni 7.23930180234514 7.217026135437156 7.309779319791277
Ni 9.703028490882597 4.090242313967842 7.346647629929737
Ni 10.392491436275524 6.345497976561106 7.392075847662851
Ni 10.89259953174861 8.711613818844471 7.509744476877504
Ni 9.316590312498388 10.184505066792036 6.5590211858459995
Ni 7.343527263920466 11.156397080071963 7.4133603345414265
Ni 5.323295440010547 9.837210448992524 7.273984602298406
Ni 3.4617956385182524 8.396548604339587 7.1753030113510645
Ni 4.151319530141788 6.133592646959488 7.215994284802183
Ni 4.973756280145199 3.929622504315566 7.261407355339778
Ni 7.332351392003097 3.9269563820872007 7.306319401337552
Ni 9.274107478565773 10.206421357479975 8.809551876036602
