28
Energy = -116.95471692 eV
Ni 5.371913534109505 7.734005022496931 5.45108940858029
Ni 7.521432273378411 10.560938558014943 7.742438358987553
Ni 8.422885584608716 8.866820719522355 9.062823451234735
Ni 6.2159393788845865 8.593003599118914 7.5734473223161745
Ni 6.785736410752128 7.425105538221326 10.946546466844966
Ni 7.687235931586265 4.836611114031197 6.947890236195051
Ni 8.976700388856507 6.958902429557979 10.326893474935371
Ni 7.941736735467736 6.9639904542926345 7.962392288732576
Ni 10.79931294768728 11.421578038936458 9.916737027882233
Ni 8.260098572448209 9.09496429138166 11.41261712707024
Ni 9.986799680078326 10.331136170160685 8.060134254221078
Ni 8.980042628096905 10.854616223707605 5.984682777102306
Ni 8.452712216329838 11.029101984658958 9.939086043141092
Ni 9.098764246407146 8.639655669835422 6.634826171479177
Ni 6.0294458881877215 5.3460842076267445 5.23572101978569
Ni 8.29590784462939 5.275564521725814 4.617319069512812
Ni 9.610250514020493 6.200470062048392 6.428794495237956
Ni 6.9585128729121255 5.578883476325601 9.410301198461033
Ni 7.1029359177719025 9.448829656054583 5.553270547337408
Ni 10.394973856296323 9.116386797644283 10.239024072496282
Ni 5.7516629511327455 6.218590037273608 7.349305037663203
Ni 9.339757234922846 5.273206506009176 8.672359855102354
Ni 9.826089359244653 10.741640690199723 11.861628172203933
Ni 10.296621223680926 7.525249805718105 8.395542170289325
Ni 5.244294321088533 7.358034921757548 9.29042132721933
Ni 6.388229668286164 9.53728644044337 9.793316038609198
Ni 7.55288005779289 7.150867789761792 5.653751775086347
Ni 6.651778954744162 6.853773331346295 3.576297472051293
