20
Energy = -80.92530593 eV
Ni 3.8078535312991253 4.705219630846343 2.6036296243012527
Ni 2.318164348912312 6.27187945337816 3.4136175686149137
Ni 6.790498946479828 6.9071747195948285 4.9627376762371185
Ni 4.644475571863166 6.524403737801599 3.8986629955237833
Ni 6.133161173239681 4.894957806219821 3.1048537910027014
Ni 2.5018775754195857 4.155301239743289 4.502098969746389
Ni 6.960622094835993 2.9014294900261404 4.196443385618658
Ni 4.644673842097967 3.3029474756364956 4.260013503094769
Ni 3.1142722206188815 8.227564475371608 4.422540033252513
Ni 8.128614595759142 4.93997639814738 4.395012445323877
Ni 5.9400896775958 4.854551244600119 5.45135301617224
Ni 5.701485343074446 2.586155244169179 6.262031243069244
Ni 3.0830177028435393 6.119643866890101 5.600648889699851
Ni 8.0690658356825 5.712904933947164 6.605019387722988
Ni 4.790933038900151 7.735256283462445 5.938982407061178
Ni 3.9164476394725676 4.099168832578649 6.491987501118778
Ni 6.394281770829677 7.02679316299509 7.4137145069674935
Ni 7.842699460590545 3.4621526253091557 6.31883877496544
Ni 6.102825478006812 4.597430183293802 7.683765875942493
Ni 4.272656144941659 6.132805188452462 7.631764397029051
