22
Energy = -90.61592392 eV
Ni 9.34832262134102 6.986793648376021 7.268736115785403
Ni 7.04805274038869 5.614832376653274 7.268736115785403
Ni 7.416637119059796 10.3593274596467 7.268736115785403
Ni 7.7537632041574 6.963237460735044 9.341852956767491
Ni 8.951694277092955 8.960938712217647 8.520422261849703
Ni 8.906378818711827 5.06376045528198 8.5256975071736
Ni 6.55898444199866 9.146749103970487 9.278124508165712
Ni 6.072692887772986 5.315359139780484 9.387289337603006
Ni 4.8139686581714205 5.267997482411276 7.268736115785403
Ni 6.072692887772983 5.3153591397804885 5.150182893967798
Ni 8.906378818711827 5.06376045528198 6.0117747243972
Ni 5.241366731168076 7.2837970738724085 6.076853518622409
Ni 7.7537632041574 6.963237460735044 5.195619274803317
Ni 7.13073573346561 8.090748138507083 7.268736115785403
Ni 8.951694277092955 8.960938712217647 6.017049969721102
Ni 5.241366731168076 7.2837970738724085 8.460618712948396
Ni 6.55898444199866 9.146749103970487 5.2593477234051
Ni 5.199490227787611 9.390116747803358 7.268736115785403
Ni 5.958507156178148 7.3170938520603945 3.83119923157081
Ni 5.958507156178148 7.3170938520603945 10.706273000000001
Ni 10.034106431495367 7.050253474007413 9.459961370327063
Ni 10.034106431495367 7.050253474007413 5.077510861243746
