28
Energy = -117.94363616 eV
Ni 9.463643172019136 7.240856077135691 9.783642358465649
Ni 8.314799150581752 8.874199958661876 6.289509878783029
Ni 7.338386516461235 4.458092256751618 5.38176310796986
Ni 7.5939240378937685 10.889935760172666 7.433186249713661
Ni 9.571797978267092 4.8726985995256396 6.356382206873655
Ni 5.439632357915088 5.165042179293856 6.737155114385802
Ni 8.617424091042079 2.663873903465885 6.103602431153967
Ni 8.609945757629392 9.09453303147353 8.606077416517008
Ni 9.414232415572268 7.120076942528975 7.436775071831461
Ni 8.980842868548619 3.5275918708189318 8.218343227506011
Ni 10.3619837476664 5.369499935535129 8.621346042318757
Ni 4.99069729985429 7.039621137182402 8.269418434430179
Ni 7.212835889168626 7.210806492453983 9.09381091975584
Ni 6.35203470205981 7.519372182588297 6.450576742869236
Ni 6.0096194385075465 5.022984009132929 9.06788838081735
Ni 5.94722148072807 6.2188283217993 4.57369848678679
Ni 8.33478628576355 6.639234018792392 5.335859084932548
Ni 4.787587994419354 8.442822776002789 4.589320937427656
Ni 5.158876993450072 11.100410611847417 7.340631308245415
Ni 6.256940959566103 9.926673018296402 5.731957496460519
Ni 8.312120104772493 5.179801016121423 9.773742846955775
Ni 4.018599281367998 6.764370463433132 5.99904721247131
Ni 6.77313714377429 3.3592927874750975 7.430042514714244
Ni 4.2958072963475695 8.898954299814408 6.9230863166331
Ni 6.267442859664083 9.171738512744964 8.217214191304457
Ni 4.027957984133188 10.57930269476899 5.32907520804215
Ni 7.113288047492797 8.302844823436962 4.259691006836837
Ni 7.69657840752451 5.528932577079518 7.521895227119166
