21
Energy = -86.40017018 eV
Ni 8.74181163083805 5.154448908509016 6.04602313934845
Ni 8.403903876724204 7.259183687418554 5.2563758979657
Ni 8.018496273885534 6.92468429382364 7.740868562898676
Ni 7.541741776262182 4.424551985699988 7.8333166942675625
Ni 6.877436888326727 8.62834811783042 6.2363727897440375
Ni 7.361588692776042 5.435185203935625 4.105947155047738
Ni 6.445101791630587 6.14568372914075 6.366523952100556
Ni 6.850523062187766 3.7472158184164566 5.637405259044497
Ni 6.003021742327602 5.779505328153406 8.819463083131366
Ni 5.677670597692007 7.885733199995596 8.019671527428217
Ni 6.258261649858088 7.49104037122196 4.221111073896379
Ni 5.232455255360609 4.118981825874108 7.279623561181751
Ni 5.890688441309196 3.704353514821122 3.4747419825482515
Ni 4.642000227125653 7.861036191049193 5.863888625589388
Ni 4.120916514479849 6.174476941140217 7.396212753313836
Ni 4.693217564950743 5.289658588703545 4.820813135018428
Ni 5.546286692860322 5.873145730907126 2.6537909927913734
Ni 4.661202217038162 2.93547656700846 5.3121716311318945
Ni 3.974064297695684 7.280823731874066 3.673443112737605
Ni 3.0840477245480837 4.336082477247871 6.333285585472211
Ni 2.7407907036892203 6.50179891724783 5.509469643034862
