20
Energy = -81.35994643 eV
Ni 6.59135982627457 5.688040868423874 2.9263384729955573
Ni 4.310214187051266 6.233201788060909 3.051603493604212
Ni 5.847799121033644 7.73509727822533 3.9356951068188124
Ni 8.15882983270296 6.984490961388868 4.105900794139489
Ni 5.233228176655637 4.7489959908299815 4.575135265067498
Ni 7.477834943637032 8.682175680191467 5.5107767504536245
Ni 4.024583904528647 6.714385640160703 5.377954400723766
Ni 7.672885358497445 4.860195754613143 4.906779978197545
Ni 6.297700608159597 6.5224404702257175 5.829193643632121
Ni 6.3449942982828835 3.2883062122712 6.035816444491066
Ni 4.804244362168642 4.86140844468927 6.906457058965266
Ni 4.63569203969482 7.126938466558663 7.642910790511949
Ni 8.458513505877855 6.6577013592550225 6.52688652635696
Ni 6.8499911689711315 8.155780056886208 7.684499621143536
Ni 5.175143807936086 8.725522779078853 6.034629289131786
Ni 8.140691113969714 4.295035836246521 7.123379183562993
Ni 6.162450638721731 3.606473177550353 8.348773436370713
Ni 4.772546158105072 5.3938367760874835 9.252342005370023
Ni 6.781810646695706 5.8492599012705755 8.1569969219209
Ni 5.8280733616822165 7.439299618632886 9.636517877189748
