27
Energy = -113.77014155 eV
Ni 4.001936743755296 7.208516289813133 8.901370924005148
Ni 6.348356111232636 7.1369809826126165 8.922516489824979
Ni 8.709239870060028 7.0741272362205825 8.885111210525563
Ni 11.05789040828536 7.021591804729606 8.778208168958843
Ni 5.064775618713012 7.425764971289774 6.830333505792584
Ni 7.495293375543765 7.362574748071757 6.803063174940992
Ni 9.92720591292445 7.2990939713138125 6.75367318480022
Ni 6.273143567527829 7.641402795518129 4.776738191141629
Ni 8.667734012938528 7.583303031733055 4.741262389971416
Ni 5.21220983982468 9.190317500036457 8.428838116838115
Ni 5.100433376767738 5.326617842967101 7.959647019000835
Ni 7.578606844540448 9.172550144439235 8.509582051500074
Ni 7.465417602762931 5.197346149567449 8.021535348164209
Ni 9.936166671310737 9.06738869205804 8.350445047521
Ni 9.830607077502108 5.203725565358192 7.886602061364666
Ni 6.260272390994698 9.467085523810614 6.310075022788407
Ni 6.151324709891927 5.507973084297492 5.8286812256677925
Ni 8.824544004974898 9.401890625340704 6.269057649385232
Ni 8.719252949256372 5.442870866727109 5.791206766201141
Ni 7.510248888627555 9.636197727543848 4.31453090116521
Ni 7.41566672341493 5.756243540209312 3.8456366569327924
Ni 6.436528544230221 11.161934408079247 7.98338569743525
Ni 6.216743170469201 3.4553450008008677 7.04723071162284
Ni 8.813649447139436 11.102375591343579 7.944801203456397
Ni 8.596936459996028 3.3929018788196745 7.0099106741627155
Ni 7.592633434179775 11.378022232592235 5.961079045057916
Ni 7.379477583398842 3.6682136824074343 5.029172078882598
