26
Energy = -108.29713854 eV
Ni 7.8165825002672475 8.95948165631923 10.52194599698308
Ni 9.040348281290148 5.902503581196686 8.216638128033155
Ni 4.592794376481087 7.047100383862005 7.572966936816076
Ni 4.2140535228923595 8.035387224870028 9.644093797505109
Ni 6.472556359031427 7.97333413046507 8.789565421909435
Ni 5.653361136962916 9.84361726447318 10.131368351802195
Ni 9.981915574943411 8.370833768806984 4.842516942213386
Ni 8.903701656317923 8.248532777456989 8.587147947710172
Ni 8.388523825705711 7.329672236433052 6.278474473006285
Ni 8.553147809792463 5.052784795012956 6.005555163986554
Ni 7.839643777776261 6.589462462119883 10.1128498951111
Ni 10.53151368119321 7.406947892058585 7.046567134934357
Ni 7.345557616171078 10.09994009417071 8.398363248259752
Ni 10.539637178398987 6.091153505788331 5.020495775989847
Ni 7.625577903729189 8.837487568957672 4.651705157381547
Ni 6.14892500264484 8.211401696241731 6.354785273703415
Ni 6.669737209954089 10.437275454031798 6.1979777500310025
Ni 5.52824474504747 5.954815464051882 9.547362603904235
Ni 10.737866894480971 4.987353575478648 6.996322238062717
Ni 8.870927892325494 9.590033763183028 6.611108063541049
Ni 6.715440991400787 5.955192585386984 7.4088335687106985
Ni 4.9842374597044055 9.566670283939485 7.867111603575608
Ni 7.3712753858092315 4.518705689867063 9.09534117811353
Ni 6.56182171786496 6.302252092370987 5.095018412317729
Ni 8.547214267801825 6.6779441671157995 3.9962267758707615
Ni 5.9533535542952905 7.681521758709634 11.193544032134936
