26
Energy = -109.66541706 eV
Ni 4.274314577269448 6.528746165584376 6.550158707878414
Ni 8.259658087592529 5.846946439434802 5.098261978042493
Ni 6.415841787557722 5.5724305038093265 6.759393879230676
Ni 6.616410428705677 9.47884436149264 5.487925198864089
Ni 8.375009528758008 6.261604858538803 10.560357341554147
Ni 9.966198753321017 6.1673495861126835 6.938427133742131
Ni 4.407915983500879 8.712726847674581 5.924644237968461
Ni 10.221460936568436 7.046548769802255 9.210778234777218
Ni 8.388244951072718 8.506760556653846 9.506819836966203
Ni 6.292636735629811 7.1183290195989946 9.814333916946405
Ni 8.026207492177571 8.112833939083542 3.9990443093356527
Ni 4.237983278139734 8.100463800227779 8.607386343552543
Ni 6.203337218515153 9.394534395768494 9.410179363110505
Ni 9.504934930291999 4.8184526947808 8.998191401961414
Ni 9.863304182791381 8.599445509053508 7.480072518558586
Ni 5.355828456288658 10.170078116995489 7.432116732911392
Ni 7.030869794227634 4.760896952903763 9.097592200669316
Ni 10.116611092468464 7.6654414919324685 5.138139450481457
Ni 6.088255584959649 7.166545310647681 5.028765962581572
Ni 8.092849971153443 7.758595075549041 6.269316516874754
Ni 9.011385115383401 9.772644608749737 5.5131469795275665
Ni 6.100923856091216 7.901826938477369 7.4489217845597295
Ni 8.052994535545826 6.603176817042912 8.264282028436906
Ni 8.36835751004089 4.4221877792997715 7.031964755987694
Ni 7.75554361156882 9.78345091475641 7.597486928206106
Ni 4.920862619020727 5.734816943006202 8.604767841085948
