28
Energy = -117.94234264 eV
Ni 2.850462559141928 6.139051591042237 7.490321101864079
Ni 6.617687559032804 7.337792250134521 4.833129734691281
Ni 10.095370165797958 6.950582453194112 7.9655459205705945
Ni 7.429711476992482 7.667372945818064 11.015086606579395
Ni 3.848960348029433 8.168789316947318 7.9011702443428975
Ni 8.335396919945133 7.345656891180868 6.4640187566299865
Ni 8.131759502977594 5.428468388491212 4.94978614536558
Ni 10.77942574418243 8.112677539997575 5.954888732882374
Ni 5.60498580447877 8.124423260066779 9.52640926394451
Ni 5.509251338583115 10.000039201158456 8.05252061560994
Ni 6.187053182227435 5.872886500763271 10.394093356388222
Ni 7.1651724488141255 9.799038024247826 9.984334371882747
Ni 8.879441928548369 9.499187755167684 5.705203369923768
Ni 7.371394211308873 6.868817485970294 8.590933030984619
Ni 8.86436970993745 5.794872433042342 9.809751826638175
Ni 7.756627672481643 9.307998584495628 7.826791417552116
Ni 5.934578216791979 7.926933461063443 7.037041697163477
Ni 4.979465907659392 6.049069888920983 8.354061247453902
Ni 6.491530221537572 5.609440738572555 6.557285127734356
Ni 8.697890263138198 5.106986815936909 7.39647222616492
Ni 10.247343417155804 5.87713886829603 5.77242183720349
Ni 6.864691138421712 4.495613127402344 8.676341252279059
Ni 6.52497529417177 9.732232723347844 5.772725057118879
Ni 10.094490094225712 9.36465070162424 7.771684656453685
Ni 9.052467409708692 8.294440204004472 9.58062269689605
Ni 4.462378106645467 6.577171035713936 5.927063859729296
Ni 9.146716204481963 7.510488245528028 4.29851419067761
Ni 7.606610970568371 9.200313035072876 3.7731283284927897
