29
Energy = -121.8811991 eV
Ni 10.43002367014775 5.626111250535184 6.860546218254406
Ni 11.480165904777625 6.366915282170551 8.790204616920443
Ni 5.112371747088168 8.622419593228711 8.884887939673366
Ni 5.502565463953873 6.679134820050411 7.07846820371735
Ni 9.265544892414 6.928356727000558 9.397289750072144
Ni 9.232947719915455 7.6428862791314405 7.169644899356986
Ni 7.147644191568201 7.511446885278493 8.68637847394656
Ni 4.550355134603638 4.70377536540181 5.722640004382955
Ni 9.011678805508254 5.814682806403503 5.057832670715067
Ni 11.536395930966414 7.672553181051351 6.716221308749043
Ni 7.4242200258790545 5.3037145460561845 9.526536319437813
Ni 7.432069948598611 7.45527497976807 5.561034773887444
Ni 8.51437830121124 9.479520587276408 8.313159688319056
Ni 3.3337378864436067 7.3478882993806165 8.249816558604914
Ni 5.2298216488899785 6.190905250021567 9.353164656580136
Ni 5.172771981443564 6.929468630082606 4.798007087503965
Ni 4.3072764452979895 8.60743389563082 6.433277066591022
Ni 6.031707992801011 9.174841893289008 4.827815351694572
Ni 6.486529559557496 9.119895795723911 7.117970045266841
Ni 8.231399748119173 9.688230660134941 5.779828511199913
Ni 10.772462887300065 8.647156483287342 8.743011525117124
Ni 3.731405280607639 5.091704034712532 7.865728207877793
Ni 3.1714841200103954 6.55052459515128 6.0632010847646285
Ni 9.806267322940219 8.061634172924302 5.009523563336147
Ni 6.0326487701666975 4.472867063443981 7.697034422851392
Ni 9.67547586784314 4.718646150166053 8.881692222791889
Ni 10.37207484437611 9.762030724998729 6.705804539198654
Ni 8.096783140873669 5.544674005798841 7.305304857489842
Ni 6.763592285155817 5.183877593899069 5.440903404616855
