23
Energy = -94.08069628 eV
Ni 10.306853558475064 6.158062376719065 7.034196118514774
Ni 3.8310191920509435 8.964631236078993 6.898509016951093
Ni 8.111756300628285 5.183282106010858 5.808591969649624
Ni 8.17050609128809 7.005026178324353 7.159398874430519
Ni 4.101831151817922 7.504363933491157 8.861193076204692
Ni 6.185548829081136 9.436368534689011 6.367045148551824
Ni 8.748187305256886 4.927007761097737 8.246454902584729
Ni 9.648558651684265 9.128340066569057 8.316477917873884
Ni 4.808097357948986 7.814514439384504 5.103654319381625
Ni 7.077153595070745 7.401962802733241 5.11388084934896
Ni 6.719828244862934 4.219218846503059 7.488281990392325
Ni 4.82227345256418 5.344490135436742 8.15566202271163
Ni 5.700121747661927 5.571614809846234 5.8671907397039185
Ni 11.327885067214611 7.554978040196212 8.620480258790653
Ni 9.112198266888942 7.069553988582917 9.277729819869952
Ni 9.37654490930287 7.1402503471398235 5.075047033738829
Ni 7.377270488698134 8.724725862683997 8.56352400326086
Ni 3.5688842761556328 6.607257032173128 6.6677182118857825
Ni 5.761006166293062 7.404696966185584 7.2902662362558575
Ni 8.501194859857213 9.109418732584214 6.228118350288833
Ni 6.874843922984754 6.20319407835116 8.994121789178548
Ni 10.778037724024768 8.394919651962262 6.456348262039206
Ni 5.25236280523933 9.528372815144087 8.619356489291514
