28
Energy = -118.10376289 eV
Ni 10.11430642309977 6.18718701038539 5.334965884626811
Ni 7.0797192703541745 5.569927106530832 3.3850228218699527
Ni 3.272407239512666 6.472816568379422 5.9046138387799925
Ni 5.4967435094058255 6.54003985216779 9.40921104129398
Ni 9.442313731862365 5.024544222701373 7.251078577835725
Ni 5.3204637599849915 6.073864804965189 4.859716464917355
Ni 6.047537680442111 7.844491176236902 3.53409908035534
Ni 3.5527979401516223 4.887972283659735 4.005477844428773
Ni 7.741735417408864 5.815245830209842 8.698000643501329
Ni 7.398277769075856 3.7938478157463753 7.265163988542743
Ni 6.870738970256042 8.006809981497955 8.213699285626141
Ni 5.847351567367057 4.280599475525432 9.024860391725465
Ni 4.248269909914784 2.7831490465717645 4.849202970825911
Ni 6.0482658060542045 5.726718748042778 7.135825423995785
Ni 4.609373358991888 7.625173608919599 7.4987258017900515
Ni 4.985944005978682 3.474339832727162 7.026638948887428
Ni 7.893939071721273 5.491547448879077 5.587161561581232
Ni 8.69355683222078 7.253711334642606 6.8998260373506906
Ni 6.627329825994322 7.8678103887204465 5.885034941775046
Ni 4.4682067833294745 8.536057278849393 5.348824698328714
Ni 3.6092763379666475 7.260307805413706 3.634478682691736
Ni 5.647065942921501 9.65477243875342 7.043096578679795
Ni 6.268498083291451 3.9168881169059664 5.1377958984981875
Ni 2.920212694090579 4.172213769626823 6.177671389087523
Ni 3.8722720574375886 5.409847347335475 7.986714518905279
Ni 8.306158454578565 7.39793534740669 4.358680477106413
Ni 5.0096924263692095 5.965143986786344 2.352358541679463
Ni 5.429608401613615 3.7891006438091894 3.0141169367099723
