38
Energy = -165.04047892 eV
Ni 4.010556733649412 3.0643805925604153 7.916589686182692
Ni 4.927382781336614 1.4080157653368197 1.18484951761697
Ni 5.9750953612630076 3.7322218138485104 1.0819069203681038
Ni 2.4919659781354166 1.5996587905225117 0.9826122500373844
Ni 4.1089554174872935 5.283299595447526 0.7071820818989817
Ni 2.0026337837700035 4.039124685186811 0.6013157673311822
Ni 3.8541973212012155 3.2372242061438024 1.9905808928075852
Ni 6.307361313779951 6.117075937472309 1.5644926419267233
Ni 2.0303863231680483 6.304736394910699 1.2736088567259574
Ni 0.2187145337446045 2.5147765254202095 1.1608157910234949
Ni 5.7468355603977646 2.4793565535850917 3.174190179143237
Ni 3.4628248812751923 1.2013926715670693 3.3187710573123135
Ni 7.28242457651985 4.416627530188552 3.0228817844232867
Ni 4.913443660900327 5.034410728300297 2.966419761673665
Ni 1.7442301689594726 3.090681784256741 2.764639661202525
Ni 2.5641212405591216 5.3748955216196705 3.305459694465152
Ni 1.021885538328081 0.7992942924634185 2.7064198897116123
Ni 4.113774096368288 7.103928290078093 2.2507368069839617
Ni 0.3539072713053152 4.791106032281339 2.2671916941626873
Ni 3.5217833790401127 3.32569708979763 4.450451663205042
Ni 7.767473606005963 2.6900954591558226 3.4857890008543553
Ni 6.479884912099178 6.463134619316209 4.0343395988901785
Ni 0.9973863812480798 4.27673493266972 4.7264510147752965
Ni 4.241579325236442 6.652814743831784 4.559392678393447
Ni 1.5005124609995726 1.911961547841531 4.793663777054237
Ni 7.64008388715828 2.7994818039218767 4.750036445172503
Ni 5.730951427303868 4.16372044127026 4.909952574470061
Ni 1.9813749583369895 7.933716413635966 4.590202145685558
Ni 5.550721539154631 1.8564914618677817 5.432741751114349
Ni 7.7674736060059635 5.106486535372628 5.429505626630213
Ni 7.8546996086664915 2.6794869232283403 5.88697095674698
Ni 4.3180753305353985 3.444092508074593 6.786543757781936
Ni 3.015660671505377 5.180883449541723 5.797048544862143
Ni 1.95722080640595 3.2234429753976634 6.63522463426953
Ni 5.39635387676675 5.719589300007268 6.455576297559823
Ni 6.7006186159737595 3.506663954346913 6.880994380525814
Ni 3.4056564165835095 1.2871870829785637 5.88914604435204
Ni 7.8695637114513355 0.5629183509031571 4.642111477007258
