31
Energy = -131.80396213 eV
Ni 8.477079213681609 5.211365958578498 8.11277171127285
Ni 7.074973668269501 6.995282425213906 7.57459271935553
Ni 5.195863193461131 7.083438750789736 8.956877048978972
Ni 6.131060173535365 4.9932700894811255 8.403182197307574
Ni 7.44184840103083 3.205147869324038 7.33577178375718
Ni 5.0618652640250685 3.542862718396244 6.968663234553112
Ni 6.14747132265835 1.832956310267065 5.821790363253167
Ni 3.845869956181512 5.487228098134362 7.773375341878183
Ni 9.323335186300689 4.3718599288708555 6.165110896068763
Ni 3.822800587057024 2.103906351205165 5.485798560128323
Ni 8.966759431677993 6.746170176659425 6.250594743994106
Ni 5.5627101400201155 8.657461283671172 7.149859459759775
Ni 3.4229599003789044 7.840005231545434 7.698390192605021
Ni 7.76946974904234 3.1976424919883586 4.9088501640340905
Ni 6.908993112550257 5.105701396802783 6.07053950129722
Ni 7.893157913019812 8.975552472485262 6.582387238406009
Ni 5.379975083951125 3.6845890182920815 4.549416571940619
Ni 3.79073095139642 8.72896262974759 5.549902646250165
Ni 8.365435058835663 5.506070471846651 4.273905795219869
Ni 7.116710907444239 3.973768834060158 2.829692739133842
Ni 4.905785563277506 6.539305576629389 5.934715366971435
Ni 3.2730110127161924 4.371020172393932 5.764990439692038
Ni 3.1937027038899424 3.4087532648228414 3.6165756337014083
Ni 6.008324128110879 9.570829329178624 5.089197583037385
Ni 7.00604152281701 7.4724774156462095 5.092947318766785
Ni 2.569669315425845 6.606765008501324 5.892516141850041
Ni 6.088575730360659 5.808140256815783 3.7462509207699624
Ni 4.8467243712385715 4.404273036861439 2.3195772646100576
Ni 3.660234452481282 5.753300545627771 3.874778316617982
Ni 2.5741820337967756 7.789245837480927 3.8191855596890307
Ni 4.953357075055304 7.8267819212076 3.782273704314094
