38
Energy = -164.5629793 eV
Ni 9.343041199806041 8.884460523200884 8.917277437148726
Ni 3.164837387267363 7.8016186345725105 6.439797352858362
Ni 7.339706217832183 5.718398887821701 5.962115880225187
Ni 9.14191727068195 4.448282307574212 5.1511181361587015
Ni 6.5964260721901615 5.701915077933534 11.101134605564168
Ni 4.9091403575607835 8.510416577416892 5.04107638399213
Ni 7.3634565940059815 3.2708772108088318 6.300176511095671
Ni 5.523866046089534 7.270453611631494 9.676831776593056
Ni 11.100981050041497 8.010893070918984 7.600380079699255
Ni 4.417869173178088 8.75032652955398 8.206576461860376
Ni 5.4886618619239265 4.5351450271050435 7.076662541480865
Ni 7.017592487678693 3.481632857797264 8.612145495740217
Ni 4.137046612772977 6.295202111672394 7.961081264929788
Ni 8.850473498794768 4.641453274221453 7.57211598829868
Ni 8.345209982075463 7.493057926973321 7.264217784692331
Ni 8.79211114685417 6.858632636709874 4.505686315537021
Ni 9.82198033072886 6.447887215416297 8.793480021667026
Ni 6.965243121277042 5.934364688154717 8.418835951108631
Ni 10.579685553533624 10.278288353341722 7.383076246462938
Ni 6.8552205699180995 9.032749732540326 8.684212015072779
Ni 5.918247498899327 7.442638247985376 6.905057729882687
Ni 8.429568393502368 4.9061691737646855 9.932794713876785
Ni 10.137433410811843 6.237217283830342 6.36724882400175
Ni 4.533852912105387 6.0904576267149295 5.546374643465399
Ni 7.743639385462465 5.078521370499225 3.368003751364937
Ni 5.216150501841986 4.80623062536562 9.469967811856367
Ni 9.782929276530295 8.626382503489292 5.75287260915586
Ni 7.9352902339231095 7.336473688111079 10.011684797962019
Ni 5.932620699817439 4.357344141158198 4.675773367977856
Ni 6.315434264314292 6.79491342033797 4.138830171143892
Ni 7.359584611874606 8.582673025275867 5.322205611146962
Ni 3.606159026650097 10.100113006641582 6.39641720459891
Ni 5.923825215190791 9.976796519806 6.641581329418578
Ni 8.296815210258647 10.024706754551378 6.98638848705938
Ni 7.708965528678162 2.8621938605919643 4.0583946785206795
Ni 4.594943242753953 11.027574411856353 8.33246475073565
Ni 6.868484933588879 11.368928613723469 8.288973909964227
Ni 9.052551074428637 11.151609706761542 8.962294872063108
