36
Energy = -154.48883593 eV
Ni 6.023950173516959 7.548240834198592 3.679418569773342
Ni 3.5367551002196636 4.95328728280198 1.9989707544070154
Ni 2.160047773859345 5.528394735018201 5.806384582956304
Ni 6.181574603203542 8.239822435997105 5.9085027952351075
Ni 6.3703817269495255 4.183252877664066 7.224824914110891
Ni 4.195604924467333 6.6234440358945434 5.535154965804338
Ni 7.1167272334641085 8.946797467687224 7.956873316417711
Ni 5.536295239765923 5.337402486563607 3.1020252559856165
Ni 4.16578096782054 4.493277644990645 6.631035048285049
Ni 8.646327753485368 7.497938384676341 9.142430000462237
Ni 7.861842680611622 5.905460029132568 3.3438975215193194
Ni 3.582939082718368 4.56920873669483 4.275577422435264
Ni 8.603653386936285 3.589067922577925 7.778265817351621
Ni 6.315092150677202 7.291130157423542 9.589036495910197
Ni 5.393416535021926 10.231070555332426 6.805731365074668
Ni 3.172806709891344 6.248434471797999 7.767218308374668
Ni 3.745252655276998 6.921986237831146 3.3101767974844454
Ni 4.8566049644119405 3.1420746017798082 2.8497330509163112
Ni 4.109946383464978 8.374465496245149 7.23856524616207
Ni 7.940612725530296 6.978381451499453 6.990500201890154
Ni 6.620821890624904 5.83807516618974 5.322092018993166
Ni 5.673892804763613 3.6389891264651584 5.013922555266465
Ni 10.265520305785389 3.9052626543047015 6.107402606766142
Ni 9.646683263504888 5.618246126297012 7.764244391158659
Ni 9.197069103108529 5.79103654688785 5.3729350365748045
Ni 5.006207621195335 5.140719790175753 9.12465481881822
Ni 7.990934943436518 3.754366866177779 5.510158774266147
Ni 7.210885914544606 3.62955732843581 3.2298478897429033
Ni 5.624142092005001 6.477328505699761 7.456762364473154
Ni 5.232470522101655 9.475428509095595 9.090577220710857
Ni 9.480505784003732 4.134670660009343 3.750860121355804
Ni 4.0473658079397214 7.466971608684152 9.46746883982785
Ni 7.357320892680741 9.238083777862565 10.256617474458412
Ni 8.149532137387757 7.803141344944746 4.739598471964257
Ni 4.263836402001444 8.8553964110786 4.799681341627085
Ni 7.498642878110666 5.411032866371699 8.84029877792743
