32
Energy = -136.75680187 eV
Ni 9.867543976772057 9.675088964505642 5.206833394300261
Ni 7.524280036121421 9.91365056581541 5.524410427259008
Ni 6.161674287615698 9.119590619096392 9.817229976268248
Ni 6.1421222125344075 6.590653209139417 6.786228109829454
Ni 8.49735912839635 10.014245200069135 3.364581951565257
Ni 6.936412901863277 7.029268353895445 11.155401303061044
Ni 6.791312273527441 8.403413791418338 3.570822542450071
Ni 5.694998728210688 6.402540965984286 4.519546575767796
Ni 7.776685774950136 6.194838783060169 3.4062911183035847
Ni 4.573183535527127 8.261103646501763 7.925388149247078
Ni 5.5554686860929605 4.50186456360139 6.05298950784942
Ni 5.432461580464029 8.516210314088399 5.619581197006222
Ni 6.80421997206653 8.91091541290755 7.557255980646778
Ni 4.979273654361848 4.964234834178326 8.283641963260653
Ni 7.763902848948485 5.249784631101358 5.5692877126311195
Ni 8.257908450000997 7.020880726580691 7.63637298316002
Ni 10.326672976204303 7.3678864933703725 8.528572055311624
Ni 10.155181722508466 7.4807247007009625 6.114145734280684
Ni 7.861219472119166 7.666703686773101 5.43145163337613
Ni 4.624774818220633 5.668849403144139 10.579063480866678
Ni 8.643774872250043 5.921624685959571 9.627795964796913
Ni 9.6753263908133 5.319215568657316 7.155195349605549
Ni 9.128726304824836 9.232096923415734 7.401524072066043
Ni 4.304071413897496 7.900883573928429 10.354326371397345
Ni 7.363962502409088 4.789526011054241 7.875516760653385
Ni 9.38537920978787 7.887290065942766 3.753410591630527
Ni 6.1197264320441045 6.8749290022703144 9.10065238761382
Ni 8.310697560206393 8.314533560307074 9.541308602461227
Ni 9.813292022063388 5.734180278544797 4.643692297965876
Ni 3.290088081766821 6.495282400635836 8.766927208415861
Ni 6.67760864313167 4.7712897280201085 10.144962502427562
Ni 3.9398968562367074 6.440386314861573 6.402888326533485
