38
Energy = -165.47690166 eV
Ni 3.886771875371844 3.852524492321282 0.13802774347948976
Ni 3.166687606143049 6.138866291115374 0.43795543924147234
Ni 1.6344291303378646 4.390508223887764 0.7122128793731592
Ni 5.319552920202222 5.526303214265713 1.4164911373563425
Ni 4.645726636318005 1.1653897371111557 1.3109739626574228
Ni 2.5840322296619322 2.4419527208589273 1.6528306835654394
Ni 3.285803191812002 4.750604445971725 2.432184165897467
Ni 1.5036356683875267 6.264012027846837 2.254988110637245
Ni 5.074843952432446 3.282654807224159 1.9914636858702222
Ni 3.9087396990652064 7.143928521916094 2.395020229464206
Ni 2.805168508554151 0.17343357154421962 2.433580494114196
Ni 1.1140571746733388 3.891743892350681 2.9919529036556813
Ni 6.726174713386001 4.425136527718374 3.0914125954909375
Ni 6.417616482745781 1.862732421164996 3.2184004471157697
Ni 6.326844670051855 6.910389736883939 3.1294272461514288
Ni 3.9134791407777105 1.8962374394864474 3.5623000038636956
Ni 5.056618516204698 8.06957047049399 3.274674205580332
Ni 4.820617826229148 5.585877141058335 4.158097629036394
Ni 2.876196814191587 3.975927022973073 4.67133216822561
Ni 6.16041489417153 5.024634107178725 6.179659047419411
Ni 0.49726990678937233 5.616053406005032 4.419908922239598
Ni 1.62041421855364 1.7240726452453758 3.830323511688463
Ni 3.208088658049786 0.053738099659266715 4.829802619976504
Ni 2.6066623391652266 6.527072091233217 4.325685758267888
Ni 6.332000801383929 7.271205615774105 5.522562728236223
Ni 7.432621022948003 3.1444423963088552 5.092855343961429
Ni 3.592621201623418 2.0280730120543122 6.076285103305643
Ni 4.468144467174689 8.06957047049399 4.410208360375437
Ni 7.80393734339335 5.64659978882502 4.682704172099356
Ni 4.001292189413406 4.266358370079251 6.804650949079125
Ni 5.218763481654346 3.371301083200497 4.73719651105879
Ni 0.7143416298834779 3.368764295943211 5.330115598420239
Ni 5.582375036939268 1.0282453340026403 5.265204937749077
Ni 4.1245480201464355 6.522838610159234 6.196620156315483
Ni 1.440936875483221 1.1716243434505007 6.092309225472801
Ni 1.9384629642150963 5.362534648389827 6.320662137756231
Ni 1.959983992546292 3.1618470955405824 7.29588819568366
Ni 5.826595468302512 2.7269246957224498 6.910502258500792
