31
Energy = -132.15053066 eV
Ni 4.853864611485843 9.117570256557642 5.962511277330704
Ni 6.558472581329346 8.180232469613559 2.4231706204191976
Ni 6.251750272259737 7.363455889904798 8.804160704553519
Ni 9.502863585121567 6.124679456471214 5.546866840054236
Ni 6.631467955931724 5.784614634571551 2.88229299005243
Ni 4.722723495053268 9.127222775604656 3.6463254075000746
Ni 5.605566166485538 6.717656271080621 6.682985919402744
Ni 8.276631717468408 7.285414682909469 3.8318246584355995
Ni 8.82637041469443 8.385684812977738 5.7884900433194755
Ni 3.7045478612442237 7.283766597542559 5.023816129623682
Ni 4.519195045756446 6.913685769411212 2.7879446585617806
Ni 7.031587166648016 9.464910338361877 4.591553180748693
Ni 7.322407511568799 5.336745561358715 5.153558293134034
Ni 4.936600097023557 5.309872517487384 4.541141604339674
Ni 5.022159832670267 9.30724815254481 8.310836625031541
Ni 6.352989777019198 3.624160040596702 3.794351803756009
Ni 6.096405941386207 7.443150542388263 4.57004744707365
Ni 6.882221259054574 8.798187025339622 6.974925170253221
Ni 7.141946309358129 2.8554065328987477 5.8377347614677015
Ni 4.613555954398512 3.176370397720459 5.483980954565081
Ni 3.6718446854144093 7.589063916236997 7.474827011832973
Ni 8.545821467757259 4.440438516224427 6.958073967001736
Ni 4.63874228352304 5.590728291953359 8.643188257204935
Ni 5.886554273315628 4.3782273551141415 7.001657939871674
Ni 7.971050929085519 6.699694215925595 7.200493088679215
Ni 7.116035002860781 5.143108766617741 8.815868968279759
Ni 3.5912664934664926 5.374282902066269 6.466407884085487
Ni 5.5354054876342245 1.9893019131449603 7.36221296825407
Ni 5.515284262138101 3.433533789814104 9.25068449891715
Ni 7.549039679699485 2.780212158129793 8.245251271667954
Ni 3.7154909282297615 3.444305303905185 7.746426029751332
