35
Energy = -150.77772757 eV
Ni 10.077053451796361 3.6796433216083226 6.981971914913963
Ni 9.900380140090956 5.86612104140673 6.318933421922688
Ni 9.854200086038698 8.153407693921341 5.819191497299822
Ni 8.32843235966948 7.386559450934847 7.414408926268445
Ni 8.664628036239936 5.157295052935865 8.232665102837226
Ni 7.430577836673111 5.37081219649636 6.25606554830655
Ni 7.9047605829898515 9.520560378559715 6.295439323994521
Ni 8.645897880880739 6.601769645696123 4.441251093857964
Ni 7.827954048879137 3.1978892678316475 7.1526951415311775
Ni 6.430638178286408 8.610081714779014 8.077204315910434
Ni 8.601079218440665 8.881795512636511 4.012157230599038
Ni 6.303891744658005 6.185098458274251 8.145891694619799
Ni 6.811071377035546 4.086835623673261 9.155837763849794
Ni 4.153667187826978 9.471344606322173 8.2368120501439
Ni 8.809340511193664 4.111277467162656 4.983891100862199
Ni 4.5102612605608865 7.283825869838845 9.17772246899724
Ni 5.480023249227886 9.84368129556682 6.308153046543696
Ni 5.486502699823874 3.9792642520689596 7.262748078224109
Ni 3.342052976207492 3.390648814439144 7.832324242999736
Ni 6.536406936896498 9.787628831985291 4.260340469037219
Ni 6.518971966300723 3.3315289930421876 5.205120694624746
Ni 6.672290091787727 7.587865776050452 3.2813200650488654
Ni 3.1447480565434254 9.188689517723363 6.068274927860297
Ni 6.805621729202521 5.247063348932818 3.860340953339103
Ni 4.676160299018968 7.645506993978145 6.8827551295213825
Ni 4.626444140442869 4.83827528477718 9.41546040294695
Ni 4.704720311240757 8.308975748798783 4.537056670708711
Ni 4.67617873782157 3.9718043973037322 3.950844019101424
Ni 4.398782258597737 2.454383541371056 5.843747369736133
Ni 6.781686554552927 7.6226401430854285 5.604235327022732
Ni 3.6336329132845595 5.707980376725143 7.533335908086802
Ni 4.661019829433494 6.274188337119437 3.34815152925679
Ni 3.052916215364236 6.798366179288568 5.3551807236846
Ni 5.161533949391789 5.726507810277264 5.5493321187755855
Ni 3.1638623437011666 4.408650581358514 5.673295465566153
