38
Energy = -164.54124719 eV
Ni 10.481915495667591 8.128808761393625 5.690962301028429
Ni 8.710042656107278 8.846951804696365 4.373544229203382
Ni 6.675593273806209 9.303904783986763 5.3222178522112005
Ni 4.878546055475848 9.111175801994248 3.8872910116086197
Ni 9.060436539300827 6.579205804660065 4.651450887456348
Ni 6.759742466335981 7.394568527649364 3.8772705022879688
Ni 4.377119549040949 6.920512389838621 3.4220637598425188
Ni 8.533465504062676 8.864720447245471 6.784841589915207
Ni 6.185204678345185 8.769598672624593 7.5277185746993
Ni 9.557018187966793 6.619048891499493 7.211038316757319
Ni 4.494687749732536 9.74587758825003 6.116429479448199
Ni 5.988901343741621 5.567238544802148 2.448435456686982
Ni 7.192270648157046 5.108036105179116 4.380501534926237
Ni 7.424211213494879 6.909131296975769 6.271743732079629
Ni 5.158942897038809 7.3300005131073265 5.711975932087079
Ni 3.042049405801543 8.069803681311072 5.09817681334089
Ni 8.741100367616076 4.72322561002284 6.0834181438801105
Ni 7.8498759025470255 7.5031256192874825 8.61497533793014
Ni 3.8116894668860746 4.693218125532689 2.746566341372426
Ni 3.83015663411266 7.99660011838702 7.5442264904324094
Ni 7.262841778084523 2.885094052050205 5.416188981435209
Ni 5.713065206937536 6.542748676925519 8.033508466277489
Ni 6.362788639118625 4.697126874820241 6.622530557927209
Ni 7.898296581189622 5.162910678641161 8.358847907246336
Ni 2.3653777592219667 5.9495516169774065 4.228237897712387
Ni 4.772048477873105 5.02600878504954 4.8759097995961085
Ni 8.420582812594464 2.95450491614971 7.526080583215631
Ni 5.788253787954076 3.398129127373699 3.513959862715685
Ni 3.1342028792090977 6.049914287015434 6.442560434634074
Ni 4.89664845275089 2.672309837601592 5.603770269665227
Ni 3.6573568230314617 5.899837730640866 8.784112401256223
Ni 4.16002509120659 4.145027356435585 7.289778115423159
Ni 1.6824821336899656 3.9109591558069425 3.285148103432035
Ni 5.622969235488283 4.485054754931569 9.122307858346913
Ni 2.7807773950371835 3.8886408512475907 5.35940367980565
Ni 6.119697940119597 2.631696259351354 7.647232062849009
Ni 7.45724341915603 3.1882412143959766 9.593235316216775
Ni 3.560219234897916 2.5282066773968914 3.6427951893448096
