36
Energy = -147.34790253 eV
Ni 10.072904858002634 5.7027034968735295 6.685074265274358
Ni 9.359299740888742 7.041059858251867 4.8055856604908564
Ni 9.10904064171735 7.713264482813358 7.083367413954893
Ni 10.008816547506894 9.909467643364307 7.145996396383233
Ni 9.923170536103456 8.309757994642892 9.238708191748445
Ni 9.068337353407614 5.897676767469898 8.816130480882334
Ni 8.008860534748267 8.465618451437315 3.437227001593053
Ni 8.229111232178909 11.622861884734409 7.2068449209724665
Ni 8.572871762073103 9.883160878914813 10.37923202098581
Ni 8.38153735326936 6.210800471712583 11.026961014400003
Ni 8.614815394120098 4.168354408872158 7.733441290880263
Ni 8.464558618830578 4.917821729971716 5.347693351329998
Ni 7.013432426905171 5.355621742771126 9.246197228050757
Ni 7.230750530948131 6.0340946186916415 7.035201209079278
Ni 7.142903842543143 7.613691265970501 5.457435649544906
Ni 7.849471316065845 9.69821454112255 5.7543512242489046
Ni 7.973217815956088 9.485732864368156 8.122258706453442
Ni 7.653218571129751 7.795547882177316 9.393507377955432
Ni 7.711783846627429 1.937015295964589 7.352460803270958
Ni 7.052602277664434 6.376512413805934 12.97573131038769
Ni 6.784784968865163 3.7738883033671904 4.2750022606447375
Ni 6.645111354337285 10.453243141062885 3.72529366609533
Ni 6.3511307060903635 12.830611549553467 7.658737946555101
Ni 6.7313705583975745 10.724328598141614 11.541713083267249
Ni 7.42841926607378 6.101634117555257 3.5738945347592903
Ni 5.721531265604136 7.977245870910674 3.7512950279844155
Ni 5.810485763391025 5.704979110039962 5.25625709536459
Ni 6.557858426352379 3.7337843687396703 6.538235298397112
Ni 6.952169413090812 3.108484519220186 9.103129297547724
Ni 6.786894912409899 4.463995594036799 11.426296639932735
Ni 6.094103400224276 6.716379153950565 10.944279330283129
Ni 7.346132622020718 8.476091339346937 11.68424361405709
Ni 7.0064277188874415 11.286028019539353 9.343401298934568
Ni 5.91159870326944 10.551815506287785 7.433416532957397
Ni 6.492337679444366 11.7502609401808 5.495798631962267
Ni 5.35038712779925 9.619841252987788 5.417515525937834
