35
Energy = -150.4115027 eV
Ni 5.319407702077647 6.504933196130743 2.197002511718169
Ni 6.884671693687089 4.77620235272046 2.174169038665411
Ni 7.327507729596343 6.7469339328771385 3.4522425610300274
Ni 7.547575666029188 8.633429900043382 4.925273083895512
Ni 5.521177657356838 8.291016342474146 3.7220385646005147
Ni 6.688781570873028 2.8730891646335457 3.5406751719408263
Ni 5.739097705247162 10.095507010268326 5.22123275991966
Ni 8.483581641833098 4.6034376128028205 3.894587002241334
Ni 4.244050607841276 6.362306191625965 4.247594016991635
Ni 8.335359514987706 6.320961494305143 5.566131106889827
Ni 6.288598356090876 4.986280888838112 4.635159841479343
Ni 4.7032319415839074 4.3100763545401515 3.068904646476573
Ni 4.074688753282844 8.36651695030172 5.6282798926432
Ni 8.83744680699458 2.3902635711192586 4.533327505113708
Ni 6.042275735248107 7.056264841416909 5.862248517471795
Ni 8.266423527868923 8.09077547191484 7.118178144071382
Ni 7.5883123292889945 10.272377303019514 6.7550827289266415
Ni 6.921161016383228 4.9535967964388545 7.084729309354107
Ni 5.773537845052416 8.953208379423511 7.241868066186224
Ni 7.364051477371634 9.177585664016231 8.928495374097965
Ni 2.9183996074196132 4.442026666663412 4.716507408871913
Ni 7.0445847206116055 2.918952703661117 5.851643369529598
Ni 8.99781290263588 4.150478256499317 6.18765146185052
Ni 4.805758578407727 2.9881051809585935 5.0649669904276315
Ni 4.575399150659844 5.081770881316402 6.358804419890556
Ni 8.854384573642383 5.960520906085783 7.838933381798311
Ni 6.623490641218853 6.956852108938786 8.36167196405206
Ni 2.6423560061026654 6.510898731960236 6.017963479145339
Ni 4.333341744219207 7.103130750621635 7.671949317483961
Ni 1.2776700854972252 4.615323950024146 6.388881511029146
Ni 5.399387797873328 3.0830097669915992 7.45815805112401
Ni 3.120465224397931 3.1988141345375696 6.793511871984452
Ni 5.164840740620323 5.1224426587898035 8.735477488571048
Ni 2.8684584392988413 5.197947139851072 8.011297982954764
Ni 3.7104746946273472 3.2870801147558986 9.078433583043052
