39
Energy = -168.50418981 eV
Ni 3.957969188769608 4.555850784648337 7.693329667978189
Ni 4.256148881878678 1.990364396620725 7.767693803916926
Ni 1.9890567635846232 3.099509066928273 0.6637300583300328
Ni 6.26034008086599 3.5187014877662794 0.6692688363309397
Ni 2.6030567432132323 5.399270404228759 1.7577688579449966
Ni 5.195643356664853 5.593941403598039 1.7247425129369878
Ni 4.125418911885344 3.335278907049564 1.5936637430050153
Ni 0.3174163535762374 4.504741735013051 2.6911456824127717
Ni 3.0410554042156117 1.1536788281603714 1.9172034928138488
Ni 5.65081701895649 1.4041051969451384 1.9055923446062895
Ni 7.582940106989606 5.04905749718568 2.4085120542231917
Ni 0.5417409979712549 1.9185234836694174 2.497565193501565
Ni 3.640165250967241 6.9027316176531714 3.6036539415100592
Ni 2.230047850251623 3.2080613663638093 2.9740367545977078
Ni 6.035469225109517 3.614812929092034 2.990930042334308
Ni 7.8589953669130495 2.483941464579767 2.490842661618242
Ni 4.045571309726592 4.629032764538405 3.490558901285796
Ni 1.1604462364966714 6.924108117831675 3.1844412328204417
Ni 4.262148605207839 2.1705525408095334 3.6689304657222706
Ni 1.94781512290737 5.168909290594094 4.231859173094064
Ni 5.9515229411767 5.869848067012669 4.194919942578991
Ni 4.548681624878866 0.003937093434350727 3.6786895692339945
Ni 2.177473138383319 1.1903369661175693 4.336797688245675
Ni 7.869608413934647 5.606909944772252 5.06866760375268
Ni 6.4439758659764586 1.6276945507866416 4.396142298339462
Ni 0.628736491949509 3.181122536826073 4.841745943571958
Ni 7.5707862307448455 3.891459761399989 4.73781531528158
Ni 5.310320264119897 3.634324810231523 5.220395826077106
Ni 2.956686005244809 3.2612044167236114 5.243481496156217
Ni 2.1345113547647707 6.999407211192313 5.666548080183332
Ni 4.738103509181211 7.438813762484085 5.781771935195404
Ni 3.8669413317139485 5.432383378631366 5.630994557155719
Ni 4.417336676395246 1.5036174798566992 5.969016003774482
Ni 1.716126626367375 4.711603588027888 6.663572637451159
Ni 5.907174346379032 5.27525459780956 6.7495874304276615
Ni 6.486035263539206 2.75357283141482 6.8321580451981925
Ni 1.9373864126109337 2.2175917492967163 6.873020636507835
Ni 4.020053864645071 3.661363170689943 7.320912509352835
Ni 3.5327336922834376 6.122257853450968 7.69332966797819
