31
Energy = -130.84864126 eV
Ni 4.056412305442289 8.8115487324062 5.88492217519652
Ni 4.231370059630926 3.207736897067097 4.36822944888704
Ni 6.427006182778108 8.537745932838478 5.712109703984255
Ni 5.713645719112234 3.815959823463941 2.673316723828501
Ni 8.670100455840123 8.054825632376296 6.101770909763916
Ni 3.230483620217049 6.878350697964257 7.533750063928437
Ni 7.445648692915309 7.22362107793568 4.003309046354436
Ni 7.431436994499936 4.987320361887793 8.242615671566012
Ni 1.8611765832561933 8.35823937805052 6.43337488002495
Ni 5.346111363989738 6.143638501773105 8.565308311027538
Ni 5.123717270850622 6.666757175545378 6.2945629517118435
Ni 8.129643787183936 3.863621467077514 6.28608117802966
Ni 7.430837839794411 6.04281692956883 5.979532133587703
Ni 5.112924451778026 1.2415186304278403 5.30236739405949
Ni 6.060053068041632 6.1758358020366195 2.397636602272156
Ni 5.696847007717076 4.348132864176503 6.830837959142917
Ni 2.931819638062195 6.972456194185402 4.964657553514549
Ni 7.613545703373444 4.646210406596563 1.691690688082468
Ni 3.764631373119233 5.385966895883584 3.372309080820934
Ni 5.728961623391051 5.263893024684995 4.514054018152007
Ni 7.928196814251631 4.781442600724418 3.9560590344051443
Ni 5.032894568227496 7.533271835315641 4.0317958936819736
Ni 9.305227823595743 5.953059393058914 7.250614955513012
Ni 6.4903016440497785 2.21583496806609 6.971895437875642
Ni 3.514800718927231 4.92103357801746 5.815002001780842
Ni 3.67222381575007 4.593893791342012 8.118649422491407
Ni 5.267435000256278 8.436906855918677 7.890423698854153
Ni 7.368053443341756 7.3376102646878385 7.958105413946625
Ni 4.046704574205323 2.736106555833277 6.731855921000063
Ni 6.547465837814397 2.979382893408576 4.764317304649961
Ni 7.341528390891113 9.596749616987397 7.532524843694917
