33
Energy = -140.71668058 eV
Ni 2.9713354534709575 6.531500221874847 8.0978674710773
Ni 4.117966395639953 5.0909190047193364 3.59233037320337
Ni 5.816628613673849 9.157242320754326 5.762286936793254
Ni 6.823151677172733 5.561859835084547 7.534936469458981
Ni 6.908512832935887 7.107284782438666 5.6269300837426055
Ni 8.713329069189214 4.028392822382945 7.139403538775587
Ni 9.032417950396704 6.256404370534209 7.961754007883293
Ni 5.862471610000146 3.895242118111504 9.026243081951474
Ni 7.5386633204379025 6.855677305768534 9.720662707825328
Ni 4.813052573797953 7.208028487294909 6.906498484919498
Ni 8.536717681810346 6.9363425098896405 4.044368482575871
Ni 6.7509149572443095 8.038599479130816 7.857486138457648
Ni 8.886252020017453 8.516342737995952 8.631962803169845
Ni 3.079044199344783 5.981207386019852 5.755605427895403
Ni 6.889531939280849 11.138916855399764 5.274522326960742
Ni 4.614699907205427 6.992336051796471 2.284328393107311
Ni 5.359434534335111 5.259450117217833 5.5457615378898915
Ni 6.404545420903863 5.8502975366439784 3.4449343660747083
Ni 6.332547218473741 3.3927059043114154 6.660483098679337
Ni 7.961402244177025 9.222041857354741 4.671151307355575
Ni 8.069347236817892 4.564677075257686 9.376056155333398
Ni 5.968702519312072 3.5752655595406173 4.141852388435292
Ni 9.72707676798602 5.724291088853543 5.773274410261616
Ni 9.02239900436972 7.90768917539313 6.304206494396994
Ni 6.441660481269039 8.172436894713755 3.3251525844316387
Ni 4.3213979192428695 4.779555568257779 7.521091590021899
Ni 7.695985215837428 4.8531562912597055 5.150526929965375
Ni 7.583052340529748 2.4464629471068853 8.42512149480773
Ni 2.5940805263189395 6.810827009142619 3.542969860328404
Ni 5.192003419591428 6.301838447036319 9.139307799787067
Ni 7.853553237957981 9.89053267814955 6.957547037181421
Ni 6.379287373763846 5.231968859369588 10.880790079453103
Ni 4.588725849670465 7.4239500446224325 4.553504279517268
