34
Energy = -144.72689697 eV
Ni 9.92364404959787 6.07661449584467 12.389618983231797
Ni 6.655789946996094 7.456068643287523 10.287930762837378
Ni 5.130782937143014 8.734536909909695 4.212313519970551
Ni 10.53125010659723 8.067424071580998 11.360042984266327
Ni 7.160382704448169 9.986880907820922 4.398824719439124
Ni 4.71353250011598 9.537649454781446 7.28629815384623
Ni 3.2743634517607743 9.549692772772866 5.4159768590601
Ni 6.250796430144304 8.19023244858619 6.14964311201343
Ni 6.460105279837746 5.373310384177599 9.098559892857946
Ni 9.548565884694304 6.48877868547767 4.859207428578941
Ni 7.585132906858558 6.164954592377814 5.83159046829989
Ni 9.118541361285864 7.548139787850322 9.657752603987857
Ni 7.06644188756598 10.297811624187789 6.739397939472238
Ni 5.1932182552196675 10.840489549165754 5.37686827425201
Ni 4.044277437121526 7.4639534352490795 6.178459056104141
Ni 9.690065737039644 7.122470033314016 7.278298047202846
Ni 7.4152565616590564 7.194354281272875 8.005769060958958
Ni 5.08743559428898 7.393212499914484 8.430215793068255
Ni 9.917922562230315 4.867557528660974 6.704786034270877
Ni 7.547367025473045 4.257576034043509 7.152033766021826
Ni 8.106672661629496 9.473254278127056 10.458425601602917
Ni 8.883753813850573 5.32325660478151 8.710048923727852
Ni 8.162929570789343 5.643605178876876 10.881206064599878
Ni 8.744730236553135 9.244977957256928 8.078079540046435
Ni 10.599814103201629 5.907769410612445 10.174993177918365
Ni 5.458149865402321 6.404045863748524 4.577462032258266
Ni 6.272993746151197 4.239592142375815 5.102601239464286
Ni 5.533189211703769 5.670756992621306 6.886142870647582
Ni 8.558549430890807 8.596045601459739 5.81567036784504
Ni 8.633220688256278 4.1473304755391425 4.973617499363976
Ni 7.363248265874785 7.709270916368265 3.951208858975646
Ni 6.476750473295234 9.305842360879591 8.794554480117835
Ni 8.312183531669584 7.707458224151116 11.975256033281322
Ni 7.467419810946676 5.4749958877814 3.470243446140611
