32
Energy = -135.6817417 eV
Ni 10.943571314861018 6.415710898159751 6.389219335945301
Ni 10.156368772358109 8.258059957498753 5.211590584097863
Ni 9.142352278854883 5.1091128906592145 7.191588828710774
Ni 8.269663067747329 9.510985778583267 5.857062700730956
Ni 7.6438248368455355 3.520736189571847 7.928394496856785
Ni 8.968241304804824 7.483977261685128 7.1007083626313126
Ni 9.005698972062664 6.166040348059306 5.0728355668608165
Ni 5.80310939732032 1.9851174269442946 8.23010976258022
Ni 8.237474503515333 8.060872541579897 3.8309821300417037
Ni 7.0003555435932805 6.057576512011101 7.6593428212027534
Ni 7.2902475733458685 4.635009062835845 5.72100346320009
Ni 6.4592177499315016 2.471817694417732 6.040486485893048
Ni 7.09809054524159 8.749143917777275 7.799053540106323
Ni 6.971374416384466 7.523478039944262 5.72332907881253
Ni 5.360823976227956 9.393363810234645 9.153480496728543
Ni 6.265381139244062 4.797674473349488 9.4774263667592
Ni 7.166967045447891 10.145565370500677 3.9123567090098113
Ni 6.091141492909336 7.237796613118605 9.449531392172531
Ni 6.891788888059422 6.0146269880725916 3.903333557097811
Ni 5.124587461936258 6.047689698341717 5.926319136192104
Ni 5.839401562822187 8.22639895597957 3.7272618843472207
Ni 4.8937946506558445 4.028426481027841 4.86892479148991
Ni 4.003887940471531 7.939839127493881 5.181593420086847
Ni 5.46669328580584 4.073340998487322 7.365296177062963
Ni 5.821273082799312 9.554765869150076 5.78545471860391
Ni 4.4843558696582715 5.914307550057889 8.365343171315343
Ni 4.904270531818448 8.007427201892769 7.373978236039559
Ni 4.616229328290929 6.198340784866604 3.5712171898038725
Ni 2.8684252441676406 5.734071291889771 4.928107210965329
Ni 4.140326318686662 2.3747305934684753 6.485894198045867
Ni 3.241266190783379 4.509544514521637 6.79811715239924
Ni 2.838189868845483 6.8628453133166705 6.979051189707265
