39
Energy = -168.8529304 eV
Ni 7.0527340397347515 9.440347643441967 7.64603367964727
Ni 3.661325351959557 8.585022159006384 9.191215061617179
Ni 4.758311754102076 9.058373248979812 7.158347925512603
Ni 8.657530830958821 8.836056018911174 6.042352812260418
Ni 5.806513873491801 7.780099146272102 8.776507452913107
Ni 6.373406768997389 8.891303426119187 5.4351977290791105
Ni 10.253374176552125 8.01441940280677 4.655900156529225
Ni 4.1163811230492895 8.212074311588296 5.023575865262372
Ni 2.9300917435999354 7.510673983902254 7.205395284150085
Ni 7.36251883478874 7.15469615949408 7.052348420516348
Ni 8.05246259216244 8.534823607608695 3.743502205262209
Ni 3.9519019920053564 6.256738951067368 8.997930843518091
Ni 4.99644801604125 6.650663032360876 6.66163330881736
Ni 5.74621008793633 8.417746168133052 3.1739341472059888
Ni 9.748118631288012 6.782027679673449 6.7751848872177645
Ni 6.114703782239416 5.466270088721861 8.433742385789488
Ni 4.155178029144199 6.631733083415772 3.2540706867732063
Ni 6.143321287604922 6.642455234455393 4.588893777634384
Ni 2.7454413612299216 6.2962327006125305 5.218620612974266
Ni 8.425456124843475 5.22937146083486 8.026007197815565
Ni 8.542349564269744 6.506861777478957 4.814450941051634
Ni 2.6600128320735545 4.821553631723774 3.2840453615504748
Ni 6.79085400635779 4.974536442317686 6.1655952913163725
Ni 3.39065678960482 4.883879493619975 7.135126916522652
Ni 4.501999869820043 4.7900553879682475 4.934347904960818
Ni 6.919089277904921 3.3012626255443798 8.290284172891235
Ni 7.410564968687385 6.500204413479014 2.6843939773517285
Ni 4.548546209711516 3.8695037321532366 8.92759371054391
Ni 9.236207543911782 4.5724504925891765 5.95155556278388
Ni 2.0741051317765478 4.035514374429229 5.390972805142782
Ni 5.70068065534942 4.841374550161171 2.859725403410719
Ni 7.733117138824667 4.439538606022389 4.0358394004978715
Ni 5.141228015082069 3.2694392299195107 6.744258785341581
Ni 3.685304445683994 2.419711189725672 5.104139254097496
Ni 9.202710084639792 3.050620675071042 7.7861446060113755
Ni 4.117795259169602 3.0845710079414648 2.9175890402138975
Ni 1.903732564061906 2.588917770958237 3.5511103501960077
Ni 7.629860810895086 2.816402457831317 6.039770866321121
Ni 5.9275990797794185 3.0093251805378713 4.444274000538222
