33
Energy = -140.77908951 eV
Ni 8.3972170497616 10.099175306213757 9.959800073192444
Ni 9.2624169791501 10.057947120633344 7.619479503726795
Ni 8.736198699152547 5.439164814232657 6.863366188332422
Ni 7.767399856249648 3.361380569449636 6.518759069397493
Ni 6.38371443738654 6.392105254086136 9.118822756275485
Ni 3.9868885040580917 8.168283220430334 6.102143583133978
Ni 6.205981587093652 9.098263718789251 10.173981914544022
Ni 3.011035216889359 8.346045810626817 8.185858542763059
Ni 6.03569767106251 7.0521633945404085 11.416810732512463
Ni 9.332758746975694 4.2448295732637105 4.965855180159526
Ni 4.452477958145132 6.474845499478502 7.674048555339316
Ni 8.876161226115283 6.34687258232573 9.008827085478368
Ni 6.867535467860507 10.537843109350172 8.149656526826242
Ni 6.813788103430555 7.106439503294228 6.662304360923108
Ni 5.3819643201505345 10.109883211120213 6.2292259077300205
Ni 10.15142547378385 6.522338643828678 5.185124074216255
Ni 5.348407005013164 8.663670037033276 7.999908144159152
Ni 5.049066354098793 6.146885818377954 5.383817908240284
Ni 6.126627067221808 4.91897322925456 7.14321620539324
Ni 7.686635159426605 8.405120327364928 8.462964816863984
Ni 7.717629194072291 4.323885213072337 8.730838655842689
Ni 4.396749341926816 7.534278660934266 9.850386920170262
Ni 5.923411530085327 8.316118015349195 4.7909932448687345
Ni 9.452994230007382 7.684142649067209 7.091770064422994
Ni 9.97731863249978 7.8779977142157 3.2638768458152536
Ni 7.5951351242857745 9.354793931055594 6.155735110751089
Ni 8.924782073645538 5.792100563725731 3.3122171777122866
Ni 7.2438932148539985 5.30133756598862 5.010300269037799
Ni 8.135949628642605 7.820430450616578 10.755595876923888
Ni 9.946088636258542 8.453954197871424 9.274238044471113
Ni 7.657999039584321 5.448050015984405 10.83259658196398
Ni 8.11867696391083 7.559447011031016 4.645311397191638
Ni 9.82378161772782 9.057816774324928 5.310040237014686
