35
Energy = -150.31302713 eV
Ni 10.415512900421156 9.838273402065095 4.165562492055341
Ni 10.429707979075342 6.681750438303641 7.483749427317783
Ni 4.542624426733715 8.526312506614666 4.67657517169337
Ni 8.407763745982477 9.770829535481752 5.650245344988569
Ni 7.148292522481251 8.324752240484422 9.587056266483199
Ni 7.593097333073439 5.141855300301888 6.060423202940616
Ni 6.847205503714111 8.523552613503506 4.290944525043377
Ni 7.433629787152154 10.310456362577941 7.866536961371267
Ni 6.535337159118329 10.70353765090276 9.959343131035435
Ni 8.819953808071537 9.756844975187441 10.042773036735058
Ni 6.979261223046513 9.368193985069807 11.80044733140099
Ni 6.599083703399354 8.068100753309873 7.25638574673569
Ni 5.8866813200412365 6.694186665088568 5.376493232762882
Ni 4.375587432433347 7.7469997186217725 6.88989733456971
Ni 9.069880485269719 8.047044734823382 3.7449240735178635
Ni 9.606369671444149 4.536441075943805 6.998760261032476
Ni 9.627196462829488 7.4563149734173795 9.671416080762045
Ni 9.82057851675771 5.116016492992565 9.249956534520846
Ni 8.326013685184723 7.3927951130117675 5.859676987915284
Ni 5.734645898172309 5.170640999768874 9.863098145078602
Ni 10.485382334618826 8.378507471030051 5.920603600143094
Ni 5.055243306445183 7.302075834178157 9.151435711141028
Ni 9.080614988509852 8.716642777233588 7.79517184323948
Ni 7.6997478275611115 6.180885881988103 3.9122526700546807
Ni 5.804681371695823 5.740894995982674 7.564450427496207
Ni 9.96114578305014 5.990629503442752 5.10652271126633
Ni 5.957303038892276 9.879732910580671 6.027989741913941
Ni 5.1590252324763295 9.58927360723604 8.330446310524705
Ni 11.32697638243611 7.6320846155070114 3.9371465564986936
Ni 7.882264975417105 5.874077116163727 10.331242577710986
Ni 4.950943071460402 9.113101430900867 10.661484591609447
Ni 8.160814132319754 6.45578546291843 8.056398371075506
Ni 7.555440832618309 4.313258314709355 8.423904470913678
Ni 6.128611003069959 7.104763793471984 11.330638384351088
Ni 8.51411368535167 7.718443474560791 11.657784199624905
