32
Energy = -135.73229458 eV
Ni 9.82299345033984 6.9661423143951975 11.39720604658812
Ni 6.041964190376058 6.678044568476624 9.997729792999424
Ni 8.133027996568039 8.52626329681181 7.078310588411005
Ni 7.761242430843296 8.284428662739094 10.975191561792066
Ni 8.364512033470243 6.244012558151046 5.656792545885506
Ni 8.589885364882694 7.126751577763097 9.200072266958248
Ni 7.280257488561997 4.7229135178718025 9.28499631721765
Ni 9.567470013282781 5.0815382406755205 9.979943006494818
Ni 4.109154720832933 6.335325519038855 4.071989527119582
Ni 4.696757371979225 7.481742250596156 7.9404892321488525
Ni 5.070153572394841 10.021651730325605 4.668523704578666
Ni 6.531012618863738 8.640875978101542 8.915468427923718
Ni 7.8937951688859025 7.441651897453729 3.6999216064360656
Ni 9.473403505127882 8.36998250757351 5.196352453112575
Ni 10.152962642633689 7.058211945838029 6.977049718597834
Ni 6.357644296375548 5.657712576364787 4.400996058489965
Ni 5.625242312235055 8.022585925086364 3.585211658059286
Ni 8.952646763173611 5.206600640336123 7.704858193171098
Ni 5.792984844101356 9.474978935737441 6.87538126198358
Ni 10.297879364843443 9.106731012687028 7.983183895801504
Ni 10.424735397844572 10.988330927754909 9.329681250248875
Ni 6.339370820527795 7.546104085377538 5.71129979052198
Ni 7.3298131054506195 9.444971785231807 4.899642185777267
Ni 8.387484331490493 9.931303478520409 9.056764948331894
Ni 5.1095994830137705 5.110763688663103 8.423084087268709
Ni 4.128136394917049 8.104248360147793 5.651837161932629
Ni 4.784976053342169 5.789698565439088 6.223035659199937
Ni 7.777145693254282 5.869411884362758 11.315759928927463
Ni 10.069388809969093 8.979965866959507 10.353287261854769
Ni 6.871183169455723 4.546741326879525 6.629147647332119
Ni 10.875012513356426 7.0161445435564564 9.209313113246628
Ni 6.834111687679706 6.5144417966683035 7.737918309620193
