30
Energy = -127.41432502 eV
Ni 6.820396458143622 7.994443823023724 10.394977742843857
Ni 7.572009415217774 5.847809135656239 9.655689264262918
Ni 7.948543230565898 7.921335165471177 8.398936206183999
Ni 8.994287768792613 4.151501150002004 5.974131946565655
Ni 8.11412804680116 3.7782004272648146 8.348154995196593
Ni 8.562912637829747 5.8491967030979 7.533908627970331
Ni 9.398180520765605 7.804056386270016 6.512586013941369
Ni 7.474264767255568 9.083989860241005 6.347439456479424
Ni 5.85273364865694 8.962831447125243 8.36104358145094
Ni 5.909903716399882 4.389997413544484 8.766994712072748
Ni 7.545114127297827 4.394743581194223 4.085203505778376
Ni 5.5273691349906375 6.7085844618593145 8.94738118131305
Ni 8.05953387765071 6.322168057611579 5.295429875309295
Ni 8.610187422144767 8.310384418689717 4.296058232900252
Ni 6.791294239950333 4.54744841536842 6.558544594374647
Ni 3.903697481422075 7.678382257532399 7.470403808645632
Ni 7.239152669041132 6.49518060088938 3.0348245534559384
Ni 5.100254199980597 9.289902630698018 6.17564375942218
Ni 4.53518260461379 5.413009603603493 7.14608546360272
Ni 6.324246166299939 8.097953684992289 4.516428642627492
Ni 6.230310538741966 7.128362920673119 6.742288428821714
Ni 5.656559098507851 5.739192054054259 4.838828046257786
Ni 5.003198253032297 3.0808774614363204 7.013640553086656
Ni 5.875137940458226 3.054456201426513 4.819487891411912
Ni 3.924852489847222 4.199846812826621 5.182103114246103
Ni 4.965410349500897 7.02359341478172 2.882452780226802
Ni 4.091540856875074 7.454656698151298 5.0958023870172
Ni 2.572138250061646 6.013143725550292 6.0647076252005885
Ni 5.318455882228893 4.601646576202472 2.9520632326940706
Ni 3.1999440341198815 5.784044737957162 3.7096996038348538
