37
Energy = -160.52395044 eV
Ni 5.334123656291006 4.005592949446345 9.404698738052607
Ni 5.158315303343406 2.2774335701501807 7.742911468501841
Ni 6.6431348393706715 4.191538446231138 7.506822002529851
Ni 3.287965203759497 3.1920789950862667 8.699617561996574
Ni 7.3742113198807235 1.9834307208430573 7.010585484469139
Ni 6.092406313660028 6.162693273100666 8.83838109195644
Ni 5.638723388861369 2.541180707696142 5.487803012542793
Ni 3.72650851980481 5.620852417676001 8.662318541851569
Ni 3.228263112670868 2.6673354675766685 6.202999044916322
Ni 4.399968814668753 4.517915372213304 6.765555046810846
Ni 7.759746574134046 2.047492151762102 4.675407003644788
Ni 8.10684615695376 5.987560634645283 7.157627272360738
Ni 6.407342601375265 4.739374029427404 5.021762176562265
Ni 8.390080888300997 3.893274412909103 5.950843075355801
Ni 5.907839676719762 6.525523118704893 6.582879853279417
Ni 1.963389310906391 4.480045567384368 7.3974501053801776
Ni 4.4711957272650125 7.789299970484319 7.775171722647062
Ni 6.45298326712243 3.4021723641555077 3.172766096205595
Ni 8.499785783436687 5.94986299156632 4.74900626080579
Ni 8.724324895593275 3.902770670185173 3.589396016754328
Ni 2.2534391799955826 4.65644827272471 5.122677392922022
Ni 4.184974466706836 3.695081245669561 4.134549028772766
Ni 7.963396243321411 7.917708628860954 5.839444142819529
Ni 4.24727533912359 5.934978000117236 4.847037093926047
Ni 2.8160991234071795 6.545112061739776 6.653566238627725
Ni 3.972657717560685 8.196707618201401 5.366418793666052
Ni 7.512207315745671 5.679324145077042 2.653143411768515
Ni 6.268776902823367 7.090478143276626 4.317599103909509
Ni 8.1017609100832 8.002313285159575 3.374353476092002
Ni 2.8579101823247073 5.348704786908252 2.920485516553231
Ni 5.9589652795993615 8.978464100097925 6.19989331461783
Ni 2.091141658296067 7.005265774378464 4.425450852948521
Ni 5.209150705406952 5.4084501323341705 2.7293544754524945
Ni 7.60828656881913 9.898419869239557 4.704883049154994
Ni 4.02685209887059 7.508687659022054 3.059173082631204
Ni 5.598925830665072 9.184368376959196 3.77022210461658
Ni 6.170709886308425 7.555030272611946 2.0049185110960046
