31
Energy = -131.21617678 eV
Ni 3.3240204504657576 4.8099279730629325 8.020307942365385
Ni 6.389793551516401 7.263707096954146 9.336686809439808
Ni 4.579749668156668 3.3500782036880516 3.979358418883559
Ni 4.324815993506842 7.557288778391178 5.656431292061728
Ni 8.39941695306741 7.402747942760771 5.990342092460861
Ni 6.994336631815146 3.6226597018525144 7.203906612349263
Ni 5.732199117581114 4.801815997216392 8.991794476629687
Ni 8.041162651767925 9.653656526020649 6.55840941399815
Ni 6.535662931064395 8.703195551729348 4.882859661017463
Ni 5.044680780765494 4.558907589446956 6.333315287708269
Ni 8.498834648573334 5.056019551650246 5.7765903244307815
Ni 7.248190714539767 5.932418331768607 7.5894661812032576
Ni 4.870139167531611 6.505414789485179 7.7196753257836175
Ni 8.419113995954527 4.8426195963103025 3.4559735383477
Ni 6.104194336061698 5.209111873106601 3.05483871706815
Ni 6.9954487596267 9.635429654055875 8.748308089212324
Ni 6.786627035394414 3.77422463679308 4.788175662402596
Ni 9.736496454532531 6.615988991251387 4.309525169960536
Ni 4.159414317158864 5.6003371239165896 4.2578078642733175
Ni 8.849719680284878 8.977193105060996 4.3844777589964
Ni 7.641152129958514 7.0691749851374155 3.4828458255364527
Ni 4.714591367134009 2.8943741344652194 7.980909397045836
Ni 2.5938965542602697 5.586467853834161 5.935695594600404
Ni 6.243712330666421 8.200822129217212 7.122089808218272
Ni 2.3670468858996596 4.145059127361452 4.11370148436712
Ni 2.7572691165994905 7.240762142141166 7.485533474185823
Ni 6.367452855536413 6.251002707129022 5.298662848660296
Ni 3.23230633608866 3.2120415440718344 6.086337339027254
Ni 8.40046798615272 7.9345212562557785 8.248815464390708
Ni 5.449290005127916 2.2205281509491672 5.866770411848923
Ni 5.266161090497657 7.439867452202229 3.4077522108124945
