32
Energy = -136.45746627 eV
Ni 7.544479283005879 8.207232350809974 5.4714875902420825
Ni 8.015726915978556 6.049235205465695 6.538937739747542
Ni 4.053067572547852 7.6217974898462115 2.6768323569855714
Ni 7.45782701802401 6.016501258563562 8.936106395997076
Ni 7.684393199534063 8.225358252851885 3.092412224980095
Ni 7.896290513959751 8.020071574348151 7.808224847668789
Ni 7.999922912178485 6.150446709116679 4.161076263166992
Ni 5.9279953845945075 8.701896941308423 1.6338538376891374
Ni 5.829078038983814 6.594413605459347 4.964950465866498
Ni 8.279657789519943 2.0499192981002734 6.5374035654002265
Ni 5.859006697205818 6.605846825456496 7.335930748628832
Ni 6.113631233242381 6.539335985665193 2.6184425697944955
Ni 5.595228603113424 8.76572211627336 3.9539218591834033
Ni 6.315808314902281 4.457388907939011 3.7829646969659745
Ni 3.6654073649174346 7.576185820819709 5.047467773923444
Ni 8.215037554683306 4.027621462923479 5.261031552335693
Ni 6.445079613945111 2.3817759099624602 5.091015466053044
Ni 7.874591929122602 4.008699092128998 7.762953069531294
Ni 5.3110719379031925 8.760824077944404 6.2508296903457525
Ni 4.500706424516094 1.4171331999307626 6.058494779742624
Ni 6.082498386645941 4.461264309486552 6.189502959843405
Ni 7.089294450608467 10.005763386454746 7.007591306023424
Ni 4.1462078123331345 5.5254828944368635 3.7516250237398374
Ni 5.786676011498784 8.658256872345573 8.558649826299416
Ni 6.138904772452699 2.4067556311176026 7.429599825520666
Ni 4.344437073135491 3.463722254097154 4.861346121607207
Ni 3.86446990884814 5.502548173938336 6.165738368987849
Ni 3.972240978168365 3.358737904636037 7.230811347315377
Ni 3.742948880167948 7.500194700606879 7.5253034845261215
Ni 5.051956863450831 6.621192087000784 9.50394172961608
Ni 3.421344135444858 5.299336633404748 8.458494066542855
Ni 5.624349166893322 4.481212064553039 8.577156341116298
