34
Energy = -145.16364303 eV
Ni 8.935476035940209 4.4736938313790064 6.123911638485586
Ni 7.2154053588390195 6.681158838373842 11.147995793662353
Ni 8.72418164545198 6.993603857964558 6.235547422341042
Ni 8.332073119787477 10.504974972845877 5.045299903899007
Ni 9.706613651057689 5.886725318861492 8.029716666714087
Ni 5.118242506244672 9.101054784385672 5.125754557948677
Ni 4.758080948953588 6.300388886353251 7.875246006917033
Ni 5.48078100376771 3.893681003401694 7.665537887849173
Ni 7.976096122524504 9.906010142978834 2.844961328498815
Ni 7.452757325733171 8.355109884890572 4.575079713677336
Ni 7.3267382490138 5.8327883893611014 4.825756741960011
Ni 5.442947499674981 7.005435375007042 4.0677958989433485
Ni 7.65053005194897 2.643724960996358 7.211136527304241
Ni 4.8187945182531 8.74452675859027 7.5371403512626935
Ni 8.388946577146942 5.250567085492159 9.813565405592247
Ni 8.14038852092095 9.18317184786227 6.896898741796955
Ni 7.470508262548251 8.90076428882575 10.692800506698559
Ni 5.879253448500593 8.949363541297169 2.8689697502673237
Ni 6.259440804325518 10.88224638763337 4.14223128610991
Ni 7.643105705486633 7.434569028851103 8.54652079916402
Ni 9.355686063008827 7.4137839673086985 10.044050796936526
Ni 5.610569916976207 7.732793832545259 9.619178924716378
Ni 9.351364576546796 3.626591163583035 8.41297057877516
Ni 6.293559970585569 10.51309958591366 6.517476549900902
Ni 3.8923441867108717 7.269612676414595 5.883898403950694
Ni 7.301075614654642 5.245330041213612 7.490400580940667
Ni 10.079644000759469 8.153939101317476 7.799246457520124
Ni 7.159507744811625 3.333859485352232 9.32678824344729
Ni 6.022618455576888 5.3722657724217315 9.578291720420426
Ni 6.618738705953727 9.697215005697778 8.682966996648561
Ni 6.329873831248301 7.3634639629250325 6.448462919696053
Ni 8.942082444544974 9.660010305092097 9.107997528437291
Ni 5.171100517971546 5.317781789179279 5.760938057377967
Ni 6.719304545175055 3.672599518147394 5.455042325250945
