39
Energy = -171.19232283 eV
Ni 8.087527033648794 5.301044664083136 7.081893004646321
Ni 5.668028902649864 5.766201404316282 7.080310810620744
Ni 5.284858763995212 3.673117137403748 6.163785737236384
Ni 5.655020698563565 5.755162418609273 9.531732648104724
Ni 6.548171003718276 3.845372019167983 8.261005711193151
Ni 4.188792659931377 4.372544319295391 8.217789398681905
Ni 3.7987553769130833 6.768689278548299 8.263110186169662
Ni 4.479676493849239 10.135066295097129 6.165634644748761
Ni 3.549530059919075 5.526025463736736 6.171558818424012
Ni 6.28704505975007 9.119346033224867 4.935912199788006
Ni 3.586626799966459 9.18657378208707 8.21703251669638
Ni 5.744554720856824 10.277653501481925 8.262046026882535
Ni 5.348490338488345 8.209850715934243 9.533011852170437
Ni 3.258432361722608 7.913979037686055 6.171203781251651
Ni 7.193287826357336 7.196880680446723 3.6938377437800747
Ni 5.370645737088241 8.199470490899166 7.078396513812928
Ni 6.7881313968825205 5.113063274097045 4.935408540405025
Ni 5.085629136277263 6.93104376023409 4.936252361752203
Ni 7.194038902299227 7.1953646608925075 5.965828672457705
Ni 7.6534423695826215 3.221814457464037 6.163355497874512
Ni 10.188430104443901 5.545069709232605 8.263764676080767
Ni 9.25900378390323 7.453135572193954 7.075613475338056
Ni 7.592643115774847 9.250660217328129 7.083477105452465
Ni 11.11859972832435 6.409690892024297 6.169785909517412
Ni 9.965435561965618 4.2976375555770785 6.170788354820232
Ni 9.688527819261399 9.524478540213213 8.262614021715592
Ni 9.053556212070541 6.169230087369881 4.935732707269299
Ni 8.741422339151345 8.649709621689803 4.934158414503896
Ni 9.16541417448258 10.683566574547855 6.1687811234272525
Ni 10.804238715388312 8.918853886555802 6.165662290272698
Ni 11.283260475192032 7.708305256034217 8.217011443186781
Ni 9.286258710358 7.454913393783918 9.534494533535051
Ni 7.195190235182522 7.192919682691456 8.361968547731808
Ni 7.970536208945374 11.239911066706831 8.2183590064454
Ni 7.194495542134283 7.192523122015331 10.727273882894425
Ni 8.097084710203696 5.285575758059005 9.53232743254343
Ni 8.939723817337947 3.4595795564185026 8.21495685968034
Ni 6.655808633607733 11.163510132693876 6.168033730770124
Ni 7.596618407186256 9.259400067562755 9.53302360546412
