30
Energy = -127.67110314 eV
Ni 8.57117390830575 5.119048330903412 7.011064186602855
Ni 9.0496201972372 4.265004498823992 4.753313212685177
Ni 7.8704406270691925 7.480787028128245 7.121245358793147
Ni 8.162300830021069 6.3763516078448195 4.99806712542127
Ni 7.772620799462005 8.63455633628777 4.982198900063248
Ni 8.367649104719874 2.751715146881153 6.37617107851972
Ni 6.45758138231619 5.749984047536669 7.950104234415599
Ni 6.428011977173015 9.439759116395997 6.6970737880597175
Ni 7.024652488283787 3.4974199153032317 8.063262203633153
Ni 7.473523835997923 2.617052451189645 4.238117509504543
Ni 7.094484268599324 4.894511218623747 3.440489527108756
Ni 6.43055651221303 7.183009331368222 3.5490033740611033
Ni 6.674355093367752 4.557647946598798 5.750844137742601
Ni 5.72713302694481 7.940748259102895 8.270015547590658
Ni 5.944037775925838 7.040279693582127 5.859364714747739
Ni 4.178085427153645 8.483295223350936 6.408953923022389
Ni 5.5676954554971 9.241359209577709 4.546838453277665
Ni 5.316988819698507 3.398492972066838 4.065454976229318
Ni 4.837715146721012 5.502335597350761 3.0118871646247762
Ni 4.8573955441528005 4.075275418797865 7.419049773823167
Ni 5.94297910038254 2.368861754729311 6.1604049205774825
Ni 4.151797094258755 7.465796021559222 4.220410861431322
Ni 4.190777140835056 6.3662063828215585 7.528289934272313
Ni 4.221437410949139 5.240603945223062 5.2823376176075625
Ni 3.147036507649467 3.8041244901141336 3.4395131496909177
Ni 3.5919441876276 3.0191680859842487 5.698378949365802
Ni 2.6138781423901247 4.687838724984653 7.22261475042947
Ni 2.500095735822781 6.0305490179833825 3.5156908829480487
Ni 2.5235076858094816 6.748021776417281 5.853243834752734
Ni 1.7286596536227405 4.535983760296826 5.120266478581521
