32
Energy = -136.59774449 eV
Ni 8.028185496017317 9.59229533361228 9.500730886868716
Ni 7.440167108806964 7.370153334367025 9.278822084911827
Ni 5.640362670976415 8.895391685630912 9.730801438608557
Ni 9.68853280226946 7.876540098398393 9.168080460476498
Ni 5.584977693052519 6.678651288777494 10.524437716103831
Ni 8.868550931062657 5.794019129324295 8.329830280738781
Ni 6.65469997988574 9.31802170505356 7.618108093136527
Ni 7.086166574342481 5.013239831013682 9.741948763694527
Ni 5.443651106544149 7.1534803771574635 7.91132995631119
Ni 10.257047660552832 7.059075636002492 7.021275515431735
Ni 8.348117321633884 3.6221368137959074 8.025922599139479
Ni 4.277319682379075 9.307922045517648 7.881596437090247
Ni 10.416052347805904 4.632699539205205 7.016703450186479
Ni 3.6471057549329484 7.441019738573057 9.323667873157415
Ni 8.970364699294327 9.100769431701947 7.3056165540176785
Ni 4.733838306563354 5.12424487073871 9.039705032477917
Ni 2.5962613741615668 5.645988817675314 8.274354610774324
Ni 3.2536238007888234 7.459879843551158 6.871024591944894
Ni 5.276503837457063 8.403187789617997 5.913351113006097
Ni 7.615894239079735 7.279735167838427 6.640058959060702
Ni 7.4285183050077075 9.292570370371687 5.358372448861552
Ni 10.343011317265711 5.880363610021626 5.008229891906404
Ni 9.498137824106651 8.210242133892164 5.118718223411771
Ni 8.367366491317709 5.016360567651427 6.012271344052388
Ni 6.586013356897334 5.114545126101534 7.515956467880499
Ni 4.319436086662616 5.402692512617239 6.677656374741402
Ni 4.102075582953222 6.797827456255517 4.711395687010455
Ni 10.140347410493275 7.21393529765532 3.104630557279675
Ni 6.180137104774204 5.919457553517268 5.318556877639059
Ni 6.183278567722402 7.791825303827342 3.8819954214698114
Ni 8.253821792567603 8.648449874720095 3.1595726780030917
Ni 8.185038812848235 6.521023541650124 4.191706350649953
