39
Energy = -170.69781045 eV
Ni 5.631007278338569 5.541414422959485 6.7945759067820335
Ni 8.272369884130606 8.361962739509687 6.7945759067820335
Ni 8.661909318719308 10.417843131709283 5.60339666723688
Ni 9.593397351238393 9.82651358050907 7.900614039526257
Ni 7.295123011526315 10.444122088141349 7.4731349905746365
Ni 10.326531371608027 8.781687654736942 5.707360297256607
Ni 6.479097872659259 9.361918505580679 5.4632068755349295
Ni 8.604570773599164 7.899800403466232 9.150848806229831
Ni 10.284854561599445 7.323989670091061 7.552446305453271
Ni 8.366077270502561 8.421677306633397 4.271096343452764
Ni 6.020795970247939 7.844360064054384 7.644402349601328
Ni 7.882581192221235 6.059017098414789 7.644402349601328
Ni 6.951688581234587 6.951688581234587 5.522377593050052
Ni 9.367733027358168 6.583484390364739 5.448808208904074
Ni 7.424279289809912 4.541458656888495 5.4632068755349295
Ni 4.5356441351110055 7.319892772104431 5.448808208904074
Ni 5.29880638887001 6.003576759002941 9.150848806229831
Ni 3.618522600869726 6.579387492378111 7.552446305453271
Ni 5.5372998919666125 5.481699855835775 4.271096343452764
Ni 6.608254150942857 3.4592550743278228 7.4731349905746365
Ni 5.241467843749865 3.485534030759889 5.60339666723688
Ni 3.576845790861147 5.121689507732232 5.707360297256607
Ni 4.3099798112307806 4.076863581960103 7.900614039526257
Ni 7.8669055451376035 6.074911163722772 3.5965078085120497
Ni 6.03647161733157 7.8284659987464025 3.5965078085120497
Ni 4.323021870752509 9.504974601453943 4.7771881184587
Ni 3.9769631603303064 8.949348205723933 7.089901984000744
Ni 5.165809324307038 10.90750115 6.587164766550346
Ni 5.449391679182207 9.888472670155334 8.780899920199579
Ni 4.078631192364067 8.039360825995702 9.306636458427509
Ni 7.724741657690614 9.955269715955119 9.65769688142074
Ni 6.374737836953722 8.015192071644707 9.990851807830733
Ni 9.580355291716664 4.398402561015229 4.7771881184587
Ni 9.926414002138866 4.95402895674524 7.089901984000744
Ni 8.737567838162132 2.9958760124691732 6.587164766550346
Ni 8.453985483286967 4.014904492313838 8.780899920199579
Ni 9.824745970105107 5.864016336473471 9.306636458427509
Ni 6.17863550477856 3.948107446514056 9.65769688142074
Ni 7.528639325515452 5.888185090824465 9.990851807830733
