37
Energy = -159.69391587 eV
Ni 8.83456679181414 5.406836688496563 6.4284467900509075
Ni 8.63708904094347 7.742938633575698 7.519062724049462
Ni 8.334490226531667 3.945084787442522 8.446034307974932
Ni 9.631005824927575 7.473910259742866 5.38679765748071
Ni 9.118458124786605 6.051575679632366 8.941012457847675
Ni 6.9209650866350945 5.884872710719305 7.86603904935415
Ni 8.151654321697825 8.29171761331113 3.667631844601317
Ni 8.461697490461667 5.927016387114774 4.04357246331992
Ni 8.167583179756809 9.32833265129714 5.809184836427142
Ni 7.0162189647839615 3.7630019947121665 6.582026262958817
Ni 5.0455055263116 6.643414276483165 6.650542826308273
Ni 7.405643551626872 5.165541933235045 10.25236566550171
Ni 8.23016697996862 3.733632548789615 4.639865117328806
Ni 7.256457653135511 7.074241197969721 5.687306585593192
Ni 5.881116913349618 4.03204183933337 8.72648063751813
Ni 7.970385164536215 6.648792218920901 1.8937344801050238
Ni 7.130574317044727 7.509445856851186 9.441235583341319
Ni 6.8439340532961035 4.679676272016214 2.814843810882426
Ni 5.903617780600555 5.258479873709256 4.917606020164726
Ni 5.2853258445739915 5.999726054742955 10.098538526469142
Ni 6.230231070049862 7.045047241557379 3.3435458320205242
Ni 5.966853847437238 8.830155037562426 4.9037970152021515
Ni 4.549942288179205 5.551914142952889 2.791713322778433
Ni 4.163725880014233 7.245814773416999 4.528518539628459
Ni 4.715571930787819 4.072561016955472 6.568154708310617
Ni 4.96538686463057 3.250835911641141 2.482401830669527
Ni 5.9587579299467635 2.9938610179764154 4.600109431637057
Ni 4.183765902441376 8.76147120930561 6.484232481391771
Ni 4.78151327358119 7.803827282217476 8.729758640908129
Ni 2.724384543898713 7.308282629477037 7.6482061495976374
Ni 3.907800783582937 5.378080485891273 8.312314111018251
Ni 3.0356625813838307 6.809956809775686 9.934787632992487
Ni 2.3986117943833496 5.842261385143374 3.7180091143659397
Ni 3.7509909880921546 4.00058413527309 4.402188436973932
Ni 2.7926349211355537 4.081306486256523 2.2482692876149737
Ni 3.0141067435913174 5.678501647694459 5.971236429127772
Ni 6.4384336214775555 8.59009111020387 7.325261189881807
