31
Energy = -132.91777183 eV
Ni 7.901088733451971 4.833204927407413 7.468044605324984
Ni 8.379664765492167 3.265824866673339 5.707883837746585
Ni 6.243586429073394 2.596953852822349 7.182648951585371
Ni 6.098723908771033 4.437845045829947 8.800090119523976
Ni 8.733939898124559 7.018674533297169 7.05163739819595
Ni 6.942474979498899 6.777283545857272 8.723769981735495
Ni 8.315149518733877 5.62312835475941 5.238875856645979
Ni 6.551906911406747 2.245706849409994 4.667053351052521
Ni 6.310794866862511 4.332869454837332 5.797741623248131
Ni 7.566768625295553 4.192928663259121 3.556775496356423
Ni 4.2270692426755785 3.913037941290416 7.513762973425007
Ni 6.306030339434086 6.605487535904789 6.567911719591144
Ni 7.285135454138889 8.793411926454825 7.1361720200515615
Ni 4.6502470251620105 6.147102240450721 8.156538195102408
Ni 4.386249734451823 2.801333439134776 5.44401572377743
Ni 5.167014243918594 8.405703068243529 7.896446311786844
Ni 2.4943230702551706 5.661494630920605 7.3472334227121
Ni 8.041300485458313 6.546461075467607 3.029494122890389
Ni 6.0666538669590615 6.153681608834754 4.281429855966742
Ni 4.208173936232609 5.348082628807146 5.584911109151341
Ni 2.2970496491905847 3.811533417670258 6.034602897606193
Ni 7.741891574178226 7.899844608286651 4.954881476478496
Ni 5.250170447412586 3.957165559174719 3.5779487745908587
Ni 3.5977096437438876 7.481689627996745 6.3974645219968735
Ni 2.942298022297796 3.996739599466178 3.854547799850345
Ni 5.527769534388971 8.557490089896335 5.47928910340693
Ni 6.1596658530472705 5.562518607429217 2.0344317197400716
Ni 2.234698887644795 6.1342191125444625 4.853214864973241
Ni 5.995876474396544 8.06182976291112 3.140279507468039
Ni 3.760177602892516 7.932766473815364 4.119547221220038
Ni 4.031445740319759 5.943336237754658 3.0797231812568735
