34
Energy = -145.14238799 eV
Ni 10.108312879944561 2.5631856043247137 6.905492853143971
Ni 4.041066206349215 10.366153658831971 6.897000057853507
Ni 4.481499529275431 5.625171423015571 8.063125901841188
Ni 8.684652585372783 9.52796468597413 10.45858029686681
Ni 6.864938280145874 8.697984261953808 7.846302122728621
Ni 8.125184004610926 3.336129337900739 5.953067955191257
Ni 6.438532738187713 6.511093269301335 8.950449631302458
Ni 9.979481826559898 8.427642515471492 8.828730583577437
Ni 4.189562338797297 7.949460254104662 7.4810621889374715
Ni 8.50287167862842 10.306558081363557 8.227708988252001
Ni 5.71002622899601 11.2060035798015 5.21727860424598
Ni 4.491667334766979 7.435813049502762 9.719814534148787
Ni 8.221800239776261 4.97468314177887 9.226479359380246
Ni 9.491645277013978 8.820924372173227 6.60535094822047
Ni 10.236289844910912 3.7173162106909947 8.942253683005186
Ni 9.649380952252596 6.827239852921897 5.257031975397352
Ni 5.516940572596292 9.00247290283373 5.820588098963852
Ni 6.681478184861134 4.5795779669218035 7.467244723386274
Ni 8.456756127793359 6.838033618229666 7.57196936718891
Ni 8.189192903204122 2.870882733309322 8.213929427545967
Ni 7.728143995508477 5.555656042777784 5.558059759094761
Ni 8.431343410526356 7.192923612054499 10.025180030644698
Ni 6.263450413345816 11.011301251820868 7.48170861009487
Ni 6.860761621730743 9.564217742708106 3.9078179411098475
Ni 7.550337646635193 7.910869237441696 5.453818559606525
Ni 7.841380376973607 10.293900847784194 5.883470336619627
Ni 5.950781982670909 6.703024282940086 6.601942004279326
Ni 10.310587840845617 6.0284807493302965 9.138834507165932
Ni 6.81799867698439 10.849379607463005 9.776980044238533
Ni 10.933662928259313 6.975221166596038 7.165080867870413
Ni 6.5587520466293725 8.5763569112702 10.265373262519285
Ni 9.619512423970361 4.868633330511177 6.97419744964152
Ni 9.186064368499368 9.039592166996057 4.276403162301637
Ni 4.947285212154619 9.641223219049591 8.927997864706732
