35
Energy = -149.61068951 eV
Ni 12.724542087677872 6.907331336553723 8.19328737010094
Ni 5.33569278997638 9.142304414316436 5.684887752371285
Ni 3.4352082824963657 8.821275059551864 6.876142158593909
Ni 9.299925150478337 6.163990716810514 10.01161424040934
Ni 7.516170898262497 9.443961416659763 8.920594588102611
Ni 5.3549572813923225 10.168178217494937 7.9538818800754925
Ni 11.295426605287288 5.2168186253920625 8.976366688855048
Ni 7.2569084312952805 8.572810354265858 4.315889839413948
Ni 7.3627828894792176 7.517615104316699 10.291798890265452
Ni 10.42432147448805 7.0368984242857495 7.726444995234538
Ni 5.127212048317567 6.824387205345552 9.762261309615148
Ni 7.37476658434207 9.352291621423618 6.63090608918201
Ni 4.969526794793715 7.997572324480696 3.732599697144217
Ni 6.781017569483719 6.909423390657633 5.849743134479258
Ni 5.652136263925858 9.140889820918524 10.213144854343696
Ni 9.13193934318807 8.08378286553551 5.794862971688281
Ni 4.932675143128507 5.69472533427355 3.7784374478892127
Ni 4.394109308095683 6.828618587360297 5.796062354894345
Ni 8.795052583694607 6.74663562223574 3.8994624570950367
Ni 11.460079274283409 7.183225607427019 10.167044116532622
Ni 8.05636620350806 7.183807799594718 7.9652100826501355
Ni 9.029212443728072 5.804572684305637 6.032020932431102
Ni 5.650947761734632 7.933457232621623 7.800173609932038
Ni 7.226119887214131 4.589240927363528 6.890049094790962
Ni 9.53502090810259 9.389189567736134 7.6392638739566765
Ni 11.594713615716742 8.906309729528441 8.622354261879615
Ni 9.178947996058385 4.8568684812431195 8.12321466672151
Ni 3.679520925102741 8.7396873968227 9.161454952925977
Ni 6.7376589797972315 6.781526366376272 2.837577643076073
Ni 5.184863596736911 4.505458424456515 5.707389527269844
Ni 7.1752573855172015 5.105916682605715 4.522971168293424
Ni 9.512190196719114 8.460912433159873 9.7541740001393
Ni 3.3828327995241345 6.762643824268964 7.977911798807057
Ni 5.342082539047574 5.59443031158484 7.739996182123899
Ni 7.119939005015332 5.413565092193454 9.232958217290069
