35
Energy = -150.21639211 eV
Ni 7.000121831463675 8.773340667350501 6.3274555951712275
Ni 3.9200433441888913 5.785400679574857 8.689962006183912
Ni 6.739443112643453 9.092519829568673 10.446136585895715
Ni 3.694211304815807 8.049761504461667 8.480481762888166
Ni 5.844472436459342 8.74313602705976 8.350676776795991
Ni 7.158208886658857 5.145904917269575 10.49222112792481
Ni 9.0724459929478 7.442913248613406 4.443694063714656
Ni 9.77463525385569 7.346681482444318 8.488020350513112
Ni 5.572368756326657 6.8067239980691365 2.86974358339193
Ni 7.900674125862165 6.6336304128477375 6.963257866785582
Ni 7.536307805318693 8.32206321191344 2.8392599487414962
Ni 6.231928237511517 5.202217002056802 8.40112314953259
Ni 7.578155841546791 7.078619584322474 9.315214969139253
Ni 5.207593944927129 3.27715939492693 5.038939193846378
Ni 3.863630210774978 7.677526123215504 4.377564942388777
Ni 8.973411759809435 3.9356075835486695 6.592340940754401
Ni 8.985612560511406 8.378448778772333 10.57909274260999
Ni 5.371885349357135 7.045462085234117 10.02716730272148
Ni 5.8323780992563 8.89545600808022 4.285362936428274
Ni 8.666666639230158 5.084861412938735 8.557300395199777
Ni 5.527289692295063 6.86112739135238 6.861843586977194
Ni 4.714708206896105 5.607496746520989 4.814120336297092
Ni 6.784031831775856 4.67879164106107 6.118110225818601
Ni 4.527952457306299 8.869120823438358 6.326931989914537
Ni 7.942747998608128 6.085212718941087 2.636143854198405
Ni 6.519271633510771 4.612209151375528 3.6873503254565785
Ni 8.241093343768052 9.659008168296811 4.610725884655855
Ni 6.847698041899469 6.825438039240615 4.768807824831659
Ni 8.646927288050854 5.163643257807506 4.685361984419905
Ni 3.2798903736012415 6.745683896286044 6.532421994465732
Ni 7.145703135725106 7.160759060835091 11.655397369699331
Ni 10.033893045713958 6.100311317509527 6.443653339521734
Ni 4.5206005693509415 4.539498196758605 6.863334648097543
Ni 9.378048492201195 8.512532330841264 6.479309373753926
Ni 8.178709391512221 9.15332588877541 8.445048355174215
