32
Energy = -136.4775137 eV
Ni 8.118169285347479 6.6945342170396165 8.975927923532927
Ni 7.025211288180536 2.9094726197498906 7.825494145549994
Ni 8.675410361651647 4.78185095895657 7.655231585250602
Ni 6.632063845340251 4.796529591466522 9.138567189489594
Ni 6.063353667452396 7.027883187684144 10.042324754891181
Ni 8.083972210697848 6.934334802316082 6.678438832769888
Ni 6.020762841419098 2.8145459588327832 5.600433781174255
Ni 8.255792664969551 3.30789687258511 3.678861054833805
Ni 8.689935244967065 5.209873863860803 5.117011985968762
Ni 6.772439757958226 8.597081993799867 8.259300663075487
Ni 8.256015333175382 5.5361970302626995 2.80607251327847
Ni 8.432567472127047 3.021029616266639 5.965299997172165
Ni 4.863377789494904 4.026588561619704 7.555519621475659
Ni 5.9700876716144515 6.530111058965106 7.748909434520438
Ni 7.326983717351264 9.035451872434956 5.972693195618279
Ni 6.77159747420613 4.788817952974772 6.422205706042373
Ni 4.260476175009618 7.958894130924487 2.586024395573564
Ni 4.310455881962117 5.633787150640142 9.231400572296069
Ni 7.997675167386396 7.405297624379827 4.363569214691477
Ni 5.10017556416535 8.540312038667272 6.490880519509776
Ni 4.475074277297738 4.674419301280276 5.293224565198659
Ni 6.246718766009876 4.803843996476922 1.7306591012468495
Ni 5.800698894024753 8.724201724927873 4.1910172877714045
Ni 3.801172218269411 6.172875713594589 6.896102812552713
Ni 2.362724507192051 6.810053920893779 8.609435390379241
Ni 4.452481246317779 5.698864761193889 3.174907671685649
Ni 4.352398847442829 8.031223125267744 8.707039030296432
Ni 6.349277206084416 6.8971288150880286 2.748861716817304
Ni 6.452182990499408 4.650046923352531 3.994153825752727
Ni 5.90118548596517 6.668466729378122 5.24450029391213
Ni 2.8071681409277067 8.278473637220225 6.8542785593704645
Ni 3.726633715739264 7.394149958145062 4.795892368548276
