34
Energy = -144.97546848 eV
Ni 6.574382653584783 6.3624201137476195 4.181343507338201
Ni 4.545252517654496 7.630246485386116 3.012780899293793
Ni 7.648442674794266 3.9951179044284175 4.690334116890421
Ni 3.7786735699496763 3.441073289050055 5.075320926630245
Ni 7.800671974604537 5.28639155641685 2.541202745437533
Ni 4.321672013467162 7.40925588342678 5.33926209216484
Ni 6.295460956524037 8.625256095712103 4.305380828826862
Ni 8.467791455596908 7.819943545450133 5.5804666177637
Ni 8.132201115924037 7.3314253048268165 7.938930677425728
Ni 2.577418970650979 7.45812090416586 7.09009666874534
Ni 4.575321188308851 6.379998763673354 7.492074289978541
Ni 9.183289358729365 5.761290895405493 4.392073681747352
Ni 3.5251749677124486 3.4352054250964765 9.325225942836223
Ni 8.339892112373724 9.667197158884223 4.230294551262585
Ni 4.72399756073756 5.437641739906362 9.660939587459763
Ni 5.903056337242549 2.5144064448063053 5.446144523867863
Ni 6.669123506529498 5.465156569218739 8.27702767686464
Ni 4.726309744708598 3.486402413093959 7.347879799270768
Ni 5.636768459183273 3.8674129465721534 3.515342666019165
Ni 7.159265787528339 3.5035802697098184 7.110191229566587
Ni 6.347318029041231 7.507601500569402 6.488020114696355
Ni 3.5313207161216886 7.444821555368098 9.289459961028587
Ni 7.917126453563652 5.642581105265606 6.311747983477654
Ni 4.0644343506717755 5.541575029241036 3.9503659641197317
Ni 2.429706635953555 3.404987571930114 7.152719845289893
Ni 2.630087820156785 5.403893948952502 8.410187791429982
Ni 3.008083716617234 5.399279535134988 6.046720097839967
Ni 5.973527591613403 3.4772401425222967 9.279349850338047
Ni 5.930164940138041 7.567607523046844 8.951858237322192
Ni 8.553341348111703 7.6202253811346345 3.2216674209225946
Ni 5.602720633995214 4.9660543929052325 5.800102181767709
Ni 5.441446942106372 5.67175609207165 1.9915024166998538
Ni 6.548459912388672 3.732367531989411 1.4254065229218755
Ni 6.639832488851949 7.642770424579654 2.0413061787536217
