32
Energy = -135.04484919 eV
Ni 5.558361695585735 4.993492017116675 6.06264943447082
Ni 6.411992739717901 5.3747624338193685 2.6308153123685605
Ni 5.9200314063637505 7.284372366044676 1.3589989451494515
Ni 3.1934791273369023 5.1658649257245814 6.150446222946242
Ni 7.897854231648348 4.80677800681449 6.35119421784941
Ni 7.688116485292324 3.30259401098491 2.594456488705011
Ni 6.074747338200056 6.209727644159749 9.803783493690233
Ni 2.2512683564635694 3.095922536723072 6.701518301702893
Ni 4.243312250110471 4.853919418682591 3.9834978489548187
Ni 7.456913254318622 7.430861330034167 3.1130058994032592
Ni 8.349076931857123 2.8733060660238485 7.499378719507856
Ni 4.349295814298611 3.481595569142254 7.659532055262825
Ni 8.345750455164298 2.9053320814189005 5.031158600492045
Ni 6.247415285241416 3.56069172050773 4.29915812575141
Ni 4.882272862243543 9.541921411456936 6.625577154979838
Ni 6.2338863118483925 8.899577049966545 4.670176953665967
Ni 4.523212609565116 5.828359216757222 8.14430625454924
Ni 4.192967450853436 2.9858527742326366 5.364538490479433
Ni 8.230644750988466 5.1044934108606155 4.056700741131348
Ni 7.022062615490214 6.741046228192757 5.282571524431975
Ni 4.239608377340486 5.726632543739696 1.8520620669942562
Ni 5.101819186865093 7.172653135852531 3.5614943174488727
Ni 6.96550467003698 8.594859109566885 6.841197944397888
Ni 2.9932875651511583 6.780188968475551 4.471978230224732
Ni 2.4732293615396403 4.739794165168386 8.327652986091708
Ni 6.816892954463797 6.448249504324671 7.630753991841624
Ni 4.698252731937043 7.260552351323772 6.090328312721189
Ni 5.143750551322151 3.5013499176115217 2.2409080739642504
Ni 5.294497934341037 8.040998350968778 8.437458605185737
Ni 3.874412319246307 8.94532360474443 4.595854732895691
Ni 6.299651104108656 2.7269389783039504 6.5024837750680895
Ni 6.510230631231935 4.253494868652048 8.34273529823095
