37
Energy = -159.411516 eV
Ni 9.424018309254281 7.099356292119007 6.797755157327037
Ni 9.195510747193484 7.026363073886817 9.246539839607117
Ni 10.71983591245684 5.6391439489437065 8.114739772940213
Ni 8.126702393328875 8.56929807180235 5.484842260005671
Ni 7.043811073066911 7.619045796202887 10.16794928804458
Ni 7.93175059539396 5.351871454090157 10.279312100294076
Ni 6.841026903044659 10.17863192509567 6.816738410001213
Ni 8.958175258624289 6.584309693659082 4.307653025518387
Ni 5.673712572231662 8.908475837411576 8.559116023452008
Ni 9.703163001576184 4.857932829044726 6.132934517420282
Ni 6.361999899301079 6.48480876946299 8.32408361173439
Ni 6.4123152726348485 4.167149071158001 8.707940401772854
Ni 8.486461979874948 4.05181644252962 4.397418580183028
Ni 7.897772235104898 8.446923623404507 7.983831400328761
Ni 7.450235918807515 3.62451791260782 6.631419677574332
Ni 5.923539015622639 9.618089920960376 4.720116488039408
Ni 4.5463155510473845 7.328778287442156 9.799841124466587
Ni 6.634347119879364 7.571818951181585 3.8719977261581016
Ni 7.443097519722576 5.8600620635288445 5.799491744535653
Ni 5.668087301466486 5.500402599724354 10.53018924082826
Ni 4.2242817366667404 7.965798839465828 5.09444215331917
Ni 4.499884323740401 9.668832589180425 6.649900246539453
Ni 7.1789735585317915 5.406628488185736 3.1304469911774953
Ni 6.17003042881761 7.873140508219893 6.37259326695082
Ni 6.138318069736571 3.9740551679492078 4.7545978681960825
Ni 5.456687706200858 6.260005142587953 1.8024354172737482
Ni 5.127683928287813 4.0068135055785286 2.6208613858179364
Ni 5.165406320165076 5.699658153191995 6.32716287490423
Ni 4.013492132731993 7.417028942652717 7.479005195042074
Ni 2.9988946508639556 5.132004554589493 6.586028005501115
Ni 4.9698765540048235 3.513619311913818 6.849652525388802
Ni 4.2690502940808 5.231696545259031 8.55763162183487
Ni 4.040297595723554 7.746795386507513 2.8029425490141575
Ni 4.935393208769408 5.972831746251227 4.056145654757494
Ni 3.245020957173221 5.472041339172445 2.6418777445847788
Ni 3.791155376459476 4.0418687791579275 4.661193622428674
Ni 8.424193239661129 5.218903097127532 8.029691148285208
