39
Energy = -169.96620795 eV
Ni 6.67887149949704 6.267784837286911 1.6969092633778673
Ni 7.384110016839643 6.961515396284807 8.733354212387209
Ni 6.6085115194517705 8.050600182208312 3.319517823064681
Ni 4.953451111473764 3.40159229150721 4.052970060619121
Ni 4.697228680492343 10.054587927687065 6.245311205934311
Ni 4.833131331572122 6.472285502489427 3.116061298763354
Ni 8.681164365834032 8.52946905629348 4.392971389773553
Ni 8.483936569938107 6.450275488209587 3.2445611826897904
Ni 7.258446965518525 1.1317150487556478 6.417138369449924
Ni 4.92479205426886 7.045582418379472 9.1227096424152
Ni 2.7299788443110145 8.979504551462176 5.366538858760616
Ni 6.070396487312089 8.613659360174898 7.5715900112269185
Ni 6.056637848147198 2.6773982265159484 7.696142208942086
Ni 5.012862938192442 4.605572831851666 8.695148581573102
Ni 6.717125007904772 4.765400092790849 3.4638296933898975
Ni 3.4300402546704496 5.822792521717052 7.499366418483639
Ni 8.327153413059486 3.190050158642915 6.791836009685447
Ni 8.614719699430506 4.568391326103302 4.8205151825400625
Ni 6.326141374004853 5.610634851899755 10.363510509052485
Ni 4.881944021447179 7.958715793760617 5.113634480769288
Ni 4.104919468031225 3.6479991101956775 6.683029757994886
Ni 6.737811051147172 9.351633340109721 5.364935943523142
Ni 2.275463200349068 4.879934379345715 5.64079814282136
Ni 9.695222031037694 6.629995136745567 5.273385391291253
Ni 8.32876295066114 5.640956499495877 6.890885866594377
Ni 3.1444891447746426 4.7067753743144145 3.400624314568572
Ni 3.798169336279578 8.092764120860744 7.241895780342541
Ni 5.007050436042349 4.492889346761602 1.912218838899914
Ni 2.8142247123791155 6.8819571631264695 4.370389552536214
Ni 7.322600409816841 4.480358754401001 8.587189131020384
Ni 6.421269005677215 4.268070448830704 5.99894854712633
Ni 8.158656076433044 7.958913986254305 6.641206446214639
Ni 5.127433084558718 1.772831781487533 5.676577433939371
Ni 5.81711428633382 6.28861885638308 7.158744200650825
Ni 6.9610098334573856 6.567085657682509 5.066879614250402
Ni 1.7633634746133093 7.078734281765585 6.436647558364056
Ni 7.192948955438277 2.6194298199770194 4.598867902231914
Ni 4.552073691121563 5.543557252786617 5.246887076420874
Ni 2.907342745982427 2.740534722954777 4.886839995809539
