33
Energy = -141.49526041 eV
Ni 4.799377133476429 7.213953898858256 9.890304552559796
Ni 2.794739848080944 8.197794421751977 9.06642074756689
Ni 6.721096785286279 6.962464527131935 8.504278302677504
Ni 8.581139630395262 6.717280828032221 7.076728949481492
Ni 5.4341385014390005 5.035464101102104 9.225763501758204
Ni 9.20733959822746 4.523041485927272 6.292817967000871
Ni 4.6827915291112 8.009565581365537 7.686502344458456
Ni 3.400238491655028 6.0385943579519825 8.393641820620433
Ni 7.3594361094580885 4.728186746103497 7.7683954349965125
Ni 6.549246572279523 7.766485318299836 6.211722295454783
Ni 6.054492183267933 2.9219978255793544 8.423491163423
Ni 5.333004169842955 5.804722066640284 6.889889510893714
Ni 4.081322977448078 3.896241653733814 7.560193937486902
Ni 10.41327594933859 6.407901465096066 5.611625917045272
Ni 7.2896549351294055 5.576901988277159 5.403474575165846
Ni 2.4887597357063993 7.616769915239177 6.81634113379334
Ni 6.024495089524839 3.540603697196817 6.157076056633281
Ni 7.851536277539564 3.3366428279712244 4.6874133549219135
Ni 3.0004654712317143 5.4397957224792854 6.083964763712564
Ni 9.168369278829667 5.238616274663107 4.0018078275086015
Ni 4.33571402498062 7.461396523049126 5.322039552974171
Ni 2.1663981604278533 7.0280473938448464 4.530696094173835
Ni 8.502549152690639 7.481165626457736 4.769906150932085
Ni 4.992299765757997 5.178647502736015 4.547868923304304
Ni 6.257462443906392 7.211792857105699 3.8832146941871764
Ni 5.6443506447694025 2.992422241287684 3.832721083096648
Ni 4.011795645466714 6.801594097798365 3.0301269862000773
Ni 8.143410793421168 6.791404893198358 2.5268896894793693
Ni 2.7814167712940923 4.865697928392039 3.7586034299192437
Ni 3.765952572418522 3.3040689450866187 5.290819772029062
Ni 6.9696202918933166 4.826986460406196 3.06916936684952
Ni 5.941827867170457 6.412268046224074 1.7004371903964994
Ni 4.635621639259364 4.540077475653639 2.323806312516973
