31
Energy = -131.79377917 eV
Ni 8.904083933575112 5.186362551195617 10.509550251569408
Ni 10.328992927231964 6.946031261803973 5.220040035774505
Ni 7.392740607233201 5.032114287708434 6.79065720595628
Ni 6.442856224422919 7.392211494574657 6.4442858593445
Ni 8.553649294795948 7.481758820540816 10.935436502938185
Ni 6.847306417579598 5.97352239871243 11.156438495385459
Ni 6.383830777106419 8.234256204239784 10.125656126686227
Ni 3.967268192890572 6.875644037615424 6.244600227512074
Ni 8.825973975310308 7.068617896735197 6.941396903882668
Ni 9.170920701352943 4.895232777519529 8.252055784882149
Ni 6.548448231090706 9.275820883935816 7.866811423480116
Ni 10.0109060436964 6.864360562948491 9.208265976315191
Ni 8.562802253459807 8.716064487594364 8.958267216878262
Ni 9.641807382648246 4.798940691554779 5.947260843186908
Ni 8.016683222449275 6.06150991649822 4.777386170270546
Ni 4.885244474056248 7.7016548212472635 8.334886791405697
Ni 6.924491538660381 4.441981440705993 9.17070630237105
Ni 5.688741652161278 5.562743336609144 5.15785985552664
Ni 7.314179752705781 6.643446100729179 8.788283698907978
Ni 2.717110255748415 8.489697634120258 5.108944091692645
Ni 10.594912380462286 8.402749373376015 7.508046930244684
Ni 6.6551394803348565 9.605609484883855 5.435344409381648
Ni 4.69219628272109 9.261331945130177 4.0968747079837655
Ni 4.569486002725186 9.080201126556844 6.437354534355627
Ni 8.504085904914408 8.323876311289224 4.775454087018327
Ni 11.090491622659586 6.062692918575917 7.311415878939429
Ni 6.390046129384477 7.629610462142687 4.049622237878474
Ni 5.044989218805572 5.989673990179696 9.842753516233028
Ni 5.303149633531866 5.468990409207414 7.5902360733261265
Ni 4.141895635243619 7.0227845180976205 3.93735027560123
Ni 8.63151075304473 9.495003563986938 6.754890529418264
