33
Energy = -141.36787348 eV
Ni 4.619632208773385 6.2760306426799275 3.6793786743965438
Ni 4.073856380404365 5.309776795893097 8.706148139785862
Ni 3.3012552917759814 7.4143641167873 7.528905101453892
Ni 4.898372697449406 7.218665934004063 1.5323417675257724
Ni 7.4583575223787015 6.086354121051778 9.804609352920956
Ni 2.722133071199744 4.848956239727215 6.899108679168535
Ni 5.392596596828392 5.406516851883946 10.675368564512741
Ni 4.683392726302392 6.079314483265029 6.441366055069352
Ni 2.743119779503092 6.375369354896978 5.1501698323262985
Ni 8.612379024609723 6.152325358170749 6.017030510813129
Ni 6.222024415813356 4.380138426260943 8.760474728028873
Ni 8.126020179171519 8.00006745230469 4.1575617564402725
Ni 4.690769072043894 3.5000900494798524 7.1515545404701175
Ni 6.52219665687616 4.677394156679831 6.25647972620446
Ni 5.985948748077351 2.6600727071077426 5.20792872762919
Ni 6.3779775173138145 9.470521653662919 5.236820139766837
Ni 4.825791096022477 3.060023380275212 3.159163719369046
Ni 6.481683786317111 4.5594105487249035 3.869915965450745
Ni 5.780475547951078 8.408875774878865 3.3182807462910775
Ni 4.133842780024144 4.308013628569286 4.947058114583334
Ni 5.234069704253152 4.938284258367623 1.8757332108756595
Ni 4.309961758728196 8.145594169464655 5.208746962140318
Ni 6.877072444310357 6.515474705323319 2.592734960113669
Ni 7.890515906495861 8.34551240073883 6.609953342701563
Ni 8.4010259332286 4.685715717017299 7.86175622531469
Ni 5.5127145255981995 8.40693594482535 7.174916752318811
Ni 7.0662901848858235 2.709765943303996 7.311349090745846
Ni 8.346266819683771 3.733817466110848 5.3994920266703215
Ni 6.784969144777075 6.541890915321836 7.6760466305907515
Ni 9.018681182257149 6.995708576540418 8.233140709689641
Ni 5.2083514910399735 7.2588804453704485 9.210342726743198
Ni 6.483634034821335 6.8958061915378615 5.194333967474368
Ni 8.596541241623147 5.5847761395938855 3.8212600487199255
