33
Energy = -141.92224926 eV
Ni 2.350106433805129 5.068911092416206 5.19108738508847
Ni 3.0525331999878653 2.984402974618217 4.3125139260762335
Ni 2.7866975933182165 4.804516187492299 2.783786872310225
Ni 2.910963957502498 3.255140141918341 6.601231769924405
Ni 1.8362159975284522 6.8561379640331355 3.7864187225350214
Ni 3.143170748950739 5.52358507285085 7.440155136989755
Ni 3.386696507066116 7.139178138614323 2.1132011546793397
Ni 2.2875319386957904 7.2891046958812415 6.031836715237815
Ni 4.749709386754829 3.6065253814644684 7.951487626660911
Ni 4.902728866480147 5.379743085218797 1.7583750467401322
Ni 4.75059721087909 4.6990520178656965 5.901294301162633
Ni 5.044304755748233 3.897474017290682 3.6018418792900624
Ni 5.062887769688097 2.4639138793440996 5.700199652369899
Ni 4.200077017021383 6.0915209362648195 4.080451789492413
Ni 5.251785778333317 5.995156994925177 8.376588701845536
Ni 3.7776507627232094 8.302413764275093 4.32732490639391
Ni 6.931014015361491 2.766391540843018 7.24602200127057
Ni 6.514863022815089 4.119216005395784 9.336359345214676
Ni 4.572766426183733 7.153975571542573 6.342817419139822
Ni 6.9611984263021345 3.817853617758168 4.952494000696714
Ni 5.617708431892352 7.427155517283366 2.8194976685361777
Ni 6.450779744958315 6.2486655920347856 5.030634310890279
Ni 6.130100801232274 8.503486227890464 4.968663445048497
Ni 6.909371728577733 5.021127733751417 7.062017680430896
Ni 6.924605211750049 5.271468177956984 2.9731588821560635
Ni 7.833603151159656 7.457596213722793 3.4392222981006406
Ni 6.7848722685245795 7.44342256005059 7.157268042282331
Ni 7.545089236690192 6.23091371041025 9.084089148000425
Ni 8.677070719168299 4.197648508247269 8.521594290636765
Ni 8.918177822352026 3.833006339933414 6.266397305055957
Ni 8.455983214749898 7.8660607042643775 5.601112812704368
Ni 8.654207509566554 5.594886342509178 4.717562735282236
Ni 8.932344972072363 6.135839409267741 7.096678892205797
