34
Energy = -145.25404279 eV
Ni 9.229903352418527 4.577170473296171 7.624731410658602
Ni 8.577500381919613 4.6202326891285415 5.399835922808834
Ni 7.473723029350803 3.1649897620707312 6.882290290927099
Ni 7.004934606218851 2.9602760751278785 4.571123365243015
Ni 6.552018136441593 2.9016842710851383 2.2555969387672854
Ni 8.044845369404305 4.507712727500621 3.062310341297565
Ni 8.49381322325442 6.33758675049458 8.908530385213401
Ni 8.782728188783794 6.747296989751688 6.541771490232413
Ni 8.335944400549366 6.65134606405657 4.151510292540761
Ni 5.32170873081231 3.7441669934877964 6.179263675412059
Ni 6.378634419455963 5.310641975398685 4.560760192320402
Ni 7.2405082423371105 4.288206797375796 8.969233488921544
Ni 5.909952087561396 5.1826448775432645 2.2328943806035784
Ni 4.876787920073877 3.6524342648984036 3.727602359177054
Ni 6.241569940515571 6.30092529917742 9.633084321839917
Ni 6.868110236796017 5.54898531081474 7.05486373521888
Ni 7.844070980591673 6.499042186146864 1.8480325225312118
Ni 6.165903093654787 7.331772135400815 3.2352022894971126
Ni 3.238501055821121 4.310659784278872 5.166826133875531
Ni 6.6844790077144935 7.56928021490003 5.596226397237672
Ni 6.929629816497542 7.786257549039919 7.92765458270722
Ni 3.2435970891723427 3.483954174809696 7.326339490438822
Ni 4.933266697904652 4.808930592799135 8.311466204348685
Ni 4.6781677357683185 6.1641583216032645 6.088851315752209
Ni 4.617200369052016 7.202308341823333 8.214704605131978
Ni 4.10162848022907 6.063533665842736 3.729995015166903
Ni 1.2693174225659665 4.459590247865775 6.346378991866628
Ni 4.576758202721713 8.210346862076289 4.672758988075664
Ni 2.835965142988877 5.76768489744363 7.51152326232441
Ni 5.2305213461397315 8.997224323868274 6.821266036826451
Ni 2.171399972620323 6.342367815710946 5.239848458561015
Ni 3.064222009411527 8.024884141464428 6.612730505903419
Ni 2.3205491292337186 8.452321626886128 4.384831053057636
Ni 3.5449923129421497 10.0829286578668 5.58871634360334
