35
Energy = -150.04754873 eV
Ni 1.64309383590595 8.400074193130374 6.148052866466901
Ni 2.9382160385199763 6.865103313221963 4.924518833948258
Ni 6.789184940259849 7.026567355615506 3.997353404194505
Ni 7.382495853617547 5.34814491178811 9.666175083971453
Ni 3.336724604357849 7.391709292775718 2.6265786941735327
Ni 3.77250693129677 4.89254107996073 5.911051808358532
Ni 4.761075447046196 8.031368656200348 8.21476219245979
Ni 7.093125692007996 2.672372488901988 6.499113614236626
Ni 3.0330161810098013 6.733694109204625 7.280852009371556
Ni 6.498837593534822 8.569251926551035 6.079099503600062
Ni 9.005650823707484 5.868663882662244 8.0431696573955
Ni 5.572154574738597 6.903705760273352 2.0349350594288387
Ni 6.81218457166236 4.921223504044092 2.9536520540665334
Ni 4.874631276988045 8.232451862660094 4.131197795728807
Ni 9.026220020688886 4.407867041988606 6.174017545797064
Ni 2.6286383622971474 9.064846652430795 4.136821667759858
Ni 4.967384874025529 3.399323987000272 7.1383263595740285
Ni 6.8476844079782015 4.7933148742681695 7.426933817929161
Ni 6.217814021153951 3.3507761776124516 9.102553100654426
Ni 10.022988224146628 6.560262860574502 5.979512330982128
Ni 4.854431873414951 5.5571985341857015 8.353574251212104
Ni 5.27720536859822 6.601366230298445 6.153175480411745
Ni 8.732584683416542 8.156783170647024 7.278075101505932
Ni 8.521543617370359 3.462305692940741 8.336991908105043
Ni 6.130111947704638 4.48266931836717 5.158667261334742
Ni 8.772550572798187 5.625310272151568 4.11726312074859
Ni 2.616943955924161 8.873151751226601 8.180267839431146
Ni 4.663700676819423 5.753740124539114 3.8095932749443873
Ni 9.300136316140756 2.1791405368740158 6.395458205050444
Ni 8.498374489530025 7.516483195923534 9.615124657658956
Ni 8.016216379933233 3.3262882725816016 4.352968977708671
Ni 6.798547606189663 7.104971910889338 8.154111059866969
Ni 7.679832022655735 6.39448881773703 6.005771373425119
Ni 3.9591481585983574 8.793933750022443 6.180571814537204
Ni 8.66957106190803 8.152074139433699 4.860742201699958
