36
Energy = -154.71316572 eV
Ni 9.44988135718987 7.156546117152694 4.610725750156451
Ni 6.6908597956772935 7.695611970737619 8.387778903260976
Ni 6.529361685555993 5.891553368192751 10.001166007133792
Ni 4.081588380162657 9.732885609347658 5.973222786803061
Ni 10.206506273453089 6.564301776807156 7.227792640505944
Ni 9.015346678611932 8.556015159554656 8.436548395791489
Ni 3.8973849780227523 7.485367132862929 6.670372897749789
Ni 8.184817559124422 7.538204632259378 6.5351986994274665
Ni 4.988726982850046 3.9465317825119146 6.043003792604787
Ni 6.799710607991804 4.392966215376802 4.704244663836944
Ni 5.5681691271573 8.465642095064451 3.9584630193032493
Ni 5.989865440682143 8.472484241238122 6.227321548919303
Ni 7.583280006033878 3.8543164026380987 9.291645801182252
Ni 8.225757840674497 5.821468940627026 8.313802622356162
Ni 9.86983093699052 6.745921838655083 9.658309976867294
Ni 7.7490353574114685 9.91428244694276 6.917624198530852
Ni 5.68676456620879 10.912749931755513 7.384265766386795
Ni 8.079465146298775 7.710160239082718 2.789133205827289
Ni 6.194726517735942 10.560667864508282 5.11413236384471
Ni 4.736006932827915 6.081218491542946 4.870480095586589
Ni 7.846588745960811 8.988991191239792 4.657388662637897
Ni 11.000986404829424 4.990707740520645 8.758457435363306
Ni 5.424007582632041 4.440415661897315 8.42824774364274
Ni 6.914275376573464 9.80967242212622 9.192342505459951
Ni 7.916170068206317 7.854853623498567 10.380241736674437
Ni 3.5728687688497613 5.293991141453567 7.165841362291752
Ni 9.440334352836729 3.9061807775603703 7.542090411746822
Ni 6.155579944365844 6.016099388136649 6.778962904622031
Ni 3.3725913451170713 7.972005795787504 4.4859696403634635
Ni 7.154339420397821 3.7870609513668336 6.98893967636588
Ni 8.659274892346808 3.024962111412935 5.441868096971696
Ni 4.701462870502943 9.031783637570625 8.299083301783401
Ni 5.540195614715526 8.122038636351206 10.396939255534637
Ni 7.0490492345234745 6.6932436496568 4.559978346702439
Ni 4.568129208891822 6.670346986965674 8.794070019693137
Ni 8.671753874759403 5.315111590522066 5.819573059015912
