37
Energy = -160.37416163 eV
Ni 8.420969329517511 5.317011421430895 3.0607709479023026
Ni 8.312872246028993 4.6104448135626335 5.331060209320546
Ni 6.6816515123512135 3.7452783936881304 3.708692669020474
Ni 9.376902568266182 6.66686379857358 4.766385908353463
Ni 7.775866145960261 7.628890334369209 3.3151077204172
Ni 4.477509931674031 4.330602397277724 2.9469572902901615
Ni 6.262072679600911 5.67085774972053 2.125537584707605
Ni 6.586973311204195 3.165997262978764 6.0487853835845415
Ni 8.893283061928877 6.2002008587326465 7.022820960723141
Ni 7.490046686047562 7.681670695120381 5.7844929552212125
Ni 8.168482420233774 4.004458424811404 7.6684526388294465
Ni 6.567004447702664 5.99277430108597 4.4090167221351155
Ni 6.520594017428482 5.512798787318015 6.819414126089765
Ni 4.863984814639909 2.4223875692247097 4.488756470789773
Ni 5.825351919649218 8.004067523322204 2.0326903835190198
Ni 5.853614966116699 8.603828971135362 4.323864021213681
Ni 7.762647873157368 3.6459484192149847 9.961636348343086
Ni 7.097101111235404 7.361146588640685 8.16404557454209
Ni 4.401091372333903 6.674940211737817 3.3107792596214503
Ni 8.503027862140755 5.743755067623774 9.266568235398056
Ni 3.8986107957025062 8.967538510298509 3.0714091297130106
Ni 4.764676059940813 4.609139131703711 5.302581248254231
Ni 4.826665758561849 7.0001426231923665 5.729747441599065
Ni 2.698025754679815 3.0595175461217234 3.8543072497482718
Ni 2.9504701738309858 1.3756323718737957 5.448342096801323
Ni 6.160311365730461 2.994864242861761 8.390041191896591
Ni 4.545400292744288 2.2679001817536673 6.865582100778678
Ni 2.7316933831712507 5.3552622047682705 4.333116196591351
Ni 2.7705505290480605 7.686007096041409 4.789473883429716
Ni 5.685219307638635 8.817534132386992 6.853041423682205
Ni 6.225304574328056 5.259615157645887 9.1551787891826
Ni 4.014995560269245 9.659102727037707 5.311841026038027
Ni 2.768255104251075 3.663122261947974 6.119197171225914
Ni 4.4366448970701455 4.476164364918803 7.719010087606469
Ni 2.920744007660186 5.9803300313579335 6.641278217119115
Ni 3.289348118617027 8.324084747301493 7.055671366161271
Ni 4.763858847404494 6.811941887085372 8.096168778017933
