33
Energy = -140.42612143 eV
Ni 11.430522908171014 6.807473510357192 7.493409296977968
Ni 10.607749554856982 5.47413801222014 9.159431390844322
Ni 10.18894849540329 7.1166810057083945 5.598756867564301
Ni 9.683111240751947 5.176838771131386 6.9116939217914775
Ni 10.001752570631185 8.749506044320638 7.454077447017655
Ni 10.815874919546696 7.752484640585786 9.502539255195481
Ni 8.271715631201612 8.378662805523213 5.757285549936067
Ni 8.73533059074745 6.636070763546807 10.093260026823751
Ni 8.120847020064053 6.057702938697025 5.2588731000404225
Ni 6.641249546570923 7.5956491967753745 4.244479147458239
Ni 8.574426862279891 6.978899608094889 7.809646057769183
Ni 8.573608029146325 4.456886756348314 8.941630908376755
Ni 6.850462910479798 5.325933312324685 3.43727252903766
Ni 8.924492389256391 9.030129803000904 9.629927164944064
Ni 7.273144699045108 4.8611277056229145 7.012081641330656
Ni 7.628189570111815 9.426661273255782 7.706481746118644
Ni 6.298708001098946 7.260392297985408 6.947100163037381
Ni 6.689523173576442 5.780462698047997 9.068188089163
Ni 5.5805361535026705 5.593204786723547 5.368767792907566
Ni 6.813771124073748 8.03696709091009 9.421968355325612
Ni 6.979971850730473 10.373963003659412 9.776024487199406
Ni 4.901361151278115 6.585859129751413 3.0338027468087096
Ni 4.69734730494063 4.299318966703763 3.661776110402784
Ni 5.022594118905058 4.876144813153418 7.669742836824676
Ni 3.694784594419634 4.208575942723805 5.864972967908459
Ni 6.152286991593245 9.398092116425493 5.7700249753585275
Ni 5.657887310718246 10.634016671306158 7.797996554953534
Ni 4.6849219240152715 6.9736805934528725 8.802799755831465
Ni 4.8693796909263485 9.269713686376305 9.480137033107567
Ni 4.472258813962987 7.90427445358546 5.000218768716486
Ni 3.6880925035328582 6.50049353661393 6.696540786702041
Ni 3.1841679992417076 5.969890333783246 4.443835864127847
Ni 4.384794864138426 8.730142794385731 7.23005283295722
