30
Energy = -128.51590101 eV
Ni 2.633712707404931 6.439547721162107 5.534008445236572
Ni 6.377126665954264 6.506013652603896 10.063279016783966
Ni 7.794423808169637 9.80293906940206 5.36819924025405
Ni 7.914522061536747 3.2397658767011674 5.392140797443907
Ni 4.1571549060856245 6.470488593516179 9.206654049984488
Ni 9.298204399115788 8.91162645028954 7.0921191853009455
Ni 9.38433428334518 4.193255237110646 7.107896965506239
Ni 3.9858236035828973 8.162097443465287 4.7517818772032765
Ni 4.055015607764882 4.768369493851165 4.756981687173899
Ni 5.191026360792206 6.475859145003666 3.2676931901135085
Ni 7.348464539054049 3.219248236588477 7.733762275858836
Ni 7.236203403974677 9.813346391486181 7.71912527055303
Ni 9.273748532612519 7.766307182233397 4.973870597862504
Ni 9.297074026194984 5.322331859480786 4.974326931683263
Ni 5.5148138914954785 8.507832410942992 8.744719804591009
Ni 5.581700637553512 4.478437553677526 8.74506568769363
Ni 6.2397129219275245 8.49573972460083 4.158052475268762
Ni 6.326512515769036 4.50984249203343 4.17710204676223
Ni 5.587957234647922 3.808827184810334 6.335459491072253
Ni 5.496393596501949 9.160450510034899 6.327386803623149
Ni 3.872946291785196 7.672939752815532 7.14052772630701
Ni 3.925892686311851 5.259094985603737 7.138724669656443
Ni 7.457231867410292 6.529285249089825 4.141229968215335
Ni 7.90810720636833 7.728531935720627 8.670907689224158
Ni 7.9433167476297974 5.326121708797671 8.674776517434415
Ni 9.302901876334891 6.550619834075393 7.063422900988766
Ni 5.9853125872842785 6.502022659404336 7.7857428863276406
Ni 7.333837603480591 7.744159519209348 6.2790799744489
Ni 7.3705423003429384 5.290004325160665 6.2881110079912785
Ni 5.3534977295116 6.492406401071173 5.535363419379693
