30
Energy = -126.75611722 eV
Ni 3.3665468562483563 9.130941236352669 7.999333429331703
Ni 6.7703622471223985 4.554257520630953 8.106494012574169
Ni 7.889835714690412 8.59393753491919 3.8847930762340273
Ni 6.8630634729459485 2.8298804100134856 6.352379926224609
Ni 6.33337991051638 4.5859869717649575 1.9400707140257245
Ni 3.4859582830195026 4.131091123134123 4.638723510737637
Ni 4.779832074897388 3.2601109865921876 2.9215251196732432
Ni 8.307959718266247 4.28464584694075 5.386321618623425
Ni 4.835867841613537 7.880537804201129 9.279893488965358
Ni 6.87700029894667 6.698520033508984 2.764772738026593
Ni 5.0168618569992836 2.3022099476323605 5.006669155402637
Ni 8.320245506824241 4.799043864334949 3.118857061834272
Ni 8.797365776250514 3.6069538151742626 7.537189674607802
Ni 6.462268179591767 5.966010970277968 6.3373400494784615
Ni 2.2895045223240467 6.133674222380086 4.4353333025316
Ni 4.9130359518160835 4.088012753070756 6.5468658499683565
Ni 2.7186393533513655 5.235734463665408 6.724263509995095
Ni 5.118628606712093 7.993153513387752 6.9307029549940715
Ni 2.7275660650210565 6.947656396499642 8.495989857009212
Ni 8.641198970023648 5.963474915650003 7.127748140408699
Ni 7.547518481304828 8.110844720251869 6.349207961978409
Ni 4.447304147451995 5.801800159260535 3.055126135089301
Ni 6.109874520667184 4.789583989586308 4.325412764862573
Ni 5.924779093192446 7.663671405664915 4.653955802642033
Ni 4.344195295981269 6.1889972604336885 5.384971768871419
Ni 2.77607483231615 7.622813030627331 6.30701782046858
Ni 4.72325888125741 5.883765596228739 8.030638646511742
Ni 7.056294603115602 2.818613696296808 3.8246171702397462
Ni 8.172117574026176 6.508091878612845 4.746605461917005
Ni 6.847713959718871 7.022521889723294 8.415653653629318
