39
Energy = -169.4092605 eV
Ni 4.028202943723819 3.6695034359965186 1.613004136763519
Ni 5.189728146574128 5.592979496006993 2.0399357083900607
Ni 5.986486474180631 7.721051148632147 2.2690531263660065
Ni 3.688087634345455 7.118015411652227 3.051713756437091
Ni 6.497788698480615 3.6511359301938042 2.053110107653983
Ni 5.074162076801883 1.704189534432483 2.1490203297840944
Ni 3.5067646901735077 4.867570957193722 3.5815233917333273
Ni 7.4437154197562965 5.796249339052849 2.774135495407218
Ni 3.2484841666225788 2.4770899213573196 3.5474835062880548
Ni 5.151192486334361 8.480147020174574 4.280399659844967
Ni 5.756090184504926 5.999427950801076 4.372377270433772
Ni 7.011585601328612 1.687658411382202 3.439911874565786
Ni 7.409067152576391 7.904650048099902 4.1340768646996295
Ni 5.371514558734735 3.430010855379898 4.070675318444103
Ni 7.7012536005832235 3.8180622313041166 4.142441342304003
Ni 4.967922181954469 0.8924152081903733 4.3104248176521045
Ni 1.819737125765373 6.11471938906894 4.523492641080639
Ni 3.7265721338113487 7.042228837003312 5.425430047837323
Ni 6.511707377840687 8.913293268200519 6.141858770821804
Ni 6.42635326602093 2.157678323918355 5.739751700494518
Ni 8.142640756780995 5.9343558536561405 5.070178233803747
Ni 4.172531904757591 9.255152111480005 6.233545583596941
Ni 3.965768424717752 2.295502793996763 5.832275337879231
Ni 4.356119905327523 4.7339800357511095 5.967146954984983
Ni 2.2175670133815117 3.844698516567222 5.275979236955913
Ni 8.681088307243519 7.951891921643907 6.12363849495498
Ni 6.727196304666954 4.436736960509119 6.224634910465431
Ni 3.801657222926873 7.47828414381231 7.762341102607655
Ni 5.890662910507305 6.706330038241195 6.771421306198073
Ni 5.2796226658957135 3.1191940393306656 7.6351960685231886
Ni 5.39116067214205 9.118827198589797 8.231571630302948
Ni 2.3821438623345914 5.733667525662919 6.864000053996387
Ni 2.8858105309314688 3.4718659049908993 7.535186678472912
Ni 8.194826385907954 5.995445715774709 7.400560453074666
Ni 4.264436008775978 5.220221680660046 8.300350016907405
Ni 7.496102206291351 8.083109037841044 8.150129732058122
Ni 6.591793015573074 4.795857963684858 8.612039992157031
Ni 5.66544652785131 6.926042469145036 9.162589837248436
Ni 7.898884668341199 6.3826345850887325 9.709269723277963
