34
Energy = -146.72954824 eV
Ni 9.152895226083247 7.186232957326735 6.811355247877904
Ni 9.534448306797621 4.934024363482577 6.291846496149585
Ni 8.593091856685458 5.523011180146631 8.351739043020748
Ni 8.613591933063459 6.362183503630408 4.569738828429957
Ni 7.368970766401287 8.109579922049068 5.633507505024333
Ni 7.989200528350361 3.9646255693209693 4.839255289884817
Ni 7.66395168602788 3.6200217645697643 7.18178965265251
Ni 7.050713414662213 7.391781492799693 7.983296136277476
Ni 7.017026385019376 7.774014210962053 3.2512994202487677
Ni 7.129227905729282 5.741922280497782 6.299043988452948
Ni 6.391100980735256 2.256823568010228 5.503971669569043
Ni 5.512034284014671 6.765178242078878 4.6767731038962905
Ni 5.249633666373461 8.16626326243767 6.7071471955968
Ni 6.302148566529879 5.193709038550892 8.560126664437387
Ni 6.933226733786943 5.395762965644649 3.26993560615411
Ni 5.6867042099559075 9.347035125297628 4.6447316831962455
Ni 6.748465735369293 2.9776902963747265 3.1618893485172337
Ni 5.435337533903987 6.43588502991868 1.8538413352787568
Ni 5.336919356931521 3.453604854428921 7.268290948355689
Ni 4.687564703596376 7.025722037708441 8.710280716112216
Ni 4.636140884019404 2.249935911849082 3.7509587442996386
Ni 4.646394310873919 8.336906589570189 2.84684882811809
Ni 4.682404808717602 5.805027021341793 6.773691709632023
Ni 2.9936202492293678 8.05132084877243 7.191853106345561
Ni 5.517206278037453 4.3257380973947726 5.004727763729321
Ni 4.834949655520598 4.331260152860767 2.7066853787303615
Ni 4.110946030489968 4.622126166735098 9.000567641962538
Ni 3.9433851802226116 2.183359890793103 5.928030093636414
Ni 3.607255233302826 8.195355725065166 4.931116477595451
Ni 3.620716861313099 6.21560210580264 3.4725647125536816
Ni 3.030147916792281 4.090683955884699 6.937931920380009
Ni 2.4941356503645244 6.028677145746382 8.122514709412881
Ni 3.2646131665911926 4.098251990495693 4.573814835626596
Ni 2.6748479578689475 6.155491380921953 5.687593468366882
