34
Energy = -144.08240022 eV
Ni 5.483948476282392 9.399842457724285 5.7064907631889055
Ni 4.0581362252554944 6.190943488820296 4.488156672734835
Ni 9.018946823413378 6.296606980683934 7.722923631844534
Ni 9.601180575478596 8.51423427637605 7.063964907753545
Ni 8.35364429162082 7.116776544672903 5.559347818752208
Ni 6.709347722362988 9.281025928507479 9.428961648727102
Ni 8.539746500478088 5.693959197369114 9.903084365030324
Ni 6.559441665808992 4.427093619967119 9.388578955175491
Ni 7.382431259430679 8.144251127652822 7.510390479893313
Ni 6.843739845288823 1.4461306702221102 5.675079340830839
Ni 4.83023606176357 2.5586255518004704 5.573416480590556
Ni 6.657788690168724 3.196021279371549 7.21171945764575
Ni 6.591935835425252 5.79426735255842 7.589237276430013
Ni 8.586483048953363 4.004141623612102 8.261617794779848
Ni 6.638954852463044 11.31565775338323 5.292127541198473
Ni 5.623269473152885 1.883968350839434 3.563952990456957
Ni 5.466513692831004 6.547854666410227 2.645480989500373
Ni 4.525270460274991 8.369627576061722 3.8165754636966565
Ni 5.9181660111260825 7.117361165098461 5.710716445478241
Ni 4.0845836104478845 5.994593145932893 6.95974768111648
Ni 7.9508180265195385 9.46762069192322 5.589588603113424
Ni 6.608909335881712 6.968336377444751 9.614974836530026
Ni 6.862196476925745 8.159736004451842 3.872836268490124
Ni 5.113632486246875 4.251045793069378 3.4710597921726998
Ni 5.600543350996783 4.702779632619993 5.714865098719533
Ni 3.2991370305975103 4.266563266724275 5.495978559865561
Ni 4.654389427993894 5.8465384038292845 9.15408364367319
Ni 7.0946033542443026 5.740988221321606 4.104720202528583
Ni 5.085412462658657 8.025837916669513 7.902967920139384
Ni 8.775975091170974 8.014408486897018 9.384933275491605
Ni 7.109639853908554 3.3760745190273536 4.471101970727329
Ni 8.092635342129835 4.768556973872221 6.073248036158849
Ni 6.652072083452476 10.394485583346896 7.418430744406982
Ni 3.596245518337359 8.048297496078206 5.973924067508594
