34
Energy = -145.37554784 eV
Ni 8.352101818244416 4.037764299379177 7.50789473818556
Ni 5.904049866989002 7.76211249006683 3.334602847466688
Ni 4.383500419021969 2.81403946673661 7.650783413154584
Ni 9.360908333327192 6.523533207656688 4.559268727580099
Ni 4.369627125244034 4.8966715173312005 6.193195015020569
Ni 6.519581769361531 5.497793825260052 7.831745090008747
Ni 3.656795470654098 4.29458032543681 3.391008592093206
Ni 8.512254963809104 6.345511548267113 6.749432877414423
Ni 6.303223693507644 6.264961248991944 5.548418642121755
Ni 5.325373448958355 5.6563356510788845 2.331670168586447
Ni 2.000859773139673 3.0027766818316453 4.393378596927193
Ni 4.402790298646123 2.8993965982573253 9.973702743792911
Ni 5.200946235581212 8.368926793100702 5.559148976710062
Ni 4.59719945693086 6.912242618225998 7.425728204473146
Ni 4.2231430111623585 6.421441402167739 4.268032421867434
Ni 2.929820575372005 7.396094114605163 5.906142833402936
Ni 8.34231580133085 8.087868639177648 3.037920872534944
Ni 6.672816177729098 9.761176638890282 4.112726448598284
Ni 2.5550612915575037 5.658072505672222 7.51857768330833
Ni 10.154392395093433 4.847026844912597 6.1183073617411665
Ni 6.313388995949117 3.4442372063827866 6.399169765131975
Ni 7.4380995671896954 5.886588275559203 3.361136701538217
Ni 7.723756333325451 8.09982993632218 5.287969004951501
Ni 8.040936702847493 4.568672707307244 5.207515639314975
Ni 4.456873110962575 4.894863048539548 8.781209409526035
Ni 5.846893659503521 4.307380304297217 4.23985567672696
Ni 2.4520909879114003 3.690424320552122 8.890394067792469
Ni 6.742270124440122 7.821377404958401 7.390686777585697
Ni 2.297002519179649 5.247726976118757 5.099989613902974
Ni 6.785225879182069 9.36494606511013 1.8300077011141427
Ni 6.395790328111359 3.393221012386148 8.786034231061887
Ni 2.3354609322137954 3.3930352504418995 6.616507688213292
Ni 4.231955172333673 2.8024331704149104 5.214336665383687
Ni 6.999619340253532 7.07090324084037 1.3615056177343023
