33
Energy = -141.87770638 eV
Ni 7.482093015542592 2.7335765352308248 8.926231037727971
Ni 5.46171758689344 6.566392351209266 8.197990275334146
Ni 7.806498002985309 6.01891510124369 5.127605478405551
Ni 5.992057133599611 3.94413283051797 10.500920974996303
Ni 8.64836145295036 7.202063053849798 9.715485815265794
Ni 4.230517521422305 5.320274652170429 9.69983114366669
Ni 4.576425108715108 8.807877691720938 7.751375161544879
Ni 7.570525203977408 8.334850309403 4.144501668675447
Ni 9.878580055075584 5.312389658420968 8.465935811233463
Ni 6.567372259154809 8.404035863891625 9.154562333061035
Ni 9.929484782481758 5.769064439755062 6.166096573937233
Ni 6.338950164070153 6.378099249547714 10.39036786629739
Ni 5.71289377552445 6.997096241257619 4.389535947695489
Ni 7.885024291681111 4.899336893764618 9.508298101234306
Ni 4.413617070512525 7.771368821806575 9.96758862813173
Ni 6.566033913371805 7.918592371712619 6.5116192633359935
Ni 7.932655143251796 10.014465842625034 5.786722651201769
Ni 3.8273860680125575 5.024772945344338 7.285856636849122
Ni 8.932615033739816 7.896662936296138 6.0007221853513695
Ni 10.281089803101162 9.678911330820247 6.664894928993711
Ni 3.048037661199687 6.9891176137181965 8.244213479120548
Ni 4.215439428882188 7.1304456765286774 6.139573470818818
Ni 10.330697358523961 7.534469101118294 7.862806856514708
Ni 7.93345434754059 6.478413622695069 7.689956943211803
Ni 6.406633205411957 10.191973789950758 7.511807995652878
Ni 5.860217815057015 4.178345412289876 8.20307356083918
Ni 9.670976369804395 6.962361220620735 3.9900099416281645
Ni 8.449202958930508 9.014082927724147 8.022270129807401
Ni 8.019745291031592 4.274808162598466 7.069470411490689
Ni 5.916559956988388 5.385250965330786 6.195269829627171
Ni 5.458043866436977 9.376233074868797 5.3215340503338995
Ni 11.254973959113114 7.766755256813446 5.592095230267295
Ni 9.771155080826874 9.33262053716728 4.348640588163217
