36
Energy = -153.56412583 eV
Ni 8.929121152799489 5.163393581955564 4.887079613640085
Ni 7.259888324587858 3.7147377186612864 5.778630351807724
Ni 5.561571499824436 5.382665519153161 6.262548282838662
Ni 3.466516924938462 5.271943322583093 5.413140328370233
Ni 4.689286416798025 7.297881308980295 5.297544343587249
Ni 5.816152626111566 9.40409395744961 5.26487807043147
Ni 8.044020077300583 9.752754412153944 6.012513298785311
Ni 9.114988551868759 7.45328843564568 4.891525344907759
Ni 7.836030833763083 5.743577644234275 6.931037091502035
Ni 5.284009022883873 3.138612638056072 6.940780391066387
Ni 3.8157702089081837 4.751819376695469 7.6798221271477205
Ni 2.987749441103592 6.8769824051249415 7.052004457478592
Ni 4.307218637301219 8.8006697783788 7.060480032584599
Ni 5.880926953681135 10.418557166359488 7.3952641845921905
Ni 6.569075640364603 7.877675204021905 6.87446706977933
Ni 9.800605084293895 10.206620369459198 7.6626844137569865
Ni 8.971878810842895 7.966296467325672 7.18805649767317
Ni 10.337936258008188 6.084453462876934 6.543053796063411
Ni 10.37382235924006 9.177184580292524 5.658848771855496
Ni 11.252803931392382 8.133045388839589 7.656989228114491
Ni 7.425919580898635 2.7461661705336295 7.863639055876102
Ni 9.83053689392755 6.444506414769499 8.838889213370994
Ni 6.230794355803386 4.699465380115436 8.49334937247229
Ni 6.943565085992144 6.703474391069583 4.819808165940727
Ni 5.00086615778366 6.710678746191541 8.284401443579558
Ni 7.414331661868765 6.9585908605533175 9.005769547857321
Ni 9.670578215514888 8.586256866370684 9.440357247156271
Ni 6.386492419275909 11.046185326742425 9.558523641644904
Ni 3.2706370213106797 8.094440295887237 9.044639124165846
Ni 10.952550827843908 4.583381483759809 8.342881409730818
Ni 5.546333322784915 8.823433523024763 9.114008853445187
Ni 8.47953454094094 4.564452475118558 8.980645705734467
Ni 9.316369757880777 3.8757319561186314 6.912470161180903
Ni 7.7113333703087354 9.394987013163757 8.597005429796292
Ni 7.890507416913827 11.597186757515185 7.72054058844207
Ni 6.7110991363118 11.634715394033112 5.6410143633619825
