36
Energy = -155.94657836 eV
Ni 2.1550207783855737 6.051409350530088 6.3178337528744395
Ni 5.706199999553246 3.585796188343753 6.910937611959416
Ni 3.754472566465504 2.443724653832268 7.389131991476587
Ni 4.194082778977943 5.003085471868982 5.255210622326825
Ni 5.629814202814649 1.108688788321617 6.474224936550674
Ni 5.740138068822891 1.8171871082547175 8.705842493916819
Ni 8.088058687375373 5.977301387895174 8.248896930589881
Ni 4.486527994405278 2.5366342339728587 5.078819325536328
Ni 7.209043570734449 7.941904872495781 4.763828127383638
Ni 5.765474444810184 4.130357345729325 3.7351925052520434
Ni 8.067916770668301 4.6322558397992575 4.313309484879222
Ni 7.629753059076188 2.0112196325132405 7.349483984668302
Ni 4.859794275884663 7.1594708590720595 4.360888641734921
Ni 6.721739882335275 6.208821652314418 3.075669462536773
Ni 8.92837750043655 6.743941149439833 3.6657610845788313
Ni 7.137093178393045 3.815152142786325 8.856727179840975
Ni 7.6351842390100835 8.281044564038073 2.4191011270070173
Ni 3.5932871686120964 4.823762484593406 7.5944531359049074
Ni 2.8418025013482273 7.959873575139806 5.133781799765081
Ni 3.9598753722627347 9.488772174751642 3.7226060176882942
Ni 2.9609419416672607 7.6463214067093155 2.736285692976678
Ni 6.418131641216733 5.71113377664714 5.6298504941758845
Ni 6.228595429686848 9.720931508574859 3.6413634193150832
Ni 8.623105232693653 6.4310040897399094 5.9864301991388125
Ni 6.96026943191501 2.672854393409646 5.157837223811768
Ni 4.37537806483829 5.737469885448561 2.5683747853942664
Ni 5.222376542601175 8.974628988260601 5.720386855549406
Ni 4.7718666362939235 3.8189483832554165 9.266216415823328
Ni 5.796393762052793 5.663063508399874 8.111777368690436
Ni 2.3704798409855634 5.762461235189032 4.013153636636612
Ni 6.708996848698748 7.590193398812948 7.071568814085541
Ni 8.054811259108387 4.237699873108216 6.669556209518983
Ni 2.396986940395369 3.6823746711505922 5.7051037867399526
Ni 5.269806451809087 7.990115411472551 2.24609871494203
Ni 4.377959998711367 6.952228812252029 6.7236708785394805
Ni 3.3995121507788353 3.72743639569975 3.419894502015402
