33
Energy = -141.11273669 eV
Ni 7.577223054346816 4.177629976699144 2.321788656864875
Ni 6.327823888937389 3.546271383714019 4.24078680223708
Ni 5.362168423263207 4.949195965758226 2.5179030871857653
Ni 8.209446878065673 5.042582173685693 4.4525051821516195
Ni 4.985760736289197 2.988489510763945 6.104781729171788
Ni 6.822930957825436 2.2951235786291173 7.314726257420788
Ni 4.044218328806265 4.3703779983424775 4.406423370315282
Ni 6.653959217406916 5.553141374990177 0.6657657234160431
Ni 7.276963014131422 6.497378597446153 2.732781941552524
Ni 6.962396395001343 4.396747494826577 6.39343356973018
Ni 5.570082484938841 3.9170234130023007 8.350834165484034
Ni 5.9674582351978 5.896943646337466 4.668639056998873
Ni 3.8162455891929112 2.4229139258824763 8.046174408917166
Ni 2.800886294978076 3.8237512888345058 6.412961727344677
Ni 5.270018674371481 7.1605668873366435 1.706644523758907
Ni 8.774203178917574 5.956229785157464 6.606963129591049
Ni 3.9400204576165123 6.6393264906262575 3.5729206396873443
Ni 4.60339756360538 5.362631114746207 6.624874316894014
Ni 3.3486414073504593 4.685671587366702 8.56034026857292
Ni 2.6520694224901993 6.026071083556008 5.471260424410477
Ni 7.418982687471832 5.34866472244726 8.555302796542126
Ni 5.838019960007532 8.129176857470114 3.811582409346904
Ni 7.862944440670622 7.3931272027325035 4.886937123023499
Ni 6.536573834212091 6.830009844864951 6.895483367808347
Ni 9.204517051543396 6.85578988427706 8.75519153032789
Ni 5.153630392047959 6.203098945381316 8.879534953563345
Ni 4.423787142786004 7.634719559569059 5.690599827243151
Ni 3.1869178913135965 6.911967386871795 7.637540512940232
Ni 7.032074463126644 7.683072223946464 9.045624433203782
Ni 6.386253008593727 9.019218060018883 5.930307050776869
Ni 8.354980832519658 8.291432678912184 7.101073334967242
Ni 5.018767756945937 8.40646923418654 7.876268633358547
Ni 6.87148264842998 9.818297864615008 8.093658727554574
