39
Energy = -168.87809128 eV
Ni 7.328391467300892 10.547605411173315 7.995934793719204
Ni 9.00819322859828 9.058802953085488 7.1695777646629635
Ni 6.710441694132468 8.738251029524918 6.685000757949043
Ni 3.076600354120176 9.48059540684377 8.264532029163993
Ni 5.444321391854154 9.186806867484487 8.637595398800787
Ni 4.3673994969596075 8.582879148576499 6.584405114409208
Ni 7.765193126526657 8.60630943662655 9.163201940741878
Ni 8.315150224538314 7.692244428699365 5.198609637917008
Ni 5.816275427261911 7.6371173815125095 4.76787986300924
Ni 9.9484107652635 7.603428324010108 8.85068536327252
Ni 2.1494268014586417 7.6233720125420925 7.038373853318187
Ni 7.9703727748984186 6.8578796385235155 7.493249011017495
Ni 3.8697673414156157 7.34331573979632 8.599200763245205
Ni 3.3582517044081492 7.319900700621986 4.955373306114952
Ni 6.082172084981166 6.945693599429562 9.292076545705303
Ni 10.28047491954946 7.157908194727744 6.61908180928586
Ni 8.29391640048147 6.353281976852468 9.879319560930481
Ni 4.521415647773654 6.898522319220237 2.951072334461965
Ni 10.32970098991062 7.060769808689543 4.279132002411594
Ni 4.612987187426885 5.116423665970077 8.785653113382331
Ni 7.4105480335711 7.686403788577094 3.0367645224590287
Ni 2.277448261755481 5.576418867292824 8.616405987953602
Ni 5.604810140713138 6.52062022748917 6.9742745918190305
Ni 9.439827360183838 5.225631428799503 8.025674932742305
Ni 9.53316736699275 5.218111369881517 5.620300895720985
Ni 7.194055542525994 5.59062015729232 5.443008187643995
Ni 8.667646615551774 5.687911095470308 3.4655474164112756
Ni 4.792086637065418 5.466513101835223 4.81089795269171
Ni 6.405842297266858 5.609833974368646 3.0664230910002876
Ni 7.013138624063688 4.9072484659377755 8.470675784436898
Ni 3.3114064250422235 5.606891578019404 6.6032607211655066
Ni 3.29850502119774 3.543790154033715 7.617877936781386
Ni 7.945953326635825 3.770884280125278 6.634965962917008
Ni 5.495984613150406 4.06393589711994 6.846659027378602
Ni 8.556471874724155 3.5145445297905473 4.313750589558
Ni 4.735455419416649 3.9617170975442737 2.996701271215728
Ni 7.1508740640749595 3.560618243840988 2.482343717105676
Ni 3.861088964850826 3.4307747351440736 5.268805491701521
Ni 6.26611170288221 3.455708284051245 4.7049922763024545
