34
Energy = -145.19796239 eV
Ni 8.71396314727326 7.356011661979497 4.558346628363415
Ni 3.232060139673258 5.449466602970544 7.887762543049174
Ni 5.705317206097609 4.7796841539002175 4.210884484418141
Ni 7.409865424143037 10.402444008511393 6.680306993541132
Ni 9.026955564301527 5.716070786620882 6.280062059541936
Ni 5.322938460016726 9.302338886274953 6.7147808022268105
Ni 7.993579361989036 7.866443648197782 6.902731371338266
Ni 9.128663901622453 9.55892442860217 8.07256802905685
Ni 7.658489090383069 1.7888344214794434 5.843185464403485
Ni 8.038831983210882 5.1929890340193054 3.9735678330015114
Ni 6.459602998888748 6.985706220764227 3.4842441684941092
Ni 3.343034756003181 7.816250263561843 7.086876175132858
Ni 5.402253497018545 7.065310721767733 7.588706589317455
Ni 3.821078445688552 6.963792310936591 9.523618669552684
Ni 5.407053687680343 2.7500802228697694 5.496186769884603
Ni 9.229400057374837 9.391249750278256 5.648826352535762
Ni 5.27783608781793 4.688109680600169 6.869931570338569
Ni 3.574926424243878 5.803480233265004 5.636658400293602
Ni 3.3335498520923723 3.476454947544055 6.568869825441238
Ni 10.30627583198514 5.559115985226078 4.357320683845677
Ni 7.306749821081403 5.692498614065951 7.97777267763164
Ni 9.311985293138262 3.5080917799057563 5.024738448353798
Ni 6.8759695448689 9.141109643816021 8.592654693613495
Ni 7.211207771534521 2.9729100133593684 3.9595697771026246
Ni 4.584875508084237 9.001487445897098 8.909342104644011
Ni 3.600023668626083 3.88641929205488 4.314105085999198
Ni 4.127462813917605 6.205746804333203 3.390312049032509
Ni 6.7065330732215385 6.337078914895821 5.69863605381033
Ni 6.934784154490681 8.842638936003006 4.967405610909108
Ni 7.358399556065714 4.034947070813191 6.152552410061093
Ni 6.250779102194805 7.170694013371479 9.75319604019729
Ni 5.219771436249503 5.1331120368537055 9.161153934272082
Ni 8.51319430417966 7.47908384021433 9.118192778770432
Ni 4.82124571939699 7.694549753155628 5.1093991937308685
