39
Energy = -169.03654053 eV
Ni 5.929399558364154 3.611297542698898 9.048223246558926
Ni 4.1264779940616 3.554157947233445 7.337366651734121
Ni 2.739893018674302 4.063627363517888 5.365105957489039
Ni 5.735109139796369 5.115547274085292 10.895939086600151
Ni 4.270877163928887 5.233306327942725 9.09922227082631
Ni 6.35677281317271 2.6792067317873336 6.918611899271458
Ni 2.8416418824755856 5.594455288396902 7.277868250454082
Ni 5.05621376136681 3.486931178645662 5.082989975680969
Ni 7.997846502880034 4.032770666239031 7.879645683236325
Ni 7.329167776009151 2.7736591813054585 4.7478885037363145
Ni 8.631078181313914 2.179789204724614 6.602979240968619
Ni 1.6898002370796363 4.952050817691168 3.431432833327957
Ni 6.967245503675768 5.804775084055273 9.032880921492488
Ni 5.867486314964942 5.066293207798521 7.031937115811963
Ni 4.275035241527084 5.8148781822848665 5.420421248029549
Ni 3.970369840709987 4.656295081071754 3.2572504474403736
Ni 1.5272750575826004 6.131725592584656 5.418425675144169
Ni 5.374685217729779 7.223214434244756 9.913325535123423
Ni 4.610171920984311 7.080991638893835 7.723050951161057
Ni 6.164087457015408 3.767600786896187 2.9586106699353096
Ni 5.4361179434677736 5.3180067928092205 1.4076486027896162
Ni 6.717638644506139 5.230170185678285 4.780725756374346
Ni 8.812605921369313 4.327448807876041 5.660624868096545
Ni 7.52954236238712 4.280494804368056 1.1337926913948484
Ni 3.152181154643465 7.795034893366356 6.04609445472816
Ni 2.992771624327518 6.910143052533551 3.763165735860408
Ni 7.992874590087713 6.217215133639794 6.879091133748993
Ni 5.294988108630455 6.634671810266239 3.3155789317486346
Ni 6.789182409900424 7.96678924569044 8.046171945504323
Ni 6.0894044385545705 7.320387311538333 5.751553032179014
Ni 7.41849753796501 6.184747857493742 2.4688752697838634
Ni 8.501603718860654 4.317036193587372 3.314752276311431
Ni 5.027680843555663 9.189718923215777 6.74230083026852
Ni 4.646294599110496 8.596361629529092 4.39272465703896
Ni 8.660258924531728 6.484862320208991 4.545221765888273
Ni 7.070273440509497 8.114644123562472 3.761559354034826
Ni 8.121686465001526 8.433167089541273 5.958725764431697
Ni 7.142909358928919 10.121861521977142 7.30971215426377
Ni 6.496187468632601 9.96139515303889 5.089569592978843
