36
Energy = -154.66941511 eV
Ni 5.080273674089066 7.7495307106596645 9.877934385571162
Ni 5.719361682477569 5.854453956311699 8.65356938020936
Ni 4.370493817431652 4.008735053942465 7.8556923665844005
Ni 5.883753197365173 2.509111343408739 6.6090695366727035
Ni 8.37184003422671 3.733287843608628 6.58146806571397
Ni 9.766303484836069 6.617893568588455 9.115592849542166
Ni 11.455848940802596 8.169336515751823 9.659374191488235
Ni 9.248513381139444 8.673592186439695 10.287745597009305
Ni 7.3942056804458405 7.188698346013949 9.653758012403198
Ni 6.472509222098142 7.292211496010271 6.8070106268236135
Ni 4.460908892145702 3.904203934078096 5.346718671708546
Ni 6.273906235736935 4.7394031997612 6.72916470376457
Ni 8.032661313999878 5.834609464381972 7.82241517083865
Ni 10.004138230508326 5.583327026109035 6.684244850757451
Ni 8.774250102563327 7.5699016094485785 5.8486102260464765
Ni 10.389502476792021 9.858022239554908 8.471235341849994
Ni 8.143629474619628 10.48773974031276 9.095314713791955
Ni 6.2523570598698806 9.192932688253263 8.420546540420823
Ni 6.937693652328163 9.197902344817333 10.684497648134093
Ni 6.747581706422509 8.051445270136886 4.649910569026303
Ni 6.6907674411262335 11.276344587142948 7.422876147404031
Ni 3.394479273931041 5.760335473046744 4.373698207829356
Ni 4.149832699899285 5.952414087806971 6.584215132212937
Ni 5.700878539180978 5.8894774126399145 4.644867420307198
Ni 6.745636384926515 3.624267086280279 4.716710076502026
Ni 9.105827133344238 11.283269881470844 7.104996690897613
Ni 7.788858425871357 9.67861479550755 6.147891146461609
Ni 7.964871944210613 5.5744941242875266 5.233834023231764
Ni 5.474695467342205 9.545876437245369 6.19610890740289
Ni 10.184316735815523 9.454661990823931 6.041799646369462
Ni 4.378907799392385 7.781011849062936 5.1492135837872635
Ni 4.309294895847976 8.024821563193282 7.640270049383923
Ni 3.462178962430669 6.129000239012838 8.862106266143067
Ni 10.884165866160693 7.2377689367042155 5.1408795879737905
Ni 10.93401786872242 7.69886710416695 7.420002518366119
Ni 8.5935338364033 8.414776891536482 8.007734125270478
