32
Energy = -135.58212409 eV
Ni 8.038269208754668 5.566352341794877 3.155506192354415
Ni 8.488833595970737 3.745483892526687 4.776741457002299
Ni 5.7927802343626 6.055036980906507 2.4059322618632932
Ni 6.282201104268967 4.545511110696894 4.268507592966586
Ni 8.162213682505174 5.898381571900299 5.512775765549581
Ni 4.690706585780545 8.109872809638395 3.4432290511459596
Ni 8.829234635846882 4.37088515801864 7.071524925922168
Ni 4.4053293480182525 5.8913029025669745 4.23799167675136
Ni 6.690164611744296 3.4650368946504524 6.3362842541882
Ni 6.620355898630579 7.116094840441176 4.243327490810082
Ni 4.361617126542718 4.078680638040777 5.804834212957096
Ni 10.008533504892078 6.750591346314304 6.457352512877501
Ni 6.856124499841221 4.6476560402190525 8.335624495971599
Ni 8.60177001943376 8.293505462718597 5.109838447663469
Ni 2.933605318761452 6.100481723455633 6.000210222061721
Ni 4.991676853230355 3.379690567749015 8.057622322298085
Ni 5.858176220572724 5.708441931829023 6.3712129439196845
Ni 4.622230371513127 7.723617835998913 5.798000650912671
Ni 5.272890804433425 5.3220636878954775 9.920331285190283
Ni 8.233251107117242 6.499322952150469 7.996993611652876
Ni 9.113342436451083 8.658709256135095 7.466244693825586
Ni 4.050520795971854 5.448985390397764 7.861307650911777
Ni 6.237967384134034 9.349170861590437 4.881540114856053
Ni 5.708376316659849 7.0208721306082955 8.394022198735872
Ni 6.260307228947987 7.6483255555914855 10.578660871730392
Ni 7.631635714308306 5.89629626266326 10.140059133953455
Ni 7.560072617396151 10.201895273159034 6.740394621944909
Ni 6.894307557377082 7.891274362112663 6.571520879754748
Ni 8.680712281239073 10.37236931640395 8.919331783344337
Ni 8.538874090297625 8.090584839152713 9.789265772656927
Ni 6.796809731136787 9.058617169519763 8.734637640225284
Ni 5.24156119212317 9.549340971416187 7.0736253422648545
