30
Energy = -127.04863871 eV
Ni 4.223181252022023 6.439509434614718 3.027566874538914
Ni 5.491013149861374 4.577129062172572 3.7345086704674944
Ni 5.085181915990942 8.650666760953426 3.126799775775883
Ni 8.54140368298566 7.3455188323560545 4.016744866374923
Ni 7.216499916424402 9.324546561207502 3.9222073654065492
Ni 7.739976715342288 5.0487052705977735 3.9854669594584493
Ni 6.845330393377201 2.918139897111758 4.774565192990605
Ni 6.23187561964348 6.91482448137054 4.194259933273303
Ni 4.002527022968957 5.52056592932133 5.187770874186964
Ni 7.183351096416864 10.56154312012038 6.055924073074019
Ni 4.554147533612129 3.2935021629270564 5.608532048327655
Ni 8.825925442195976 3.9062015981120513 5.725490345157451
Ni 6.345675503449439 4.630914305515969 6.337629567735375
Ni 3.689291423322352 7.821664651698169 4.893061643695185
Ni 5.396490197360991 9.306289575062442 5.3675147798491984
Ni 5.755147296623993 1.351947283297296 6.179492164207729
Ni 7.555356478451116 8.28724423606937 5.96489578668188
Ni 6.0969718379499405 9.059352464108906 7.642447384345537
Ni 7.513208910721845 2.568075220651071 7.096890080010647
Ni 2.8699307528912126 6.794693379545073 6.901352249580826
Ni 4.174421431007504 4.995070411305949 7.462650932794188
Ni 3.8259111706586726 8.869711170578986 7.076353190301793
Ni 8.162356237000129 6.122528017228949 6.00565754064914
Ni 5.416861014377666 6.972309671533767 6.444955028977304
Ni 6.0157126947943524 5.093832126746614 8.890728678934137
Ni 5.355798527867874 2.9780134584281988 7.848816207979695
Ni 8.16324694633874 4.7515264812723945 7.911842793798443
Ni 4.743450634219476 7.154264780657789 8.596936702320091
Ni 7.147809827477308 6.960519865564088 8.022214440656418
Ni 7.167103139334739 3.1163475545582626 9.331881613137881
