32
Energy = -135.5938035 eV
Ni 6.048816531905383 3.033591462927388 10.319602815940426
Ni 5.649649215938146 7.811802267353815 7.9675955879655245
Ni 6.327346872644336 6.193098888324514 6.078752784006952
Ni 7.628719243306891 4.762624860340251 10.280965428367985
Ni 5.705984224309169 3.974812625900358 6.4511742658775
Ni 4.359682090469995 8.993535203200462 4.106900638607424
Ni 4.383867426356996 7.3950254807295 5.889592064873999
Ni 4.730690069623112 3.4389084985401186 8.443667996616316
Ni 7.166968190545501 10.859064656374857 5.743747506546104
Ni 8.817185723706638 9.24658491932527 4.82724203479777
Ni 10.029296612466238 8.614751862041327 8.720123163967891
Ni 6.765552719899229 5.539770738487892 8.28926829455391
Ni 4.479228925379317 5.712756940566197 7.5935087600590725
Ni 7.974478036107902 4.608210023179243 6.296756477657719
Ni 6.566429675707323 6.995793265638128 10.171616706126876
Ni 5.1713405465958155 5.1629945869152305 9.915798481526089
Ni 10.051008681996992 5.596291175806597 6.200131701005238
Ni 8.46374293083182 6.993127373183317 7.373783934486045
Ni 8.722996450237309 9.742501932461671 7.133465117202268
Ni 10.75267850550198 6.49752772691135 8.205447085527995
Ni 5.152836605007614 11.200360740342965 4.510398473943229
Ni 6.094065093733703 7.3543579821763485 4.114406847596075
Ni 9.111163529835279 4.746052613053545 8.357216713628294
Ni 4.970388490077033 9.643167991178268 6.254370405535835
Ni 7.156850689072319 3.2897429018439395 8.25867717193253
Ni 8.39606192850072 6.845903478511381 4.974031707737705
Ni 6.652400723009253 9.559934892967 3.889035492047189
Ni 10.22571248165857 8.010910767889708 6.318538258127989
Ni 6.461558430360286 10.190076328697092 7.93376454929944
Ni 6.954557424371414 8.495075177044917 6.064298163831098
Ni 8.904970877337103 6.688451833440957 9.720819898455213
Ni 7.705329848907461 8.57907499393319 8.955765063539806
