33
Energy = -140.58664181 eV
Ni 5.207401089308182 6.428069262448752 5.593555246141244
Ni 6.949872947523627 6.552732199767118 3.8906659860442634
Ni 5.551537930672955 4.3580398076582005 4.3383286441405815
Ni 6.929210794478698 2.957163215255236 5.6803866103363765
Ni 5.145994468022504 8.324345076465375 4.147303794641122
Ni 5.520368228176685 4.601805907983471 7.145264461929821
Ni 7.374188204171783 7.614968502443309 6.111385247333743
Ni 8.190842621670836 8.376179017767445 1.7966677698007445
Ni 4.403747086055198 3.0146009239129006 5.933984953355941
Ni 4.449589277557798 6.232758505533401 3.2823866246562785
Ni 3.6477328075722273 5.430941101728465 9.232935357970888
Ni 7.091630007783447 6.256356932679407 8.144949114201546
Ni 7.432455788881354 8.799615764515565 3.8965863828442444
Ni 7.813812629147869 3.98932951403952 7.771988815251832
Ni 5.6855203749615235 6.628431900122883 9.968027426835528
Ni 6.0618900835721625 7.495883130458335 2.0231280610948774
Ni 2.5913420084054817 7.261443090396828 7.447986422092645
Ni 3.029339651593497 6.920789043964448 5.099134664981106
Ni 6.330664076567161 9.642278345875487 5.791684012123784
Ni 3.237599595281571 5.122650029975749 6.793483156455858
Ni 4.77844836500519 6.827214387044289 7.9073688772510975
Ni 6.193860713268664 5.058691069499969 2.1456296788626172
Ni 4.353259436202162 8.525409954265635 6.382696716842806
Ni 9.135388559350778 5.912359799627998 7.007353534995194
Ni 3.9125039397103425 3.347274441942579 8.289546549085452
Ni 7.885814796853653 4.308856640943635 3.7341150825618405
Ni 3.234980034375717 4.588800764043635 4.508664107884878
Ni 7.335219585993088 5.283811787895066 5.794529895731139
Ni 6.267664745344391 8.5630994832139 7.958818065361668
Ni 5.924374455842805 4.353246168384391 9.373797700480212
Ni 6.006712112840097 2.416588706619437 7.800286266332642
Ni 9.155084340707281 3.8633356585902088 5.75292218261698
Ni 8.24795235985773 6.104749552195622 2.079251887745921
