39
Energy = -169.30167536 eV
Ni 9.204608529148622 7.551996813735706 6.871289358385215
Ni 8.041912242929008 7.177767189161382 8.844234384014865
Ni 9.03679515479873 5.385094563042977 7.789205782185897
Ni 7.1389672962885955 8.625795335243868 7.118684027534567
Ni 10.147138222820452 3.983942511492719 6.208706721022776
Ni 4.920015720606513 9.4936731393009 7.622094301314366
Ni 5.791125141563929 7.4522491090626195 8.600588984609855
Ni 8.90843947880712 5.760123396420231 5.415479467985257
Ni 6.699764830003105 5.087112775993922 8.600220546629856
Ni 7.814064705066529 3.6894275391673106 6.872235200658532
Ni 7.832617198878918 7.852897875932687 4.9460300105883
Ni 6.879854819901839 6.246956505782569 6.545620625928162
Ni 5.9603131848772035 9.409483181365577 5.267663039120634
Ni 8.934133139750486 2.1187782794541983 5.518787915209592
Ni 4.800634119150261 5.961020206514919 9.985945429449213
Ni 9.06336956746156 3.9563350725399893 3.9656817187751425
Ni 6.890188264764091 4.28250876892972 4.800858902567306
Ni 3.4980073658542903 7.602537476738658 8.493392531434356
Ni 4.065646612268733 10.676208905795734 5.760356902210042
Ni 4.462466913904607 5.565950229790228 7.7716501100322795
Ni 7.736313256658132 2.030187859084934 3.5161634051352566
Ni 4.82108197276932 7.602588070500281 6.327889688350072
Ni 2.785426222820638 8.890043979259563 6.5904014283353245
Ni 7.300227466693264 3.963628900790257 2.313355158239158
Ni 5.481443176974894 3.647034123253285 6.955701256803517
Ni 7.616868944310751 6.0183054852927675 3.4157114930853387
Ni 4.8325555474953825 5.350000817128691 5.405689507204178
Ni 5.710419536272811 7.285023964864959 4.112725278934721
Ni 3.805984134996164 8.726277564127278 4.46343092759896
Ni 6.58076218730799 2.0408100426499964 5.560256260074382
Ni 2.68690027807918 6.499841997246494 6.486223724614081
Ni 5.509648843777159 2.8709826858714713 3.5099901410715657
Ni 5.3717522996942275 5.210177160339955 3.0290749104842623
Ni 3.1027542573334497 4.124259999133699 6.3831594717768345
Ni 3.43947501762949 6.4562582160144535 3.8666169397177317
Ni 1.6696771765272904 7.712283720652637 4.793470027991585
Ni 4.256986841604634 2.3268089725006833 5.422502859055091
Ni 3.4696560698746826 4.000928097302976 3.9692375409636043
Ni 1.6550757763212807 5.287770984505227 4.802745536893827
