35
Energy = -149.7043129 eV
Ni 9.944091404614685 6.621716491576108 3.902278652748439
Ni 7.363204685856203 7.489786792392303 5.605998130585731
Ni 1.6872933461293116 7.85712721789124 8.160331946399468
Ni 6.505959861404563 3.653602894939023 4.657017869762079
Ni 9.978073531232546 4.118591563759242 7.8585893452558855
Ni 6.0181992601775045 8.968576088011416 8.938710222274388
Ni 7.219546792196623 10.519622096624591 7.475128644541134
Ni 8.12469392592725 8.386200314280764 7.739746102564919
Ni 4.474915228367033 5.265385511102728 7.928272857637029
Ni 6.208615793077253 6.9653382882812185 7.682646731105344
Ni 2.8642317990231914 6.258223452250559 9.315362107614362
Ni 5.675429027503806 8.324893929720481 4.185793238030462
Ni 9.218340512403223 9.840646415204867 6.348619821358848
Ni 4.337947266317577 4.662152551501141 5.634428876556254
Ni 7.215803602184867 9.950671272539502 5.154053451078188
Ni 9.025547036929886 8.755231179673853 4.2460776158372795
Ni 5.108280903249951 6.934672893791096 9.859297378544035
Ni 7.6118820868888974 7.179812498079415 3.2383370774776705
Ni 3.9772658656572224 7.952866241779611 7.987892075194831
Ni 8.463484028989866 3.572290690056339 6.093242844437826
Ni 4.367326247765198 4.723596132629589 10.206071103647421
Ni 7.532417212967166 7.154471594268804 9.6325340966083
Ni 9.689147334713615 7.470004305380258 6.108541395484175
Ni 7.754579300272944 3.512923198347573 8.267154227804035
Ni 5.897381147800003 5.885038184440952 4.28984308764334
Ni 8.77275530349037 5.1002190777548435 9.681401520902742
Ni 6.4531242331498575 4.837482172689777 6.612734960443022
Ni 6.457276145426247 5.084512252564534 9.213517660147357
Ni 4.646101013896446 6.980826801023091 5.875221288839534
Ni 10.223927860240183 5.236321902760547 5.848072078668064
Ni 8.458250501985685 5.9098509466200895 7.5127987271082155
Ni 8.17042337716247 5.408076409668038 4.7379851776979764
Ni 2.662250981068884 6.241665664458772 6.853920404130819
Ni 5.623518222458418 9.020963364853122 6.599568138411201
Ni 7.260416255283465 9.49239604281556 2.8782538251658947
