37
Energy = -160.74075408 eV
Ni 8.011558274029916 6.994151330385857 2.907736166585122
Ni 6.118254806293943 8.304369022802444 2.756085972007842
Ni 7.751459217523641 8.658717258831718 4.6163300884577465
Ni 9.063638617416123 8.389327879748743 6.66909394995669
Ni 8.742750838597557 6.590123438517747 5.0953000970170335
Ni 4.322332641063505 8.564020209294725 4.162627706901305
Ni 5.869847905457829 5.849758402446987 2.6028729572930756
Ni 6.968538654979289 7.430821964187996 6.831841095432824
Ni 4.010500910332636 7.210116434720601 2.2104827293923193
Ni 7.594992900470629 4.8697465287056465 3.87533873974934
Ni 6.107369096745793 6.914342353541094 4.671725300866311
Ni 9.1966827590548 4.206166510202598 5.590239357293671
Ni 9.122040497428733 5.928151201326784 7.350425728082983
Ni 5.848852837633581 9.29278255109286 5.783268715479981
Ni 8.305393549799405 7.687371208572178 8.791299652986476
Ni 3.783006114181058 4.737870126493702 2.602061829008362
Ni 7.05878119328811 9.501380231742687 7.828455841163214
Ni 7.199939422113296 5.163590452403688 6.206163202539228
Ni 7.080927856807173 2.9925426665397916 5.224553201581633
Ni 7.863067734135365 3.487562439845068 7.578608290181671
Ni 4.638676215553207 9.256610007622163 7.84734922246617
Ni 7.215483744299387 5.576766267503973 8.710548163978975
Ni 5.217501401087388 4.671209655063922 5.071319466800892
Ni 5.755493264106992 3.5046016197040144 3.1789597041113544
Ni 4.34692467151022 7.540653295435695 6.322196846029617
Ni 3.678197813817316 6.303104975401856 4.333268250070566
Ni 5.900869325007 7.647792936683176 8.910958177808796
Ni 5.233662867400633 5.627540309522947 7.403895314031366
Ni 4.841227771109132 2.2469647524899763 4.968591223074802
Ni 6.022930198839893 1.9883227085239104 7.048462764598564
Ni 5.726140110461729 3.6982203359002623 8.659375756620491
Ni 3.5866415048976896 7.026459252034526 8.473191031092941
Ni 3.0804883962490583 3.93091642136492 4.711119898343289
Ni 5.120493483087761 5.655731554973449 9.88458460726701
Ni 3.064096449549996 5.531360190443399 6.52679194364025
Ni 4.152113559209601 3.418693558852005 6.859170755769854
Ni 3.4054722597458267 4.608488810361834 8.742055115603351
