35
Energy = -149.81583638 eV
Ni 7.332265122385593 10.647810756386495 4.768228125430968
Ni 8.36756856289827 9.127992816530602 6.331615660218038
Ni 5.211456679859743 9.671231319469328 4.0630792121871995
Ni 7.096088549686999 8.355449435582061 4.489558928395498
Ni 6.028091971517274 9.664108687497336 6.358506090050257
Ni 8.842582149940318 7.231197682706688 7.693903526863267
Ni 8.848768953389415 6.939982340818807 5.393714262917978
Ni 5.249491372619464 7.309653538003192 3.3966927366740314
Ni 4.622284322788554 7.956417419593841 5.5717387303776436
Ni 6.723074518574666 7.384982681410325 6.715283507585947
Ni 6.9985174013587885 6.030534132675896 4.355618820747436
Ni 3.2270845753540165 8.390319302804919 3.5214012625871143
Ni 4.8674851449705185 8.238952238931502 7.899419547629321
Ni 8.767824901509513 4.543392129088475 4.799612632818844
Ni 3.3540579223089226 6.179995987130625 2.369908153051934
Ni 7.750354690324783 5.217912357970673 6.7482737781219235
Ni 7.564836902879191 5.826576860677732 9.002494118021804
Ni 3.1626324614964716 6.353565148196938 4.662217656272588
Ni 3.3781412675779388 6.573743948997759 7.071643593926741
Ni 8.030237881337996 2.7928738721006874 6.314414096499449
Ni 7.976993077259007 3.601194915056516 8.533995080522047
Ni 5.478280645207832 5.9463682659783075 8.159623107299936
Ni 6.532501377637086 3.7470378180921227 4.812089704046568
Ni 3.8778574164646096 3.871263470877011 1.7708593320382715
Ni 5.097208662913253 4.9706691091387025 3.395700557124872
Ni 5.143105999246484 5.530981900155458 5.811258729736247
Ni 2.9132074043106346 4.1579289220584705 3.8312537868430407
Ni 2.2280969222607343 4.747742966396482 6.04886909273339
Ni 6.788947680652932 1.6174262286428518 7.954453931276103
Ni 5.981757815179605 3.7284022763425106 7.353322007748936
Ni 5.82652984237217 1.7480897076659667 5.767817169874463
Ni 4.796044881110728 2.6201230369956097 3.649204712358207
Ni 4.077212656372576 3.3462935870943786 5.73970445954547
Ni 3.743207369547044 4.349122894645232 7.8112843407856065
Ni 4.424296977147637 2.030126523041771 7.679973817014028
