38
Energy = -164.42487105 eV
Ni 6.417967705554795 1.985796172982378 9.090489720495034
Ni 5.758207731920576 4.303987180381987 9.06282687683756
Ni 5.224354451481841 6.57511311440148 8.422607559212906
Ni 3.883679682971721 4.822590426548137 7.550515810572798
Ni 4.7642112564275445 8.830210754499372 7.668489682519091
Ni 4.8976773234200675 2.696782129392209 7.481885112349804
Ni 3.400068023700753 7.059602796542603 6.850402417773503
Ni 7.032763848168528 8.210437135322293 7.856543194785773
Ni 2.04946541434837 5.224560415806123 6.038498443964112
Ni 7.5524429843506375 5.9621222217765055 8.397671953157314
Ni 7.99793055642765 3.659331576672017 8.800731456916024
Ni 3.24465375692337 3.1841568517420122 5.861310497664457
Ni 7.16898900005259 2.587875678421245 6.907429317012235
Ni 6.250768441367195 4.820769560398379 6.832993680442857
Ni 5.723044265555239 7.166559027237928 6.173983296218872
Ni 6.433500268704096 10.398768138583721 7.126355714700121
Ni 0.31781911851093236 5.654367077824465 4.477988922004055
Ni 1.6597857521193895 7.4054862210346935 5.251178822163621
Ni 5.134274367087648 9.373420829490337 5.428297106525164
Ni 8.149971433286874 6.798990246243899 6.224499177418028
Ni 8.618363309906082 4.544204960582745 6.688482382818152
Ni 7.422868497423197 8.956969738725526 5.580723076078264
Ni 4.399636347414299 5.303434665261321 5.256486590052769
Ni 3.8717665348845163 7.581478122179556 4.532471532000152
Ni 5.522590733907891 3.130273226474643 5.200637935139306
Ni 2.535004408600323 5.766399272187969 3.725445918182283
Ni 6.800576770514913 5.527442299511785 4.639366693362703
Ni 6.131093477579456 7.778315509372556 3.87580995376203
Ni 1.5688783236781265 3.6862127881186035 4.281789710750705
Ni 7.820104073015108 3.3758549780186673 4.759841083317251
Ni 8.479527082573851 7.539497537515138 3.981086004327973
Ni 9.190547349414679 5.375542122785759 4.541136862284315
Ni 3.8508634349094106 3.746990628826506 3.5627818304529204
Ni 4.856362050452893 5.956343007756436 3.001413036101715
Ni 6.170446930056737 3.9444775472708447 3.0327587403443164
Ni 7.223948063599469 6.180388658472688 2.448543552837905
Ni 8.496031789259693 4.225554942670726 2.6350685736723447
Ni 9.594857923863806 6.274734922399876 2.366500245215632
