33
Energy = -141.51914254 eV
Ni 6.709473010700704 6.314487898350113 3.1519217903913215
Ni 6.365885874157379 5.430669239228292 9.72612636127375
Ni 4.430430834256845 5.888846980621301 8.492628853339363
Ni 5.3558507056071445 3.6256772214558075 8.620964361372174
Ni 10.401426686116777 6.456019704627954 7.399932299798089
Ni 10.452152680982458 7.93988551108459 5.479428555703109
Ni 4.296422079186375 6.605099669711318 6.267555003536214
Ni 5.4959460756247065 5.019923735722664 4.817454451055879
Ni 9.60073475442004 8.852826131994902 7.467305883869909
Ni 8.89069583055031 4.5879741675727885 6.86795908085431
Ni 8.442620875432205 7.551326813717748 4.23851445504262
Ni 6.130083723581551 7.478619825905966 7.657959853003157
Ni 3.9058792691346724 8.197402401796339 8.135525762531604
Ni 7.797235863901143 5.253534314922642 4.943944666313681
Ni 4.9093073786951145 8.899534106009929 6.066282656352599
Ni 9.008419994848648 9.698710056211045 5.1551887221991555
Ni 8.379207342234743 5.987441210638875 8.728993043994128
Ni 6.320115515183082 7.208915998589713 5.242371527159773
Ni 3.8161946120348165 10.478881527638993 7.334835406307464
Ni 5.8842374986941826 10.97951691307413 6.209437792256214
Ni 5.7381795782384 9.738295987067557 8.37387367957911
Ni 6.756054149536706 3.3269008551146255 6.213817990850321
Ni 8.33693900565947 7.052183116716846 6.5921755719886885
Ni 5.590735093205907 7.725376384173276 9.885675564865414
Ni 6.723040363227513 9.391999406548395 4.490790240113328
Ni 10.067748397839312 5.7091170737312895 5.141139456949279
Ni 7.747795268230598 8.509252253049247 8.973177989749548
Ni 6.465439962746164 5.281968488285302 7.168490745352079
Ni 9.843532158818038 7.591143665408295 9.460211235423811
Ni 7.400185256462537 9.302605120760711 6.720354564654595
Ni 7.751807226646236 7.013465443707197 10.742883279778644
Ni 4.35642465748544 4.2352756712312365 6.657611607310293
Ni 7.647843639329091 3.685168468099276 8.59351290979871
