35
Energy = -149.63245848 eV
Ni 6.946318790460064 6.947183271756816 5.2774241997715565
Ni 4.526366352205399 6.9516851503577355 8.354091239047182
Ni 6.954595515755471 6.949933610853646 8.978572640263163
Ni 8.154029606612559 4.8413625395804525 8.350723667862392
Ni 6.385601507886462 3.5145599138224055 7.097289189635194
Ni 4.119936711782203 4.804159657277288 6.599652907643145
Ni 5.871338765806553 4.8975511250061885 9.361523020233987
Ni 7.573624044734662 8.263944009806528 3.5314935707908925
Ni 5.677215285530369 8.970297343522434 4.915082063047147
Ni 8.25742269729382 8.982847582760623 5.869218996190353
Ni 9.337559733324467 7.038906383035141 4.923461821572784
Ni 7.780543491977358 5.751165788688113 3.5333056926618567
Ni 5.50147941774739 6.8279540295606695 3.526339945753988
Ni 4.531341689021574 7.061520467438538 5.863903688905465
Ni 6.267359750700344 8.220478332057702 7.143721051983619
Ni 8.384646885992252 6.898415550576312 7.140874844337374
Ni 8.049457274105793 4.793306439038857 5.871739342968403
Ni 5.836478195049158 4.832042965380589 4.914148593798337
Ni 6.185298393576356 5.730071776612751 7.144700702938313
Ni 9.279815997077218 7.051574655324511 9.344512142607064
Ni 8.151283717081668 9.061008616906298 8.347332907600956
Ni 10.20741970605687 5.558092646678846 6.617204707020361
Ni 10.188946743180507 8.200278674721208 7.108450764066835
Ni 4.243970106858302 9.137281622096346 7.085875022721857
Ni 6.5088902509158 10.469199972592133 6.600644768074289
Ni 5.718870832023511 8.912356330253976 9.358976299469816
Ni 5.514689966190941 6.91134068199169 10.708417095368887
Ni 7.6522114291135255 8.232473248204048 10.697158829894285
Ni 7.722739178532947 5.730233667260829 10.704367459897504
Ni 5.140689954831912 10.840128853298491 8.384194142621014
Ni 4.4655119722555385 3.4440510207661448 8.396408090018209
Ni 11.24397292874203 6.576058576804607 8.377469933855584
Ni 7.374345125813165 10.492762231623926 4.366314420256828
Ni 3.6759274734499883 5.529939064014523 4.364052888386977
Ni 9.80858891357476 4.81432260984752 4.379841758252886
