39
Energy = -170.16740029 eV
Ni 3.9980743515676846 8.223486301317232 8.08658549385335
Ni 3.3082091559329916 5.903573574567205 8.457364330231222
Ni 3.5630084255428596 8.944253031844351 5.851595742170125
Ni 2.2612991590372107 7.168720556633495 6.7503196926054665
Ni 6.031783264969907 8.96701636840552 6.030923971451747
Ni 5.541655309454514 6.518768712085838 8.704618290272027
Ni 1.2609986832497793 5.066148221813725 7.441964118605499
Ni 4.785386272739333 8.514343392650984 3.8887002430298154
Ni 3.427360921265497 4.991596921324504 6.277869625384443
Ni 7.066766126219447 6.978595501719383 7.031678328738385
Ni 3.163575967471144 6.913765174933453 4.556308733695845
Ni 2.7927826111498315 3.5893267637612447 8.283602879430667
Ni 4.738719573534127 6.958034584124502 6.33455821507202
Ni 1.3308177553645937 5.5389182969764255 5.201068292025465
Ni 7.122565328198616 9.23800049623895 3.896584835170112
Ni 8.461233657335173 8.045235101467268 5.504309116258722
Ni 7.45972770987764 5.034822752941936 8.50102453564877
Ni 5.837889026806328 4.895025964798847 6.881733612348563
Ni 4.996005406759487 4.218294539868863 8.940377406500437
Ni 6.555151834283678 2.7851683068860265 7.96296155856461
Ni 5.17397417062736 5.072281889270023 4.550980779846492
Ni 2.2281210669169207 3.186467593299641 5.770008794789768
Ni 2.9723787180475423 4.640908642075716 3.8230890698666493
Ni 4.410605252250638 2.843419478133489 6.838901366990182
Ni 6.460937832270339 7.110019364623833 4.620460712216926
Ni 9.10222716295554 5.927479741088186 6.722945051938212
Ni 6.406139161304354 2.9383745577722826 5.604179089393432
Ni 6.270764915359197 7.884812639877881 2.139518211532561
Ni 8.367971621033105 7.286582015926114 3.1875081832354373
Ni 8.394746611761684 3.6280913518922344 6.775177149248103
Ni 4.468133600027417 6.386604124580504 2.7071498910268876
Ni 7.626221323734819 5.08492172012355 5.075667176802815
Ni 4.337094652243499 2.8539804934642583 4.462486364676363
Ni 9.964766979216904 6.444521750261262 4.606459307661468
Ni 6.557227697493343 3.4665471302899458 3.343714350223185
Ni 6.726751324440181 5.679543071608235 2.7163794340942378
Ni 10.096791943114729 4.251120496580832 5.274904891592432
Ni 8.486545573800854 2.796150229832787 4.49139700058796
Ni 8.893843807402426 4.8160813766161725 3.1814852927640715
