38
Energy = -164.72200321 eV
Ni 3.773425242804426 2.189338659070795 7.380546281944683
Ni 2.144931308237008 5.914888600368346 6.6978655138116645
Ni 5.026363101126419 2.6038361717565857 2.8425503053019616
Ni 3.2069884695717183 5.74816378707259 4.472491310239231
Ni 1.194385870356531 6.833259815144137 4.375067890633051
Ni 5.182143303534967 7.047054136447778 4.378091700311415
Ni 3.5286752821303877 6.494862359722484 0.829226801158015
Ni 7.071721866124506 1.4725733701201251 2.445991327605269
Ni 4.565770912232416 2.2595390855179303 5.12065876114237
Ni 5.308159088405048 4.435351730199866 4.5056807254787605
Ni 6.824094090683173 5.91183116697754 3.1452402858213575
Ni 1.411729531218673 3.2917343650125104 1.8897464918795557
Ni 3.2106402537196326 7.542880300002285 3.003737322824044
Ni 3.2489800206787436 1.8746769674403505 1.445881716822969
Ni 5.40088355457661 7.367492900222184 1.9366922639431892
Ni 5.044859317680992 0.43643884758744944 1.8530852248351037
Ni 6.879520614663748 5.630335525939997 5.567644423973674
Ni 1.9846727905478987 5.471509080272255 2.4665886800805414
Ni 4.66328633065663 5.97692963840685 6.4459521292860575
Ni 6.00524177933051 1.2888045201326674 6.541222295323883
Ni 2.181209143506452 2.039322933281091 5.437744914836139
Ni 4.501776755132227 5.293712499293608 2.5655890144810094
Ni 1.2310229828387302 4.416679869807515 4.839424742223355
Ni 6.88936879495754 3.8050059429298457 2.32649633276507
Ni 3.4526660231567146 4.094005159120259 0.90020838392581
Ni 3.673463293131713 4.529247872608008 8.129924197335615
Ni 1.0521068823061162 7.900753203711487 6.397671829072421
Ni 3.168717971008811 7.8185783950271235 5.492831342565826
Ni 1.6151855580580479 3.576225551930044 7.276215931194371
Ni 5.658984010630088 5.111490679400063 0.6540379967342178
Ni 3.3624062173132985 0.9147166166321182 3.5993316945583502
Ni 5.682718246967139 3.7445332495247006 6.760448000470125
Ni 6.871301640103943 2.6701610945665157 4.618019678576093
Ni 2.9797752274376235 3.4383926229212896 3.5562002047834222
Ni 5.556313160164579 2.66003940897445 0.6640312936606317
Ni 3.3618618762796926 4.0220756468488945 5.927240127778889
Ni 3.895282525293741 0.22416711456407623 5.865298563748937
Ni 5.734042165413803 0.49406631342411683 4.189999500852731
