36
Energy = -154.43751421 eV
Ni 4.529329041908288 4.375461197414083 5.845270159551386
Ni 9.087856742989494 6.227976191235429 4.618352439810569
Ni 7.76397009353478 10.658778381628373 7.545690875518645
Ni 10.777267984479018 7.492706109067619 5.61822717341751
Ni 3.3188232070776094 7.639458268095759 4.660793895472833
Ni 5.9203327426154 7.353207352452291 9.97533400078113
Ni 8.550471910364202 3.806949936705617 4.759371574835794
Ni 9.009003084075168 9.065887141114088 6.313323180904271
Ni 4.381700304216177 5.81486454196679 8.855171927615894
Ni 9.617446498197758 6.934619454919372 7.549339334619707
Ni 10.587338116305729 5.177293869160021 6.03641859193996
Ni 4.158264477741148 8.898869161361809 6.53501357466384
Ni 5.759914970906158 7.556555119734003 7.760811634849454
Ni 2.639426133133699 5.429113612694501 4.953203715021155
Ni 7.59228445664335 10.019136988920405 4.416242679578436
Ni 6.69687760112058 3.298385306089815 6.243385092199243
Ni 6.509858671738389 9.275831364730081 6.271481681995632
Ni 6.875155268664819 5.3791601993490294 4.795898017908684
Ni 7.204787986443413 7.732153880997648 4.099451953317994
Ni 6.097424494630225 4.90060013158506 10.0468983236226
Ni 5.040934165130093 3.579994831739681 8.14292221948215
Ni 7.395053460748506 3.655890238163294 8.514953884312234
Ni 5.703626386364345 9.709247635525333 8.523353424518103
Ni 5.940158717060796 3.476047135865819 4.04962941768425
Ni 3.5298063389741334 6.512454285972318 6.814679362945531
Ni 7.66760299909938 7.0691236669331605 6.341609582231774
Ni 3.798867034591984 8.127219763724481 8.76607630950915
Ni 8.486729393192846 4.861583125060644 6.834586353480459
Ni 5.980029435292229 2.6141837246540596 10.004243041702807
Ni 9.393770957176395 8.550393784009476 4.097684966227461
Ni 7.851126186626325 8.478663682175137 8.40271707758906
Ni 5.2270708194567295 9.115283939403763 4.311405764902869
Ni 7.700049755197148 6.127883365280331 8.775059367205968
Ni 6.114338150841317 5.387896644895222 7.204470624110075
Ni 5.375264033766396 7.068014060615867 5.461202881687869
Ni 4.670373958349566 5.581447485413371 3.808061473439824
