32
Energy = -136.62772742 eV
Ni 6.819209132503226 7.927850955653466 7.7738100021086165
Ni 8.088361680246098 7.1163350427228 9.582525642527495
Ni 5.716857665053874 8.273467668298636 5.732041767774026
Ni 6.025936086256069 6.073028035668529 9.144035977737508
Ni 4.819327980008376 6.615095661092533 7.148026756851335
Ni 3.984570861646112 4.893338978183345 8.439709674188878
Ni 8.044711237776044 8.382546784071335 5.7697491617691865
Ni 8.214118443413307 4.914992867682695 8.874948389206473
Ni 2.4957633144767257 6.540858177313472 7.235269939877646
Ni 1.7118432229928213 6.114492730251318 4.943214725114525
Ni 3.6638642653630953 7.253218602340855 5.148297852515865
Ni 4.761607330792805 8.637255419704683 3.5869037214756387
Ni 6.064892893583775 3.771192943920771 9.090349012756608
Ni 8.97621751059865 6.883125131830099 7.393884646887651
Ni 6.763985318796517 9.763635539944437 4.298764829555388
Ni 7.028840268572046 5.675243727189441 7.013131284471896
Ni 3.4690938780122287 4.86537889401719 6.026847149189133
Ni 5.653349855271465 5.778042135052739 4.999495533618453
Ni 9.242891805699923 4.627297881520118 6.699404543710168
Ni 7.604380404129849 3.114471701174515 7.417212854104948
Ni 8.357030871888876 6.147011911561633 5.080692476902281
Ni 5.401222385309141 3.8778243681912437 6.861926927954094
Ni 6.922930906606248 7.5119868232407825 3.8034423073512187
Ni 2.8209885011448503 7.303301089957079 2.9934961083136553
Ni 7.045750745766894 5.186571604829756 3.196049510902916
Ni 3.4199855411939244 5.129547814342107 3.68861688860618
Ni 7.383116315994015 3.996227752400116 5.249037464696101
Ni 4.921025636688135 3.5092046488499444 4.566015569994721
Ni 5.044704057493094 6.483502121435866 2.723390862251102
Ni 6.340051385013508 1.9794240177964233 5.690270816084222
Ni 6.751119070942733 2.739082203913668 3.3933556480997003
Ni 5.115270417799661 4.139467365451226 2.336685060218609
