38
Energy = -164.99962271 eV
Ni 4.834875556008737 8.299075710991994 9.389785712042194
Ni 7.199444831460785 7.6031338217299504 8.513603311892586
Ni 5.6493372984723935 6.142375996318509 9.752020562151715
Ni 7.988473839277282 5.452567120165519 9.251208192009495
Ni 5.869153631724652 9.395097806079304 7.529015882057563
Ni 3.3231097481107224 6.4733382709255425 8.447774575266077
Ni 3.4936848210594063 8.72773953126186 7.4094527334832705
Ni 8.2957432115098 6.074515548012854 6.957578066439
Ni 6.263173873073019 5.102616639426901 7.749654518705093
Ni 4.245974974364758 4.377793739234534 9.048060408861845
Ni 5.195275126213291 7.1763221616360555 7.421644812595581
Ni 7.350322883219493 8.135615919344328 6.1000958145819
Ni 6.436361639658597 3.718053722424956 9.615875193627998
Ni 7.880600886542038 3.57388039633026 7.516899369907408
Ni 5.018678028824516 8.478440348297767 5.453229691261179
Ni 2.2643247819622547 4.529586819022114 5.519826981558596
Ni 4.183290181880826 4.864163524838644 6.754729664512514
Ni 3.2355361133786817 6.876775552719663 5.896945593117144
Ni 5.347020570271379 2.871795648585455 7.576135451997581
Ni 2.0975105679603216 6.122396513363188 3.917867428078327
Ni 6.216430274812674 6.180325056310776 5.619147417968111
Ni 6.242365422752636 3.698209513068991 5.59608093195304
Ni 4.404064193332323 5.241454254929924 4.341464492722856
Ni 8.492191544884296 4.3417195553604495 5.351911960829706
Ni 4.060541607354995 7.410037058728369 3.5905552770217444
Ni 4.035388158477253 2.9455754795994964 5.370750688390563
Ni 2.97780082636372 3.8184206875528672 3.274322658170325
Ni 6.775167328360141 5.0462426198493056 3.6926732021727156
Ni 8.44514871080632 6.583034107137418 4.560425611525759
Ni 7.61747312947591 2.8505860064757464 3.685634815912255
Ni 5.3076242852485995 3.1556201314475496 3.359188227382552
Ni 6.4505102682465765 7.6163110412150585 3.743843160847917
Ni 3.190542901500253 5.85437551283889 1.9377345001737272
Ni 4.552117053121835 4.061061409174965 1.3924017699358961
Ni 9.001061307422733 4.667932885371071 3.040583707720549
Ni 5.483721876417023 6.136451945395377 2.0750358598043523
Ni 6.943095763284805 4.131343515866123 1.6372594959127909
Ni 7.82194035853619 6.471766072015596 2.1229531522309033
