37
Energy = -160.71869348 eV
Ni 2.6968506235258016 8.379327618047071 4.52376242261864
Ni 4.6856019237464395 9.35203456963958 5.4081838737424395
Ni 3.7679518798710805 7.352146002429152 6.361139812313066
Ni 2.011681073595918 6.149538689113319 5.139701790397318
Ni 4.709289415141487 8.356713893142137 3.2610905755644093
Ni 5.873310438066336 8.347337585593781 7.198781588610376
Ni 4.920297383504838 6.315811263686934 8.158374730410749
Ni 3.1385668810171623 6.593863197466882 3.0495967040348866
Ni 7.121925295552314 9.14509072757115 5.207179923695302
Ni 5.787937318115466 7.266868660837395 5.042898678256706
Ni 1.6048854279502878 4.828892044444792 3.2393555095117503
Ni 2.667519298348728 3.738921859876224 5.016593719773187
Ni 3.10757188538985 5.090959867931514 7.004471143387322
Ni 7.055823608551836 7.2218497957027274 8.96843133210453
Ni 7.018720387017746 7.938831695114047 3.083730435388119
Ni 8.302361110623325 8.13339915016047 7.006760771205034
Ni 4.228426175498876 5.495820970038054 4.873058670516932
Ni 6.101642757392023 5.220583635220555 9.884807445491859
Ni 9.38459813340429 7.0304977632872445 8.770699451293927
Ni 3.840591878684961 2.7289632436613447 6.821716732121174
Ni 5.40683371854392 4.422809260214594 6.730160029138392
Ni 5.486080630911628 6.11079305007394 2.836045157854463
Ni 3.864086889471851 4.280367920562209 2.8905827749732707
Ni 8.117657299666833 5.063375903496703 8.672202977884556
Ni 8.22598740357748 6.9683764926302105 4.871971196037491
Ni 9.309158724305444 5.872714357328569 6.723912308486981
Ni 6.643460651871349 5.025570119584284 4.746159036022524
Ni 4.289721751325062 4.099757317215751 8.807768706324973
Ni 6.978187503780993 6.188218064065669 6.890617227211491
Ni 6.199517415645083 2.1640387426789687 6.483530251793168
Ni 6.505202513481055 3.3367842254048634 8.502227328629216
Ni 5.002736208469037 3.1243786165413128 4.678348025556491
Ni 6.191299394478331 3.845197870144906 2.6994916194506424
Ni 7.835571859063472 5.690923685641302 2.845204799934955
Ni 9.028884412582286 4.693399718757469 4.684545714662186
Ni 7.862510900064054 3.896654918545955 6.591843965730045
Ni 7.410926135521529 2.8262581339768316 4.514168758531556
