39
Energy = -169.67712947 eV
Ni 4.93634263830726 5.989635132905324 1.1878304230128698
Ni 3.383931158191043 1.942653131773544 0.9208528823651284
Ni 3.0567315285440224 4.369498201728848 1.2761828154009491
Ni 5.257703694904811 3.4738424197039826 1.2272424280846104
Ni 0.8400859971018599 5.103926058789799 2.0999130911168318
Ni 2.8643244929483695 6.4891045473352795 2.409535034411941
Ni 1.4573018327986424 2.717092452102 2.275296280498498
Ni 6.9444522947981 5.678000488272988 3.186763854428317
Ni 5.247741958207302 1.131091806519154 2.443525167751533
Ni 4.714405290586501 4.908259661466861 3.143205776066315
Ni 4.995659181963343 7.264733278978107 3.3259292262865996
Ni 8.345492981369048 3.911128048642499 4.101604712655997
Ni 3.830067262143865 2.746809670124994 3.010349202222514
Ni 2.3936398841357054 4.435344786437207 3.6002780930930895
Ni 2.711819188150077 0.7258544970762585 2.8788592590271405
Ni 2.7562368635253103 8.13408161941029 4.144397645939365
Ni 6.27938129948342 3.1887754902720595 3.3643423139521955
Ni 1.1341464317182577 6.29055885027191 4.264205733981168
Ni 0.2460762384186171 3.956265752367855 4.153086709820222
Ni 6.488573356426819 1.2394666499595575 4.5547783662884935
Ni 4.105575733537462 1.2017659621312347 4.752208310416249
Ni 2.211445260465719 7.148959371653334 6.288705420114807
Ni 4.300817668445439 3.6586443357868013 5.215284477818534
Ni 3.512744971706863 6.037194367119154 4.795239560395307
Ni 5.785368273418517 5.551873291427326 5.270173214141691
Ni 2.017775783288611 2.3841684830991703 4.679120910651235
Ni 8.073099437328173 5.797308278449924 5.466444109159208
Ni 6.815677425569363 7.634799668071884 4.77323963113172
Ni 6.784294182141979 3.305913727295351 5.7297265130465975
Ni 5.111919141105687 3.8232188891518226 7.502900956639144
Ni 2.0298603962064097 4.553998969164956 5.961277469930721
Ni 4.591637012269703 7.859577140781627 5.711049959787715
Ni 3.1372669120826213 2.4198573644221417 6.782715711029116
Ni 5.368179901195456 1.6933562708581447 6.616689405201888
Ni 4.045767333537771 5.845824440834478 7.062769488774922
Ni 8.975944341509846 3.8189237318579887 6.35552983811052
Ni 6.37735957692848 6.960427985602672 7.027266169661883
Ni 7.242768281858666 4.808223574341331 7.522835633337047
Ni 5.5380607092127185 5.709517519344586 8.828320119781079
