38
Energy = -165.30608482 eV
Ni 4.651986091806394 2.137209144879628 1.7345150691013924
Ni 6.321791194562692 3.5919960310301042 2.454397253896213
Ni 4.1036458015808295 4.470913189940672 1.9955276444759973
Ni 5.942868168427551 5.98204496401773 2.697128112971506
Ni 8.046275181927795 4.994111010627499 3.1980514672584324
Ni 3.0720889456419522 2.806876753936456 3.2899389631778972
Ni 5.196196015194957 2.0564332313782354 4.033622077241995
Ni 3.6630919664567836 6.586681068892941 2.9965713282784825
Ni 9.842983267279331 6.281194219607823 3.9394382658183633
Ni 7.7349355650652685 7.397006363889907 3.6289862845149816
Ni 6.998539458414437 3.426208843742943 4.764651408809386
Ni 4.878149478940405 4.42020948585621 4.171012912748616
Ni 2.5824762615569417 4.885364070819636 4.304812764369768
Ni 5.4262842941647484 8.080951249777641 3.7400076169669227
Ni 3.0871790034460957 8.632372439381209 3.9488918270314173
Ni 8.762087810164209 7.058200137951092 5.846568550867812
Ni 8.916209037266148 4.707506995864892 5.409298905736715
Ni 3.56046024380533 2.9963120554574574 5.581604892078057
Ni 5.70457043822408 2.2160373341931985 6.426091170730299
Ni 4.44084034161348 6.519353568835416 5.209939516638878
Ni 7.871918291046925 3.1532389402439 6.891780480740384
Ni 6.763210529736738 5.902878280851165 5.067038551755976
Ni 4.4418159072013 8.787499888200431 5.845308410394539
Ni 3.0697380832737124 5.096475048996444 6.64068761557376
Ni 6.777836701138703 8.343260428919082 5.693823501508599
Ni 5.4537141661592905 4.526944469036065 6.503018630567025
Ni 2.237373722143824 7.022373818943391 5.376784025804418
Ni 7.6981611410363495 5.420954477263259 7.338908111700726
Ni 3.4207166006896075 7.3151208755597175 7.449469865075981
Ni 4.044633140852703 3.19670778884893 7.878338928651848
Ni 7.790175053425448 7.783021372274113 7.8483018182977
Ni 5.7116423543835255 6.82303838915875 7.207000148846413
Ni 6.278580506217047 3.85303524210048 8.554803773552058
Ni 4.393730044799616 5.3953444213218225 8.639700135173841
Ni 6.618175797545222 6.1512244835354695 9.318010780745277
Ni 5.756508150150369 9.057829120471697 7.828526470128886
Ni 4.740178259342546 7.604505515217386 9.384137956909537
Ni 6.844721732302865 8.436526988556945 9.881444741617862
