30
Energy = -127.11268671 eV
Ni 6.385559523524262 8.37223227810338 2.8462961559181577
Ni 5.7683972827147505 6.122737903649312 3.3200764611807974
Ni 5.279332892055316 4.1024560482032655 4.4029633471567475
Ni 7.5547730209928385 4.992651888068593 4.583250940299772
Ni 7.588645214618105 7.356777262870538 4.571183031085025
Ni 4.283676303005859 7.890072095595552 3.7674004030883115
Ni 9.50666889532116 6.202920967251838 5.355625097788911
Ni 5.163190438922933 10.121017390219595 3.7201511120895114
Ni 9.461215239550295 8.625758286976263 5.1683147378350105
Ni 6.605342878399219 3.766804502798513 6.337397490284973
Ni 7.479199624767572 9.740868470815544 4.465476838300578
Ni 3.533817856516099 5.823794418251844 4.874686688226296
Ni 4.184846867681146 4.026976311468127 6.502329614654948
Ni 5.680184989123321 8.70380201928964 5.460182277554709
Ni 5.621466563688662 6.17496149011011 5.618448106520011
Ni 7.687595793305472 6.147583090576971 6.870735527133355
Ni 3.5445157858966816 6.161304647336919 7.349831304564651
Ni 9.60024384871963 7.520412685162444 7.290569541454097
Ni 3.5833886937087502 7.979709422878398 5.997927931453388
Ni 5.579329851376656 7.643497153912476 7.572687356230493
Ni 7.645022771343257 8.563794080994548 6.678653059210105
Ni 5.657331259855283 5.283952220859694 7.855742615993225
Ni 8.940617622635573 4.222044979770099 6.527570579807671
Ni 7.587861460501233 4.106920718550307 8.527319301088195
Ni 3.7239360990407793 4.405668857416231 8.904013448936393
Ni 7.166326221662204 6.509967379034761 9.184532030877154
Ni 4.712460813282137 6.5615832912784215 9.536793695418691
Ni 9.352306202591231 5.605191265379789 8.52449462205552
Ni 5.514449005370812 2.952451753839184 8.329417290993591
Ni 5.861027006227727 4.5648171457367575 10.108659419198526
