33
Energy = -141.10096331 eV
Ni 2.4878653739964545 8.787786635172928 5.535057381134759
Ni 7.975510840674152 4.785371856174914 5.0262156743541695
Ni 6.716141622558593 10.194914635670537 7.221702401055742
Ni 8.54018024874443 7.593068413366559 8.589024199364252
Ni 10.330869109497348 4.7081503655893036 4.652116933006677
Ni 4.7869038589247115 9.847393775386466 8.632910788910529
Ni 4.1684384419618725 9.284923005854289 4.052650990640232
Ni 4.451978621300243 9.859806332110816 6.337896487602306
Ni 8.942028655191661 9.804388077575398 8.188194742882414
Ni 5.055676920264086 7.550419887743315 9.364944888619185
Ni 8.786065490735242 8.91164256241285 10.567886832335628
Ni 9.416987139037783 6.8130007483561785 5.093538547865096
Ni 4.519519260232749 7.422946217813502 5.5000081705495685
Ni 3.4023321017778545 8.239217870512713 7.676996058311127
Ni 7.991793609851459 6.24164188707209 6.836367452042243
Ni 5.858421957275406 5.4276352416243 6.106862334129888
Ni 6.994785131071958 7.021928517071551 4.831740196358533
Ni 7.397198358338875 3.9908143102110265 7.270788926411343
Ni 7.211647056005359 6.940779153194926 10.363580387713542
Ni 9.666297921774119 4.62876765711411 6.897209193962318
Ni 6.11077356888223 7.883591348889944 7.278711052594413
Ni 9.643637999166536 6.694767871914738 10.529018365708652
Ni 4.220536264898238 6.096612944261756 7.5826554120432075
Ni 6.242703996701837 9.181242585609535 5.074955602483694
Ni 11.376185808060837 6.098447357624184 6.210971450110142
Ni 8.20681952934957 8.599958302507083 6.216337077092673
Ni 10.335213848622685 8.102523771117163 7.00445869377663
Ni 2.4231369667686367 6.612687714574919 6.241486361444481
Ni 6.330396777240572 5.722964503185234 8.515795657377218
Ni 6.848888431829341 9.138888958743527 9.35885295319733
Ni 10.590843928816465 6.242383449945686 8.407910961883474
Ni 8.551595152709115 5.181818721703756 9.037583525662042
Ni 10.717984904065954 8.47419652478324 9.313079991145488
