31
Energy = -131.07591891 eV
Ni 9.474118479454377 5.8567117035296254 9.97961021723276
Ni 9.984355988726621 8.1296150431369 9.537551262524893
Ni 8.74884761137185 8.954216703426011 7.666415514545186
Ni 9.55554152418077 6.686917742339181 7.781705314984429
Ni 8.843921850031473 9.68548583227107 5.380442644478256
Ni 9.6031155107024 4.329055235355399 8.161755272315197
Ni 9.047836415146538 7.40096708932224 5.5706526057208015
Ni 8.377546091274446 5.227887850348388 6.332832577726355
Ni 7.784220040548553 7.443921436510497 9.450347778569482
Ni 6.855161068282391 9.835270180816135 6.53777304354635
Ni 7.605417870179344 3.2564795458816365 7.405287669649437
Ni 7.7496748742211645 5.9482724748896745 4.144465391530089
Ni 7.532114147097287 5.272964631481939 8.655748912336554
Ni 7.228095086402135 7.225486945194904 7.069551578128698
Ni 5.773964050102498 4.7413648452276025 3.329597590333969
Ni 5.507752541975156 6.693717455752826 8.595368709179313
Ni 6.805097795718853 3.893816608756381 5.2197523141013376
Ni 6.346858461981897 9.005693491681892 8.637846584359545
Ni 5.709751341993386 4.772080634970918 7.274269174797631
Ni 5.814114363684739 6.210349602701284 5.356193508927539
Ni 6.9298289163082805 8.262489497030469 4.833870446038924
Ni 5.126567809682726 8.230861037147283 6.8276889078740615
Ni 3.770138762966645 6.178842556588731 6.586523360011018
Ni 5.755267146929022 7.078548545671788 3.170181146719324
Ni 5.520373133211493 2.517224322943768 6.653871842791454
Ni 4.441084091867617 4.127173475858909 5.347125376445915
Ni 4.281230933601784 8.101844573883964 4.727691931604319
Ni 3.8036566610403275 5.896991155162269 3.9276137104820914
Ni 2.8668763162360555 8.393584839486047 6.702293628195199
Ni 2.1053926859493517 7.047291924506962 5.043307932912582
Ni 2.2316534285088125 4.77444801750346 5.272239051314952
