30
Energy = -127.09174791 eV
Ni 6.147746425281596 6.328932829842144 0.38191836222052394
Ni 5.717524164246624 7.529971157860916 2.357509138709619
Ni 4.174303836249601 5.963040927878465 1.5742379593042792
Ni 6.107060289349451 4.474004921528453 1.8201229401820205
Ni 3.8153963304875935 3.8369434521848187 2.4031181030757476
Ni 7.66376523217622 6.163836479123557 2.176091397391655
Ni 3.770426605207267 1.6280348138271454 3.090862782715711
Ni 3.3302879972218142 7.702205483589054 2.883871899092331
Ni 5.613753028912346 3.0416070456465265 3.6121299168853755
Ni 3.0067692374090216 5.567029210880273 3.7904182095580468
Ni 5.348928382343103 5.610991689244878 3.747734977896013
Ni 7.416933379715229 4.533079298782748 3.9494410355765166
Ni 4.896811106392551 7.904498438374006 4.5517070934353665
Ni 2.7857455356024152 3.2546858026503 4.507932572936444
Ni 4.541628384088761 1.7586242766907971 5.2676309400503545
Ni 7.1519374074354785 7.0105959522609105 4.290685579738963
Ni 4.664086718382825 4.140261962922566 5.592764127255289
Ni 2.610578925428355 7.400208057493196 5.158506534258842
Ni 6.69773220065466 2.9873280709311487 5.7455356906073725
Ni 6.687003778037175 5.429357607537076 6.03728244557375
Ni 3.2036495233930524 2.9017528664050647 6.921302939594425
Ni 6.364638091583271 7.758272229028077 6.396899207228535
Ni 5.343780644623494 1.7129597799665615 7.408364792120107
Ni 4.408383839253761 6.433509909683611 6.286614810174768
Ni 2.4701729197443325 5.073270509611287 6.051795367458164
Ni 5.8757681071320516 3.9255964282752 7.769905610311497
Ni 5.84432505174896 6.2551784906788 8.121646495110928
Ni 3.773724404715939 4.932533360068378 8.061170700188946
Ni 4.213116800903523 2.8529805808020097 9.094097253849244
Ni 5.268500480489476 4.803187194441226 9.863179945709426
