30
Energy = -126.61048277 eV
Ni 6.4385994886155515 8.502464712498398 3.0135617595196753
Ni 8.1264578475924 9.664231606843853 4.370718672872682
Ni 3.924562053247474 5.681428788160218 3.4223244295023267
Ni 8.129564426449898 7.375032257465814 4.069662396921311
Ni 5.606767324933349 4.021147698964337 4.058772972774023
Ni 7.646194136333031 5.1803005681718455 3.444265158647347
Ni 4.035445866721717 2.1987496811158067 4.381615937706368
Ni 6.0453939471375655 9.08373413725307 5.199233523480236
Ni 3.4193814660514277 4.242389298522069 5.170499129861273
Ni 5.910587301366737 6.4765368996695845 4.288334110111822
Ni 4.269996392222139 8.070711438702228 3.9116746025549354
Ni 6.148694387062326 1.999415327949995 5.163957453931851
Ni 3.674219745354676 6.519888472673294 5.614440446566444
Ni 7.886359153349781 3.531362894385831 5.033040638390756
Ni 7.980108975927908 8.232585493742214 6.247967005103477
Ni 7.76773813589676 5.781352526264214 5.776852395958405
Ni 4.474390146471001 2.766902675508021 6.694443349376607
Ni 5.500696844237833 4.83707250195472 6.26891084978263
Ni 8.978827972459356 4.188779770191577 7.0150346242520145
Ni 3.9521783463878215 8.800667242180497 6.183969536841487
Ni 3.454146729913406 4.919351088887417 7.460667936385847
Ni 5.747561993914147 7.228973628695559 6.627540100145801
Ni 6.8702169003987485 3.1014246190295207 7.1148002192705695
Ni 9.082602310822551 6.553948077653126 7.542086657316753
Ni 3.1623916929003317 7.250021920019547 7.79327428834572
Ni 7.176164506220204 5.299021841059611 8.06630359718587
Ni 7.175634337721863 7.642312028508498 8.42873545414788
Ni 5.096095161366913 6.277016360361744 8.659207782772105
Ni 5.273667941530987 3.922606775634341 8.624326303956428
Ni 5.022303235019225 8.62751843556003 8.330727433944864
