39
Energy = -169.08172941 eV
Ni 4.885695049283398 2.3219404760546385 2.8015799076463477
Ni 6.469900961251811 3.6568042685152258 3.9161764144934037
Ni 5.663154167079219 6.994393921886767 1.956410079728619
Ni 5.303264686989438 4.648780154676362 2.1380040779677816
Ni 7.717036754308944 7.941445873304423 2.6706107530694325
Ni 9.115187987233076 6.630479050908485 4.116258154591532
Ni 10.567581930882145 5.397883976092634 5.438985124325165
Ni 8.662512367361494 4.282383380727753 4.572757702035548
Ni 7.256868536217258 5.670594085689719 3.088121959222572
Ni 5.0663084186663125 2.246675692510335 5.252285154700752
Ni 3.8492835104708423 4.07569431224702 3.8642440471447834
Ni 3.6000500794907824 6.201256791649515 2.8878828283073674
Ni 3.8053684613671708 8.42074865084333 2.161627273409766
Ni 5.639241370561644 8.797606420920848 3.567190163664309
Ni 7.108528124097497 3.219936348789136 6.167271668872039
Ni 5.189515304387938 4.581315957763313 5.785354930728971
Ni 7.411778383816076 8.050459991266148 4.9742405601927215
Ni 5.430519944674939 6.582435972512158 4.356862667663558
Ni 8.944489808197732 4.652868082033669 6.951818139408455
Ni 3.194274246807783 5.864588620338644 5.25703878127304
Ni 5.321886284604109 8.658746711341228 5.937344958183965
Ni 5.0919697958242045 3.0694521219262896 7.549321124366826
Ni 9.163637808912135 7.022071987258199 6.462946471023062
Ni 5.255092254765273 6.539968718888764 7.0329294190259235
Ni 3.0101430026764513 1.9564110451182988 4.200787426575564
Ni 6.744125748960824 4.781792332405257 7.911407266604541
Ni 7.288248584492262 5.786988377669613 5.738301584646628
Ni 3.501816086978446 8.066109640659933 4.45834635269964
Ni 3.0889779194963056 3.398280027427509 6.09109467906781
Ni 5.0731544175604535 8.621139435786864 8.263835495997759
Ni 8.41261822367064 6.290833820818057 8.599719872327777
Ni 2.996698834674762 3.260448357924761 8.497889907361925
Ni 7.1646701310385215 7.877736308123687 7.355452044731568
Ni 3.260757033219096 7.6950919970623834 6.858516671294762
Ni 3.231119288250479 5.3085765875738895 7.492350609066445
Ni 6.227008726422382 6.708138633650362 9.302312220284662
Ni 3.794430654170493 6.913507019134462 9.137394305793155
Ni 4.847515193748867 6.154558342689097 11.040743648128927
Ni 4.73773313642882 4.744019724851878 9.236748773412755
