33
Energy = -140.3130518 eV
Ni 3.7419033405486184 7.6947143750981235 6.767773585974424
Ni 5.448133554022225 9.404215327098493 6.5773577808808215
Ni 9.471201723871086 8.722504264940286 7.455395813135205
Ni 4.367003489980828 6.673047884934409 8.744094968431702
Ni 5.1088568195131785 5.250172576075629 6.4661946420874505
Ni 4.2882799395564755 4.326009414993507 8.910927650097996
Ni 9.213295467051445 6.707034563838782 6.268093564076805
Ni 6.520284052382145 4.046409208389895 4.850245261817036
Ni 8.136923497351962 6.890244405617104 8.394831615624005
Ni 10.026915189580878 8.708620483873515 5.191483406097142
Ni 6.744999848931826 7.678883745547691 3.2094982457142387
Ni 6.2445537566517055 9.68502644432695 4.3410354557181305
Ni 2.088742750668905 4.076720116611771 5.565126539431602
Ni 3.1607058351060675 1.8922478248168493 5.200304823410705
Ni 7.717673577256661 8.632506178350605 5.7807724713027735
Ni 6.07179089641199 3.377059742979375 7.622566656391742
Ni 8.940293321130362 7.038434791324441 3.9443555946833055
Ni 5.112906974841408 7.699819349939119 4.925961835461562
Ni 6.101978507504008 7.276513417122737 7.228421432229648
Ni 8.78656688084965 4.767297035084748 4.862669871711503
Ni 7.252635821494046 9.107339546557798 8.129822811784154
Ni 7.047259345609482 6.336373240070025 5.119051272971485
Ni 8.899689560270096 8.63379499576299 9.671688816772154
Ni 2.9122192832949865 5.4699139605671485 7.3189514295287506
Ni 3.775767852779183 3.2326524416070885 6.948114088416636
Ni 7.713808799304071 4.979906638114381 6.951645808856942
Ni 7.826633352599285 2.7282608829492863 6.164339368449357
Ni 3.3851218629757147 6.064742108778214 5.019466900701714
Ni 6.352197901120358 5.437734751631221 8.7821701998852
Ni 5.325588386149226 5.735164191817381 3.657681691779063
Ni 5.500964455167019 2.112991835476322 5.7009819174983845
Ni 8.426765511326204 9.331452144818792 3.585506956422794
Ni 4.188219940054845 3.8579467005009076 4.5964964520429294
