33
Energy = -141.0480413 eV
Ni 6.326716431652207 10.376140230222273 6.521954799663301
Ni 7.1722427682600625 5.507501846499943 3.836561320305579
Ni 7.906715241247241 11.018406558312549 8.41038100171812
Ni 9.671161604711854 7.281292152797578 7.801808730413088
Ni 10.362483364879893 6.243584298778418 4.023715124370465
Ni 6.056496479962201 5.424729807988104 7.663989226788625
Ni 8.964005880831632 5.515593455018199 2.308795670813965
Ni 4.154752123078579 9.000489271889489 7.501376576256106
Ni 9.753870033561867 5.532102598841715 6.182796330704164
Ni 9.115088827710101 4.289322214143243 4.286096298659727
Ni 9.752641113422426 8.006535298276626 5.5149927319635195
Ni 7.664884966615871 9.161508294258137 4.927825631859515
Ni 3.991128509340937 6.535374971272068 7.2632147877367705
Ni 5.4576057168534335 5.828785145505886 5.461713901428258
Ni 7.128172238808612 10.3305712441147 10.5941489280096
Ni 8.743175048647267 8.985277914275853 9.40997612591715
Ni 6.734260212322916 5.656550235375027 9.943859579647633
Ni 5.9556547503298 8.038248770751522 6.5552777099310156
Ni 7.014473898416264 7.921093915127486 10.637187040142951
Ni 6.236961740572574 9.462113861975874 8.667786981317464
Ni 5.013463893622531 6.727629994799214 11.238908733688586
Ni 5.062540003890809 7.460419112776435 9.093423782989722
Ni 8.411056967006655 7.447964724996728 3.5292105522762824
Ni 7.812746644121158 6.787929081599314 5.863026904065831
Ni 8.303352737201255 9.138391728518192 7.102788219344357
Ni 7.411028553307789 7.282497427350833 8.308447690838685
Ni 8.949515536997374 6.646320134842553 10.018415865365919
Ni 6.083273835759177 7.639725982833783 4.160781643326071
Ni 7.492540954551218 4.490036108060924 6.0325047006182615
Ni 5.05007327525104 9.133709377913625 10.749044129715767
Ni 8.409235307549201 5.203194127567723 8.156881951251904
Ni 4.4566865020296955 5.244700488866469 9.366271444450392
Ni 4.025687193682582 7.852671667454119 5.3154037092130375
