38
Energy = -164.5622204 eV
Ni 5.057215149646236 4.3867110432701795 9.850171153676056
Ni 5.74206635697628 6.388851508784141 8.825378367855345
Ni 7.106991893250871 4.532764381617831 8.37079128725424
Ni 6.084213319285001 8.383657369685007 7.759348343631419
Ni 3.330956663110418 6.018865765676357 8.977522336038138
Ni 5.583363661424453 2.6017586898784244 8.273599727349541
Ni 3.0328730343103136 3.65851664301729 8.833964678948801
Ni 7.946484927622062 6.894085823755205 7.682383655653083
Ni 6.321037332214371 5.883021036229482 6.4867758579245
Ni 4.714949643483869 4.5684888596450755 7.541572552921023
Ni 4.2058987852373715 6.959667001499907 6.988540196471101
Ni 7.723747565747216 8.882942210473658 6.129985468646273
Ni 7.513418656132133 2.7704388112484186 6.828626502529339
Ni 8.752598776664657 4.875181364798624 6.63716354740117
Ni 2.0035614135441095 7.486004889232352 7.047293082966857
Ni 5.757246036074384 7.958367084742526 5.476083991323134
Ni 5.383423539175274 10.121290786669766 6.436356529069441
Ni 2.4743441484431576 5.199963545070497 6.856538450539066
Ni 3.224272324626981 2.993734644503903 6.617006222951794
Ni 3.5312714546785036 8.81051161506639 5.664276653338613
Ni 5.372392388917362 2.8451433395991015 5.872137134058176
Ni 8.104483502231414 6.765743847790456 5.155164657021705
Ni 9.123446944360273 2.9544278287142047 5.064634051499087
Ni 7.194158280251457 4.288609087689953 5.01088745526905
Ni 2.7861184769046217 6.651400951582992 4.921154520378602
Ni 4.297043038430154 4.8890214778657555 5.228150388735353
Ni 9.414282770249192 5.08921148806254 4.221730020354952
Ni 5.315994781753775 9.917859193666485 4.155261572025989
Ni 7.044991553165382 2.006754398037404 4.462129217657578
Ni 5.996624470699825 6.070506007997366 3.983708992274554
Ni 4.337603250385888 7.878425887140801 3.584346351913368
Ni 7.043203308246713 8.356107679431831 3.6086545862342474
Ni 5.433793973749409 3.591110256019581 3.5631093944953176
Ni 7.900923237316735 3.7240734642951816 2.916104571174463
Ni 7.96901739391319 6.2312254640964975 2.7485540101256736
Ni 4.0265681716530946 5.597767086118681 2.936940807607128
Ni 5.830034239409503 7.204502526331708 1.9175933329939885
Ni 6.1805508218851966 4.930467911109245 1.8272927865720687
