37
Energy = -159.14510543 eV
Ni 4.410563752108329 4.442968489069591 8.05084272871243
Ni 3.788725567042593 1.9840831780684698 8.428926330918145
Ni 6.122358409761154 2.7230541497014986 0.41232490650784015
Ni 2.180454100289891 3.8705061649394326 0.7227362025307373
Ni 6.029105980775364 5.163211752249957 1.439630515813293
Ni 4.3707111086447465 3.4432146610565226 1.5707537118359112
Ni 3.608175076747816 5.7896406762091335 1.5178342515034697
Ni 4.97984187678242 1.0684582416575474 1.987736861531777
Ni 2.5705553110851507 1.7639297754621406 2.1347890047142686
Ni 1.312602570041764 5.835083002402715 2.486762852498922
Ni 6.475423934758217 2.965218949784717 2.8489123668084217
Ni 0.5747077797876414 3.3932742409695256 2.618136064092494
Ni 2.6534987076761882 4.006813296627259 3.002940753586495
Ni 2.773888651452083 7.849981394148908 2.7055198803948506
Ni 5.126384078293324 7.025650527540354 2.9585995866409407
Ni 4.965106863740319 4.7047492130916675 3.438861568496677
Ni 4.296127704465116 2.45454993876329 3.670341996629407
Ni 3.4549321009448017 0.35987552830566527 4.107079319116122
Ni 6.928442513341959 5.629396396333854 3.9528111314629397
Ni 3.171043375390074 6.073591852715415 3.973015885889562
Ni 5.8583394691927415 1.0496745118624635 4.58290280945545
Ni 1.8744621033839342 2.2927504879649994 4.477464188588343
Ni 1.212814532164073 4.708690879699055 4.807898011450883
Ni 6.174920266208002 7.708072371774313 4.927327711366085
Ni 1.4120671960265663 7.216796472853567 4.7192900669968285
Ni 5.905211365973099 3.482716693128146 5.254561673739971
Ni 3.4742438591159237 4.124483054888267 5.202988936706599
Ni 3.807671419936565 7.890720985077544 5.11473674612801
Ni 3.9760079948762237 1.9994853911256245 5.880548759523324
Ni 5.07372012786044 5.815588234897018 5.644540739333525
Ni 4.512614269643767 8.3411454568448 6.353404094410268
Ni 2.1533833472674972 0.7368413042755194 6.305730385006241
Ni 2.6990607576860937 5.904946821726487 6.423308110763071
Ni 5.904752056377794 1.7977878264832172 7.040713441096503
Ni 2.0851012944487355 3.251726603305041 6.8152543332570295
Ni 4.4589521808418 3.9242305006050056 7.288024608161699
Ni 3.6401952109554365 1.6742210641253914 8.05084272871243
