35
Energy = -150.10230057 eV
Ni 7.269751435127489 7.5881033635800925 3.5038326306538914
Ni 5.522812194609428 5.887019370923345 3.2830007572490034
Ni 6.242752237150235 1.4703231644944357 4.619046025327182
Ni 3.318929850339963 6.618049299061596 2.717372282313934
Ni 7.713053998889549 5.130142777210537 3.503845186790484
Ni 5.888184750981314 3.5359814389801665 3.5202862173137612
Ni 3.6495194034364475 4.431243202301423 3.567365176045821
Ni 4.793816702052197 8.093431591657238 3.7391536308506823
Ni 9.442520001230633 6.598241183927922 3.203936334770153
Ni 7.88523085127625 3.1100920588684784 4.771407374283109
Ni 1.7356446375821977 5.868959644328816 4.250561006210801
Ni 6.062315783517329 4.816797136641522 5.515044322690361
Ni 9.69313207386401 4.6213164363609565 4.815020885133254
Ni 6.333011266626283 2.783325545349677 6.593342133489241
Ni 3.9436172928867945 6.172725884482027 5.1191937972579975
Ni 4.384282216616367 2.7980460802028504 5.136341983578803
Ni 2.445210958129867 4.14659453637851 5.643551941396423
Ni 6.151212319983071 7.206094964509255 5.515354302184633
Ni 8.472302376908694 6.4625808515860665 5.27177528439857
Ni 9.778406507009205 6.049563240162128 7.1527241350848545
Ni 2.142547946099522 7.260892557258195 6.105941411056628
Ni 2.5512000933480232 5.538580973746912 7.575759553239608
Ni 4.302500850521693 4.062422603258036 7.0776295674336875
Ni 6.082238675931781 9.498030768353951 5.114766260590654
Ni 8.237523764618556 4.388860888909999 6.750039807419026
Ni 8.031937955933392 8.58840701132142 6.019786407298113
Ni 4.119261086746571 8.448147426181096 6.023688305513219
Ni 6.30171364781059 4.644791210928086 8.08388898690727
Ni 7.5400505364285895 6.728781593666744 7.435158558633978
Ni 4.78226352843213 6.503980589956575 7.369449182985078
Ni 6.051235417859191 8.578082158301974 7.426924278699939
Ni 4.241067943124918 5.16523544059177 9.188013961187124
Ni 8.375116217594496 5.298229542203739 8.979388014266222
Ni 6.151982334369343 6.660705691935364 9.306501762587526
Ni 0.6016929176748571 5.467589772309842 6.275933086122461
