34
Energy = -145.36034168 eV
Ni 9.192823988976425 5.229732574849949 4.888152340451791
Ni 9.50583700464192 4.286399487467243 6.994145565096549
Ni 8.742331998491908 6.140649377532508 2.761440530137814
Ni 7.981889789437901 7.322501059596205 4.653288182333299
Ni 8.385449948697854 6.383355709328757 6.845339830260546
Ni 8.035233597186009 3.113978668673902 5.5507027383552225
Ni 7.694945509954769 4.094554750737049 3.4095782843118734
Ni 7.5037100000765315 8.193284694585692 2.5105670555568804
Ni 8.688360453908006 5.417885292375435 8.906054953145466
Ni 5.668371409602019 3.104043713222523 6.069561480912391
Ni 6.880006854599035 5.16743805660526 5.376787973436007
Ni 7.219351468086563 4.123623206731099 7.5741943160478735
Ni 6.42847181869378 6.12875516827489 3.0950489487084822
Ni 6.976737610959471 8.303293359760268 6.5976016273112235
Ni 6.370844977864597 9.168051426429093 4.4034660928245035
Ni 6.078978263211672 6.279240210398172 7.45601485645994
Ni 6.453883927916238 5.235358924101275 9.512288035911766
Ni 5.55688729676798 7.152683887257566 5.1562097789081145
Ni 5.15594699173791 8.097898416764329 2.7141428336812092
Ni 4.8553979329669215 4.2271398009858725 8.07655347394951
Ni 4.394211675224359 6.356696301925768 9.058925264722795
Ni 4.456484551036074 5.172733010682798 5.852548392883394
Ni 5.316314795898458 4.096371710955336 3.8465622147176783
Ni 4.014552394983362 2.253069052590104 4.589148130706492
Ni 4.02418284272672 7.504927453567581 6.95410071975158
Ni 3.2665798890410214 3.237052886883217 6.59366513876857
Ni 2.8411639195136265 5.477890990144309 7.573485771731348
Ni 4.961182390519477 9.527525751706909 6.257649620166432
Ni 3.7272787021097598 8.396115251280044 4.612499183882296
Ni 2.5204924678447664 6.474742443756028 5.365723596303076
Ni 4.080747447610167 6.177515965713299 3.536154846083003
Ni 1.3713537855816276 4.525739888998917 6.018903907775634
Ni 2.918247725356079 4.288384552394572 4.263002466833375
Ni 1.7145805983414095 2.41873298528527 5.027016179650105
