31
Energy = -130.46784131 eV
Ni 6.436399792873182 4.375730913296431 10.950768404268699
Ni 4.779677540979801 5.9938302029236405 10.541532988128887
Ni 7.981783572774346 4.270301595709982 9.143694419806616
Ni 6.999730941219988 6.326930373211052 9.82841690953394
Ni 9.454848423348233 4.143534607620312 7.282900947216291
Ni 7.569950475958141 8.398035841532305 8.757128315352418
Ni 3.2108306849761945 7.55513648286167 9.986577698257559
Ni 5.6631789738666765 4.652687791809093 8.745542446175776
Ni 8.802325961165728 6.303248706660609 8.261306568306143
Ni 7.130654154058422 4.164244532859908 6.928969672074277
Ni 8.521325529873032 3.687987968892275 5.047003973666896
Ni 8.462207106317924 8.063551300638244 6.656031431815443
Ni 5.234252804854544 7.783357150046148 8.917290546589236
Ni 3.7899971222134794 6.006364888057402 8.373109297043912
Ni 8.559226756634375 5.849540339608034 5.938107989238221
Ni 4.943241512416421 5.035474438831275 6.495281273681502
Ni 6.14806952628494 8.863324906382442 6.928411646178654
Ni 6.598504932810189 6.51442743233585 7.389738228277407
Ni 4.4177263806588964 7.345738732867573 6.568756124786061
Ni 6.390621780078253 4.702179439642445 4.677538422772104
Ni 9.036271476542826 7.720791191166072 4.41190515966144
Ni 7.524293027202849 3.5757806652395456 2.988738678085426
Ni 7.389580624792521 9.358237143945091 4.796280129375091
Ni 8.24928087222218 5.661509131647599 3.6151097853334835
Ni 6.743320588245105 7.076886315204455 4.933674051545552
Ni 5.057875724688138 8.746954014310639 4.787335228634414
Ni 9.534271782861728 9.833390613410705 5.522292033493792
Ni 4.60712319536324 6.315086476831202 4.4861952373362675
Ni 5.91734009765276 10.849974590347424 5.741053513535959
Ni 8.0481629628276 11.598504457618645 5.215858261867189
Ni 7.917042901645676 10.346374981898807 7.202567845368408
