32
Energy = -134.28056952 eV
Ni 5.394158015109249 9.264279953182259 8.156802833125697
Ni 4.191532967490408 5.698099236578395 8.480223078614914
Ni 7.775668731252383 2.8766713705841185 7.9931514526922465
Ni 4.241683669764579 3.5954043642893194 7.437727402191638
Ni 6.897419118015032 8.681567232992169 4.049697857165384
Ni 8.170532014767193 5.4821023318556215 9.010430187013098
Ni 8.477098612197496 2.7311184584746826 5.774737357526246
Ni 5.289445095148123 4.845292573349933 4.26244578625267
Ni 2.9649577897727504 5.326990551822407 3.9141735932237607
Ni 7.5594137757079825 4.508898293569993 4.471305126563036
Ni 6.234682309776912 3.3055332464108873 6.16119971813066
Ni 4.482980037423303 6.627666618624309 2.7197369740310697
Ni 4.363270390394562 7.539986736894496 7.085975240277299
Ni 6.2891738530012 6.960156325692404 8.52266212738871
Ni 5.301268146062393 7.145143469775933 4.800705909097564
Ni 6.834152167922505 6.322755741590354 3.1051789990298557
Ni 3.782742315915584 3.368598648679109 5.129745409931633
Ni 3.6334381269032647 5.5522712404930825 6.100698924141559
Ni 8.43751324981592 7.180047534417087 7.422122442715651
Ni 8.207211429317521 4.830826634263811 6.792963212947188
Ni 6.619917033108282 8.316757864421417 6.4992542688202475
Ni 9.14692094959393 3.15913780924017 3.687135260031303
Ni 8.696890853886593 8.805414871683961 5.65000400705487
Ni 4.411932709551067 3.7642893755180493 9.731670752211835
Ni 4.696565324357242 9.388001131139854 5.693278229884211
Ni 6.014255082887107 5.719795073587309 6.517147477198649
Ni 4.5290031110687 8.901350650486583 3.418387899979154
Ni 6.1036759838949255 8.171187362437044 1.8872368943282898
Ni 4.670522198757639 1.6361270504920473 6.311218430181366
Ni 7.84503331541766 6.699866644260559 5.207802943344375
Ni 6.195191154766073 4.451097390707365 8.510770667604099
Ni 3.1020716074296106 7.599763736947985 4.929570753260922
