30
Energy = -125.9549147 eV
Ni 8.34610884260478 5.141031409867094 1.123202193321524
Ni 6.235367521595354 6.072937756217927 1.4485441173828189
Ni 4.608723449015184 4.471716429179836 1.7479393511610515
Ni 8.141642782054175 7.414095597176557 1.48941750816152
Ni 6.816973640542933 4.048455604017352 2.5564526192191446
Ni 6.3981538819695505 7.838346943243446 3.0178197369068545
Ni 7.875208832102114 5.947281893944701 3.2933300564341197
Ni 3.0108401626591355 4.572380568179985 3.4757103957979862
Ni 5.003267232671297 3.1357030349295747 3.623169621694569
Ni 5.12690246544431 5.8640679579191355 3.636587910819281
Ni 3.0468895551732027 2.428070317082817 4.778512156396732
Ni 3.179387988658838 6.445549671804002 5.073384343664389
Ni 5.0031392683677085 8.116859272701237 4.880994476824429
Ni 7.184833842895212 7.063109330306672 5.108482571662968
Ni 6.741574916563417 4.50828306203105 5.0109306743788755
Ni 1.8788946108514522 4.422021920734201 5.588060877486966
Ni 4.236987225790769 4.318621811746288 5.43727761148748
Ni 5.473351350625442 2.4264328415521117 5.880255431377222
Ni 5.284951968227715 6.175616171248774 6.124367681878903
Ni 1.2464126223883776 2.2973866510874617 6.353525623358347
Ni 3.9053176753832304 7.758845589529569 7.04323075127726
Ni 3.3665749636833384 2.9029902978937825 7.123518402541842
Ni 7.355240551785085 5.825421812151723 7.109709630560072
Ni 6.286279708383237 8.094259385103673 7.037584424933672
Ni 3.232514937809346 5.470261748744273 7.3856529407940705
Ni 7.3642323612385345 3.4410758073569783 7.05302284254961
Ni 5.2776608913461995 4.16146224076697 7.579733055982496
Ni 1.4785907123363162 4.010850596590911 7.878014011456002
Ni 5.3556306605741195 6.363233956871313 8.470025085629638
Ni 6.952356414132697 4.677641356893806 9.085554931732675
