37
Energy = -159.64241876 eV
Ni 7.0158321827836065 6.1826990831196795 9.44732373945373
Ni 3.1822472686350416 3.469966340296701 8.518535569447517
Ni 4.962219354177824 7.254071411103317 9.199551505212474
Ni 7.1195088756148674 3.871967118959856 9.140569302999817
Ni 5.31126717259917 2.538600414862586 8.45598534380697
Ni 8.313776484409553 7.579625838892663 8.005813777471243
Ni 2.9823417992569623 5.783756956372177 9.018589364749605
Ni 4.226832885358815 3.0190358262911734 6.405483220958711
Ni 7.365613481120555 8.484032176604018 6.07675903319294
Ni 6.561913466684146 3.8209143184173895 6.879853541947837
Ni 8.34252610697863 5.243554166963847 7.610755677112842
Ni 3.759410341452126 7.0158687781022175 7.224628765729834
Ni 5.057794266148992 4.917768865967202 8.477451275141297
Ni 5.395736621559415 8.776628320623148 7.3880739382457605
Ni 2.6854896338630887 4.93991248615418 6.76029813968881
Ni 6.41616448866304 6.543614823488868 7.2168848338613305
Ni 5.271032056056013 7.495843913404029 5.33558098045764
Ni 8.927543037668151 6.660231088483457 5.7683572296319685
Ni 6.0817825146100715 3.6531981737051344 4.5590560427271125
Ni 3.219282669241294 4.214568878716476 4.543539278137515
Ni 6.902280533498928 5.956357689925134 4.8088023247562015
Ni 8.398104891855674 4.302484033116271 5.4182684123200415
Ni 3.5166317786575534 8.921038160778545 5.784581171789596
Ni 3.029063211677566 6.650663253349258 4.989722765861236
Ni 4.70430224258192 5.811769174545361 3.547045993654623
Ni 5.611320250730585 9.751867544348093 5.070756154333834
Ni 8.248302547011907 3.3900900132932 3.3056211451809916
Ni 4.363949505737994 2.1490179010071024 4.199296957214724
Ni 6.240051518204755 2.3525708071921754 2.63105147620785
Ni 4.409840564506969 8.279123017639947 3.4148773939832546
Ni 4.397934106834446 3.7506458017301396 2.5156852813699335
Ni 6.594071788610566 4.765437407917636 2.4872899132411788
Ni 8.07640294801338 8.020540098897595 3.9689973519577344
Ni 8.64380915523792 5.783263195256172 3.3680354414267515
Ni 6.424617482141282 7.110438604978736 2.666505158909637
Ni 6.491957912139979 9.421729254854814 2.9827360492133597
Ni 4.867136158794012 5.2351963637580505 5.925727751721187
