35
Energy = -151.07172405 eV
Ni 8.216329258066358 7.836443656344097 6.476336835791034
Ni 7.764982650044881 5.713702760142724 7.442976345840452
Ni 8.860342344823824 5.853736193787606 5.351152320802575
Ni 6.285540144141678 7.638158257496574 7.7064024280883245
Ni 8.049061761033414 7.829938287666723 4.175862300920262
Ni 6.092181477203466 8.573221967386441 5.470678109892962
Ni 6.088320413516613 5.623801080941711 9.025739398778462
Ni 8.032438933138398 3.7055280277585796 6.177165174290474
Ni 4.530882921986309 7.336830683008256 9.175183307431865
Ni 6.465695004456333 6.271106660876554 5.485485887197953
Ni 5.837397671981516 4.344116666254206 7.025056252264515
Ni 7.64640037441183 5.639848219424815 3.3309418454481485
Ni 9.115706805838046 3.937306902427687 4.03609506564488
Ni 4.1332702751710535 8.59883961232852 6.970147206204103
Ni 5.935999751401445 7.270705288982904 3.3510540241775337
Ni 4.471737073500273 6.339812918168857 6.928032388954436
Ni 2.506883215600118 7.094733123949699 8.169402298351441
Ni 7.820744269119364 2.064817371874455 4.459277765481357
Ni 3.819409816106471 4.972183095348903 8.595746885308454
Ni 6.4074619783651485 4.026882984852516 4.588767374170833
Ni 7.295183806329238 3.456426861227242 2.4881828600593887
Ni 5.8249295457416475 2.2297714295387006 5.876748369569231
Ni 4.096560845092338 7.406564050111977 4.825440263086413
Ni 6.093567304757943 5.584683755188023 1.632959976786131
Ni 2.08860726128464 7.675824235502136 5.982592880103864
Ni 4.2028351420208345 4.930578490362179 4.943104332499093
Ni 3.7163202489215426 3.3940833287013 6.731683135878154
Ni 2.3190966983285093 5.357995602065166 6.665258243924641
Ni 5.7788591554726 1.772327596389404 3.442549384033344
Ni 4.017829972777977 6.039787908357987 2.8209899637816473
Ni 4.972672880381517 3.8816604331448374 2.7127161094164824
Ni 2.1612968274954016 5.983231975732273 4.345553307675502
Ni 3.8966403154340723 2.623896110749257 4.474455236395403
Ni 1.910338939980726 3.6515572840307695 5.158048477695543
Ni 2.643393808926002 4.088407685737057 3.004417327282366
