36
Energy = -152.39230617 eV
Ni 3.005161135911289 6.660054082523242 9.725502306301111
Ni 6.056966922515191 8.431961851526511 7.856593255350017
Ni 1.9267808900739842 4.263737568751431 5.821876751825842
Ni 4.015230706703533 3.131280008754996 5.371949395932459
Ni 3.7797133305157233 5.640721992750247 6.083007328423308
Ni 2.848330984337276 6.050440137060252 2.026363474676498
Ni 7.464299083610497 5.585642896720954 5.2758323483789775
Ni 4.970168727326414 5.213295334958427 2.211518485348465
Ni 5.410399466994563 4.885735270918631 4.690912484905255
Ni 5.3383329086533005 6.929160673416217 9.613804627192607
Ni 7.957827720492601 7.550575411181777 6.802022586240828
Ni 6.618590349703082 4.750940718206207 9.21027102783602
Ni 9.035608285694767 5.068166907411923 9.487619138614683
Ni 9.76822101611498 6.771749243288981 8.038571252653815
Ni 9.644908628231045 6.1456391815770415 5.734294641796397
Ni 4.949734105607124 3.106357427370687 3.221307286672323
Ni 3.2547873709618966 3.4067567853059164 7.538245114712557
Ni 4.157254512150568 6.9053391956152685 3.7303759968719468
Ni 3.965830936975096 7.353867340455132 7.699180432864375
Ni 8.881214999071995 5.838492550769162 3.44390064177772
Ni 5.669150900555234 3.8636164953837304 6.983530397425917
Ni 4.332328763672924 5.048826957791224 8.651825440467372
Ni 5.45979131855814 7.427126908083821 5.594954500822753
Ni 5.789668103390763 8.777825325136348 3.6970308992425744
Ni 10.430696913931255 4.66237379835605 7.471820541361465
Ni 2.1930617463806032 5.583952562262985 7.802339130949729
Ni 6.080939258003967 3.429049004410404 1.2459559357374554
Ni 6.834495392179943 9.336902578473566 5.757753221543846
Ni 6.522543824056241 6.63773381243947 3.297103753383858
Ni 7.086929048551327 4.351124085387978 3.090760794131779
Ni 7.604838583883153 6.912792813277527 9.052619540336968
Ni 6.046896408902449 6.095719713336317 7.32657072428435
Ni 8.135207160557975 4.968976915158065 7.3884674824777985
Ni 3.1423961291634113 4.6886557089255465 3.827467500983912
Ni 7.787384619459941 9.951546448137481 3.754198487370148
Ni 8.157791312045173 7.804948237093265 4.4865035595862475
