37
Energy = -159.98644052 eV
Ni 3.261807089730582 8.250978846867657 4.425274882182004
Ni 7.206717060959152 9.11504875365796 5.459155874472129
Ni 6.776868641532761 7.558982341699615 7.067368211520311
Ni 3.0943460258484903 5.826603122648709 7.514736143090348
Ni 4.858357029062291 9.00965751103037 6.10003598129164
Ni 4.704498195282508 7.482461837004567 8.103351654432183
Ni 6.609411821174565 6.274722980905215 9.061936644470004
Ni 4.5818375159130165 6.7186698100596365 5.672709109280154
Ni 1.6165140787547305 4.207293416187859 6.603923444043862
Ni 4.594562984097664 5.2409587037285865 9.238163859558849
Ni 2.7782257932507766 8.024187564876836 6.732127886821671
Ni 3.8786319761778576 3.5239507046202125 7.896860966702728
Ni 8.969475061619296 7.383915642446118 5.856428915549168
Ni 7.129519309038735 6.271538091857776 5.158358064652978
Ni 2.211699640654171 6.200078279392012 5.2638537016229545
Ni 5.64955074595059 5.258114766370757 7.0613508310070765
Ni 7.961034138623147 7.788972353946598 3.615413240692596
Ni 5.619562137745983 8.009025288090987 3.998022649805454
Ni 4.001085820596076 6.201301505684335 3.434824406549927
Ni 3.691434890060175 4.388662522502107 5.722409789701958
Ni 6.3056740047165745 6.099233470574718 2.748880083770665
Ni 6.517716025491971 3.6561146771545068 8.354676059168852
Ni 2.9021329707570342 2.237194637032313 6.13704002049155
Ni 5.619233510120204 4.665359822681592 4.548444401658832
Ni 9.70754286442347 6.249268894719083 3.8665270411354054
Ni 8.088262540102564 5.646005316223951 7.410874859323632
Ni 4.195708627829085 2.562003543469214 4.212322041691911
Ni 9.481675203398066 4.92063690785801 5.732344863445858
Ni 8.006485999602388 4.615097665520023 3.687181235398908
Ni 8.456881721300588 6.16214776749525 1.9346850456512146
Ni 2.6383438019062044 4.30740033531081 3.70571700212073
Ni 8.845286317943172 3.5060573769605643 7.683511785147029
Ni 5.395580740556602 2.7594431428324175 6.261407958976546
Ni 4.78231768863667 4.1301631228718865 2.51085634430004
Ni 6.538306335169866 2.6506770792090912 4.0112552100133785
Ni 7.423238551905061 3.8142465791828575 5.927861906881219
Ni 6.306487744195369 9.68984022145254 7.686122487502127
