39
Energy = -170.05917885 eV
Ni 6.917047263504148 4.964570018970017 2.1689713627972256
Ni 4.617888036854491 3.877996775229966 1.8220021154838266
Ni 8.631735090668878 6.046662353422149 3.4976271951327176
Ni 6.3573806876100365 2.569278896096334 2.62922434848683
Ni 4.900796988250533 6.092221458192208 2.491620827522011
Ni 6.8144350243851495 7.404431040245778 2.646484826236555
Ni 7.891182687691192 3.8114372602344218 3.963137919874473
Ni 8.733743702557234 8.416839962343117 3.5235906313566057
Ni 4.66856213725466 8.166750568711429 3.5949118847522867
Ni 2.981939799183903 4.648330829882912 3.4604295758098864
Ni 2.822800711486258 7.004316953156409 2.6111524812856786
Ni 4.119937531702968 2.4908418607853644 3.816175367054449
Ni 5.503838406407239 4.331765677095514 3.998778828290681
Ni 2.489929529915844 7.682198283010876 4.848229681155308
Ni 6.206668538008279 2.226327554654809 4.9514346761820605
Ni 6.6674726475731205 6.3687805578878836 4.765888291566429
Ni 4.206382691606859 6.182421383990655 4.838688927117428
Ni 2.361819602962982 3.1094270859928828 5.319355563240339
Ni 1.9613471740793025 5.405431191868548 5.503434234799452
Ni 1.010784901771916 6.084407905321427 3.586727378712788
Ni 8.62603623337358 7.356670898011572 5.583453324768931
Ni 4.222639120371092 1.7657795258779583 6.16402033921569
Ni 4.321711914605145 4.112843993802212 6.153529135384211
Ni 6.709670677076612 8.71222923651032 4.689909487407674
Ni 4.657838474413971 8.257256683966816 5.964664421254977
Ni 5.479911798385349 6.135786096316648 6.950682278174233
Ni 6.812764990753146 4.248875636252774 6.042329896264002
Ni 9.029986358338187 4.993315585226101 5.649245837554561
Ni 2.269135261836917 2.063251108984489 7.43009488430287
Ni 3.136251101223747 6.686803634102279 7.045965771472168
Ni 2.4111594646417007 4.390034414383554 7.53204289242804
Ni 7.81378844908895 5.982124271327372 7.373352238588162
Ni 6.314939616930076 2.3015098275463055 7.30276245953235
Ni 6.224417633061956 4.374074196329947 8.377989802400393
Ni 6.796771766224413 8.086225738293226 6.987350437054016
Ni 4.799604404922514 7.791571798053651 8.359885063157984
Ni 8.37121799028162 3.6481455298372576 7.607753267649802
Ni 4.154570571734743 5.4396482717298165 8.762500947064357
Ni 4.2545628568795 3.042087773974191 8.257273237087364
