30
Energy = -127.31307403 eV
Ni 3.6897965950431932 2.8178575970954793 5.145532178150306
Ni 5.8822612023576255 2.4812004159513554 4.407729844145586
Ni 4.430291670694341 4.069174109289033 3.2368043573139738
Ni 2.4605886973316164 4.736584244188468 4.532082785915548
Ni 5.452003638093549 2.9693391801689644 6.813803497474584
Ni 3.446542959742493 4.60200551467327 6.6534006696228065
Ni 6.885318406488166 4.432704661943325 3.4549784071190994
Ni 5.366237420114578 4.697711434418715 5.246977060986038
Ni 3.9203175138396036 6.368847535043972 3.81994913696533
Ni 7.486511433623207 3.6306318406957336 5.666815060070622
Ni 7.44872532213436 3.9498593869139316 8.063517846792344
Ni 5.555837365980366 5.948933437707254 2.208704304681761
Ni 5.393805429731088 5.09721798780331 7.8238584444360155
Ni 2.5082647320057894 6.703151443427912 5.914093910049411
Ni 9.39859535126998 4.425207596623221 6.639797849607374
Ni 4.808272851445751 6.788784983164242 6.023895567016296
Ni 7.350298010000593 5.910556868132539 6.795945872865354
Ni 3.7303273148188856 8.641347209881914 6.928995765043801
Ni 6.921968253812988 6.153504567354252 9.187364934485538
Ni 9.116812229794633 5.660522566623108 8.589814166183961
Ni 3.6587648222582607 6.603082651464754 8.07675054638992
Ni 3.3754273300485087 8.513109873172244 4.59147911184524
Ni 6.431529683727955 6.701667760337125 4.243420889653071
Ni 5.146859010494849 8.225169869035652 3.081271840339109
Ni 8.468809842657093 5.680419598281253 4.76315570123877
Ni 9.621368497246488 6.770999859589639 6.556765371458727
Ni 5.907034974703649 7.818135343202765 7.74193110869234
Ni 5.574733631474845 8.873105751648074 5.3729172873102184
Ni 8.239558137321996 7.819253580594186 8.15455223155972
Ni 7.66373443427787 7.97730992903247 5.833651347769721
