33
Energy = -140.47536677 eV
Ni 5.262840838821505 3.952290077422298 10.480561754469727
Ni 8.811619810820158 9.04424932585826 9.59434906020029
Ni 8.540654340946038 7.0341792061746995 4.612237751988451
Ni 7.0515952241492945 7.6819112351004435 10.342756508691181
Ni 6.6580239454347865 9.132078955060592 8.510928824673831
Ni 5.274497772152237 8.252693678712276 6.79985462565462
Ni 7.208227194037924 5.193312510906305 9.921329690639377
Ni 5.526556705362974 4.45257263178895 8.251007884378726
Ni 6.396444482755316 8.15290795065992 4.768276096726338
Ni 6.679575483815205 10.09751240617588 6.234017023419186
Ni 3.772802704335363 5.495308561831616 9.404527516913223
Ni 10.72827187389587 10.33921541838809 6.593860662466585
Ni 6.483807882016362 3.4513167416533848 6.367874370867848
Ni 5.697778806417702 4.272327389750069 4.348317735839173
Ni 8.626388948621388 10.085525260644552 7.53106396564457
Ni 8.099849882607536 4.756609258671045 5.16482609601697
Ni 4.291289553687602 4.328695688357805 6.185667076873801
Ni 7.9140792980379775 4.88361931635863 7.6147773689448535
Ni 9.544398537047933 6.26662297192858 6.5952036679647765
Ni 6.376714973451311 5.934891831466713 6.11558891924543
Ni 8.78987566795735 11.465595152464152 5.7034380700798994
Ni 4.587040304147542 7.8396187261467905 9.191261086508083
Ni 8.70408917086163 6.796153606094282 8.840350694149185
Ni 10.343973609402127 8.295243812729714 5.420115340848217
Ni 7.828358424838206 7.89153182103808 6.757845224231813
Ni 4.551982324002056 6.4814895034706055 4.8869061545390045
Ni 10.147591428305585 8.301523278467759 7.734039961784184
Ni 10.419168350761499 10.40595871846974 4.306814825962702
Ni 8.399772027564383 9.404710684580884 4.804236881066986
Ni 4.150435373643209 6.322562384378202 7.28459321048229
Ni 6.660307944959825 6.163414367752112 3.6224816841092973
Ni 5.330710873432372 6.2508494244399815 10.873444144931312
Ni 6.3371996881582495 6.6997382962822645 8.352626967391044
