30
Energy = -127.36861016 eV
Ni 8.60232385777685 3.245415492495223 4.315844132713546
Ni 5.899041814768403 6.397026825337658 5.106692897045784
Ni 5.236780590783656 6.172968804801395 2.6366783976318344
Ni 5.129464575557164 3.7969858894522486 1.9698425309886265
Ni 6.137898284133222 8.797289618867703 5.8187477187777805
Ni 6.839832306960274 5.101777187843614 7.1242052471906065
Ni 5.779369958685063 7.136085114355834 7.509196088513737
Ni 5.289717257911104 1.52757122377643 4.499936347856224
Ni 5.002294576161692 1.4219384483095485 2.16578042774828
Ni 4.820755432524381 4.372892266355089 4.201916116440981
Ni 4.688692458930647 9.115301363651872 7.790164529880471
Ni 3.0981539472980537 4.862055243627828 2.612694127171015
Ni 6.790666660026416 2.52647392709268 3.1226121164361644
Ni 3.5170910836457394 6.4074956676299735 4.302762348666154
Ni 7.012231671500414 4.826618344369369 3.277890224733034
Ni 5.045333416585109 8.198698535319856 3.8421058013697595
Ni 3.4696790663633132 2.6497487519936254 3.4646517948907936
Ni 4.4287756589474245 5.276058962193452 6.469142946538859
Ni 7.365134866125483 7.22154669368784 3.662579403227713
Ni 8.159627553910449 5.321323701903499 5.179856579060162
Ni 3.988199031395373 2.8274870332042594 5.859743974475689
Ni 6.5425242461764865 3.4105261534257134 5.460273359610292
Ni 2.5027504416809614 4.350272538228157 4.965058457177853
Ni 2.1918114823149653 6.2545271074997775 6.308067085899688
Ni 7.808711688333747 7.258975232034229 6.31364611452631
Ni 3.978239414278261 7.856456474149892 6.008403714910103
Ni 4.988734795172504 5.259341957557342 8.760343849193504
Ni 5.351570262103105 3.3085025278985647 7.596317612432994
Ni 2.8169849839975827 4.150205593438713 7.5012881181372135
Ni 3.488509082311555 6.919333785858359 8.124458403115048
