30
Energy = -127.03107072 eV
Ni 4.6858073376149285 4.975555136252604 3.071906533769171
Ni 4.970142275938742 7.291742981394242 3.302195285508559
Ni 7.217031481538668 7.974311589860774 3.565241398773404
Ni 6.987248538231211 5.561930484539074 3.617995746693412
Ni 2.8256811530134835 6.382949758571272 3.420997244575034
Ni 5.585626777494338 3.704069459535514 4.797100969476698
Ni 8.284020965995426 6.889528570528154 5.3633138002021195
Ni 9.394492730223964 4.853874849675665 4.870147554028446
Ni 5.560715988098986 8.965558467180943 4.935973021810021
Ni 5.852510047403665 6.631594222967736 5.309866355350384
Ni 3.4877448911987146 7.706806259589468 5.229180685637877
Ni 3.875216038918769 5.318109909305292 5.228183043399973
Ni 7.844384230700182 9.137800824883733 5.586574235750633
Ni 7.359220822992214 4.684754461929226 5.827667169899078
Ni 5.32540543056162 4.492756616583491 7.048765208196118
Ni 6.745127705487617 2.5960020429678594 6.581832913791445
Ni 9.06735414375228 3.3170075417485 6.789272194037152
Ni 4.061526691433509 9.34599006759193 6.771296254652301
Ni 6.2308022026352905 8.652613185138401 7.197160839115163
Ni 2.467639424363697 7.845114837012192 7.399930279399094
Ni 8.562966173522677 7.953580674855812 7.5967443048272205
Ni 9.226142060767573 5.635338723407514 7.139953199570092
Ni 4.401987843637044 6.614940199775533 7.207505251008338
Ni 6.870363344470353 6.409308176925802 7.436191913404759
Ni 5.576659109861725 5.804055504105511 9.178533977176178
Ni 7.362637246871844 4.163133961680944 8.28299081195111
Ni 4.524513418581456 8.132518962286547 8.837084844778099
Ni 6.835417343397424 7.889215063736516 9.328932991518052
Ni 8.321161765937687 6.070049783061291 9.311062116994604
Ni 9.63102273522481 4.140357602778796 8.906969774575376
