33
Energy = -139.75733587 eV
Ni 10.687964234267705 5.286126320044898 3.9631834208823675
Ni 6.328360480175737 7.321032623111393 7.007803918219649
Ni 8.49243411313181 8.00614172635156 7.903589311940102
Ni 7.8848881380415206 6.556002160471272 5.377587901338846
Ni 7.7220426635423225 9.137724674621902 6.0547424828801
Ni 5.4797095055873415 5.9071900030975275 5.153400147339428
Ni 8.15067961887414 6.863925139808713 9.841580237160384
Ni 3.970681366860148 6.196425462065615 9.917706978565377
Ni 6.136361511419435 4.052155789445975 7.9674536374530485
Ni 6.093968621446432 8.19876263965849 4.705072687314793
Ni 4.781092065859883 10.109735955301883 8.980261614806405
Ni 9.792253573168106 7.787591379129307 6.004455248742393
Ni 4.332743626323664 7.8620870103228215 8.336277183730981
Ni 8.44524650790222 4.739167807027645 3.9135144527186596
Ni 6.905936794531748 6.469332964628965 3.232862439571091
Ni 5.485230521483158 9.48924130483143 6.830113890306888
Ni 4.510166680686853 5.653758196384111 7.377163518399308
Ni 10.738785594323408 7.551360346840586 3.916617527160612
Ni 5.856999461169393 9.742428132862205 11.030357905815102
Ni 6.5739519275749325 8.63528266415217 9.060158246284518
Ni 6.172030521462261 4.184152176526636 3.80458618021508
Ni 4.174961554424286 7.6545652082545725 6.0086247724607595
Ni 10.186931207841978 6.412938771449662 7.926972653498251
Ni 11.56923267663456 6.332131444780824 5.889579048649119
Ni 8.430027152968709 8.282904468200956 3.9520324980273855
Ni 9.168663999170603 6.51969591980976 2.5258849779961636
Ni 4.9572988932735536 3.7885016352817997 5.913652396337859
Ni 7.97998296755822 5.616028500526986 7.753774503465783
Ni 7.240832027272223 4.283648710591984 5.901381291643505
Ni 3.9222827960744975 8.514573560204273 10.513236092024448
Ni 5.904244059746977 7.401747011956416 10.915123623768137
Ni 9.570875065199576 5.078721436402303 6.0446385048843565
Ni 6.100432166703854 6.078399425827954 9.083002022581304
