39
Energy = -169.6931716 eV
Ni 4.3516374585782565 3.139612820471758 2.324084104012612
Ni 6.7859372693018045 4.0814857937158076 2.4660060795058496
Ni 4.748609089273137 5.383625920717175 2.600369279985608
Ni 2.6794466306048292 4.513543836785048 3.343626753712417
Ni 5.9535935291832836 1.7984385455693737 3.381875003294823
Ni 5.26564487609956 8.3329164357466 3.9464839853832823
Ni 6.699929026905491 6.593677237821178 2.7306256590976474
Ni 5.479184015910777 3.870981501692538 4.31984924248966
Ni 3.8087171242142452 2.375519286097222 4.58874473193653
Ni 7.830627888420829 2.856490243015259 4.320539989596206
Ni 3.4381270506253094 6.728574639237312 3.9674144662122153
Ni 6.979858641694479 9.788072702805845 5.054957740904282
Ni 7.585847934826605 7.540781886959681 4.722847387460969
Ni 1.6564039857901118 6.063672369764856 5.301224347057814
Ni 4.744476785919079 10.13031887042684 5.569235365706282
Ni 5.978462206865746 2.0925385316746494 5.797461324346164
Ni 3.0177809249597476 8.705338517869071 5.105678848499216
Ni 5.653175564760859 6.12706286626488 4.819784696430732
Ni 8.164960426219594 5.290254065577487 4.054429395371972
Ni 3.5235794058964145 4.697556784940872 5.426751793483425
Ni 7.099940749259018 4.412024793901378 5.934652166935828
Ni 9.48427251998518 4.035951581419706 5.605975606364271
Ni 5.701114177747811 8.04889630772845 6.243881955844923
Ni 4.180519512767447 3.074009833310546 6.953441291801629
Ni 8.178062329774184 2.4137643447266557 6.705522058531674
Ni 3.527962037497524 6.946971108713785 6.424273022116257
Ni 9.262013852508574 6.362799087150472 5.94363298033389
Ni 6.33583490497823 10.044041028258114 7.335287036789082
Ni 8.196531861140098 8.5914457470698 6.761616729393661
Ni 2.749502732183471 5.07151700650269 7.584094320150982
Ni 5.194517894297142 5.323232143871048 7.049186512587912
Ni 4.1257266320307675 8.943300923871998 7.624855182696562
Ni 7.293896243694759 6.491783672216263 7.039261874444776
Ni 6.364823899216483 3.328964195485314 7.927139784480475
Ni 8.482598858892635 4.590906050196691 7.7992283383291285
Ni 4.305550600559727 6.693593357642659 8.701362159208614
Ni 4.4641108872974415 4.292491385534098 9.036585883325214
Ni 6.252128145261602 7.987171152255048 8.52928379145883
Ni 6.500691810707237 5.550286605263898 9.025336777347203
