31
Energy = -129.44933153 eV
Ni 2.781338430794902 3.2458911273886395 4.9460649257434355
Ni 3.612879544746787 4.320567282551923 3.1321164176120617
Ni 7.3896289630232275 5.616894924558653 7.3628407532068865
Ni 7.577422917614053 6.225780067614464 3.4250120988013983
Ni 8.938654756230804 9.185811859253564 8.74407430618734
Ni 7.692107495024474 5.686779567555044 9.696004959438095
Ni 6.031071102216829 8.030548209683458 3.488725401942602
Ni 7.081205624444284 7.823984982120229 8.975199387273767
Ni 6.115471458487931 4.108607933015336 8.72579620171351
Ni 5.274664952706998 6.268083605184825 8.779310682204345
Ni 8.065720449120326 8.269733930411256 6.797284265299074
Ni 4.3423394355805645 7.685706688025872 5.153983612866579
Ni 5.743205370516546 5.146379996001814 10.73332645225526
Ni 5.253960235875531 5.789952374219209 3.856585738438164
Ni 5.4126543483566625 8.091302207374587 7.321126626524852
Ni 6.539585294178564 6.945064248388379 5.536124340870719
Ni 6.299923518060253 9.318735234160291 5.499465576838427
Ni 5.026470556879617 3.608453118505321 4.883971490593836
Ni 6.816922115459642 9.916030420611053 7.822395012149904
Ni 8.979458830559013 7.512912263944657 10.37398172602786
Ni 8.225347267299572 8.301308651714585 4.439525919563849
Ni 9.858597249683767 6.849761965613523 3.629113126688439
Ni 2.0917102199921325 7.383775101790532 5.462584007630154
Ni 7.1717514232591135 4.685033277523396 5.148938177155846
Ni 8.977055379136841 6.339492553777923 5.7460575679330255
Ni 9.26878721331151 6.7915433538135 8.174718881635144
Ni 5.169604802598893 5.109140737003908 6.676104669016084
Ni 6.477139194403355 3.1275558609571066 6.664118043680309
Ni 9.207564371587981 4.679174062031387 4.049391752043127
Ni 3.5166805763379334 6.735285423160907 7.193511366301711
Ni 3.2802067233246404 5.469281218289853 5.17809914321064
