31
Energy = -130.14903357 eV
Ni 10.505140728646708 6.63753840708105 7.077880914025928
Ni 6.603007145849232 4.3858296832440615 5.742442430328385
Ni 8.432827602310214 7.222371367983952 10.420951876285036
Ni 10.101470206477872 4.34772363494987 7.143972616718578
Ni 9.998901965558975 8.857397310261446 6.822459271638399
Ni 3.6042245810366595 9.15888634397259 4.381321467978778
Ni 6.818604675575106 10.545217554196856 5.48469164889479
Ni 8.318589689788434 7.563047949970843 7.963522602658364
Ni 7.197373988468435 5.636793188798178 9.122382413829914
Ni 6.533605117955402 6.538657203898709 4.855543964289751
Ni 6.257186809678227 6.646480957128393 7.19125509510088
Ni 6.310100718588766 9.110402560397185 7.4494549286005585
Ni 5.561302606610326 4.463791669741361 7.839771073433717
Ni 6.966252675551577 3.4073024245373627 9.663071102367683
Ni 5.033542242070752 10.948410812086264 4.019807446485473
Ni 5.900730460434423 8.72915953473514 4.4128467186989715
Ni 4.314373124040122 6.956371558275319 4.04378781203833
Ni 9.650701660593269 5.700565107280641 9.013918787867922
Ni 9.351138369144632 3.3907194247995553 9.271896225955052
Ni 4.643171237766232 10.281498880584957 6.209210529630354
Ni 10.274479956121159 8.047588318871183 9.077768627409899
Ni 8.430351307785374 5.892055959674686 6.213062493944189
Ni 6.314315070026099 7.788237169826259 9.357917814902336
Ni 8.302837694864587 10.361039918945265 7.179053666551168
Ni 7.884186011145661 3.9513641273077944 7.601844701060325
Ni 10.106104388158997 10.336810581185329 8.653054417869813
Ni 8.480234344795727 4.870898128401753 10.883251943425298
Ni 4.593118812216984 7.935580907255551 6.189122582382253
Ni 8.066951473846192 9.377734078876463 9.343871109079531
Ni 4.575357648455601 5.547144859364689 5.911841033061059
Ni 7.888619575145763 8.32164354735287 5.7588693619041855
