35
Energy = -149.28003022 eV
Ni 2.8114348075932982 5.109985128205238 6.238263336474275
Ni 1.9803871391497627 7.104724763646461 7.394105835500737
Ni 8.440433958322338 6.512736210902929 5.019523744417661
Ni 7.946424420757377 7.987497032096798 6.9592502961571
Ni 9.739704211635022 5.992856953605225 7.379170627913473
Ni 7.3535730467083615 5.69388537372731 7.019224854643228
Ni 4.431902714316016 5.598021773636478 4.537442183231058
Ni 9.123534652330688 9.757872450076517 5.954358363714219
Ni 5.083092348708724 5.059659753721365 6.721669557477591
Ni 10.488748857112215 7.87546064706235 6.260823936003137
Ni 2.7674119508752324 9.160064466165979 6.458594122245421
Ni 6.79521291577618 3.4001874622786556 6.88157000065704
Ni 6.709333262146936 4.744203096772002 4.890354994934117
Ni 6.927869643066105 8.891993775245894 8.88706258337596
Ni 3.7234911844697693 5.81937425949158 8.449630339637045
Ni 10.83859019252365 9.627367504845385 7.69374480294236
Ni 6.030393863295316 4.81325963246174 8.841016934449149
Ni 4.775881230836324 3.3766478313950263 5.249517880828701
Ni 7.7042973791037035 6.5708233278324615 9.16441902866803
Ni 4.748846927909588 9.107300198377061 7.635547595142656
Ni 11.440266273212035 7.2991488033095715 8.347506642462449
Ni 3.9482665484920867 7.225558714406059 6.262188256158542
Ni 6.137260284758173 7.0199250590080045 5.431358817097502
Ni 1.5858550832335732 5.00660593797861 8.176073266498992
Ni 8.881500300368213 4.293102126635409 5.956193284815841
Ni 7.429134995373114 8.790689178800832 4.653217304532787
Ni 9.372890866921054 8.222233479198005 8.862344043923406
Ni 5.051703047751779 9.096620481715304 5.326521890916619
Ni 5.6865039637806385 7.049772035632158 8.050835041330759
Ni 6.760760611084966 9.955476229008433 6.700234407184022
Ni 9.691735546234046 8.23636406177989 4.137978775199425
Ni 9.894229251192261 6.004593628489676 9.66804330211726
Ni 8.631824861749662 10.331368932650902 8.148793125749272
Ni 10.619307598564491 5.8238911558178765 5.189778599969515
Ni 8.440947570666234 4.29418026862876 8.50455933195468
