37
Energy = -160.22757923 eV
Ni 2.06833950755171 7.127241220122497 7.784849258483811
Ni 1.3555791316617603 5.072551133609495 6.785557333458599
Ni 2.2503656477254603 6.875548703573931 5.395169171949922
Ni 4.0055098494503785 8.073269983236896 6.771611904881053
Ni 3.8604583149712886 8.322194225820654 4.460843027874952
Ni 2.5452820109499292 5.044086783930444 8.768833161079181
Ni 2.5762434973491515 4.424968308361998 4.97200075456527
Ni 4.219100993481688 6.782689074431923 8.760315511904212
Ni 5.9565394841774495 8.927808099107622 5.754685378667207
Ni 3.7385225527102035 6.008306292907544 3.704271230587108
Ni 3.7742979918960917 5.718934146845632 6.672085457669789
Ni 5.48517530082303 9.746270250603757 3.579254632931959
Ni 3.4050035938032246 3.494556409332088 7.081928576338452
Ni 5.204086281529188 7.6027167312247155 2.6664536961753744
Ni 3.8438264129396305 3.7142357950205964 3.148292345480155
Ni 6.206947025362698 7.706345841696821 7.795948624794249
Ni 5.526472526472084 6.713547870398123 5.082715740349783
Ni 4.77390343706494 4.437048618151185 8.818927333482446
Ni 6.120577119513474 5.46994978893254 7.153168730572052
Ni 7.196743419980338 8.187304520174134 3.87163778248
Ni 4.975152453349619 5.350762296054881 1.8449457529833764
Ni 4.970335230951271 4.18672961466481 5.16770058412932
Ni 5.834900277974825 3.111420516586854 7.100874898378651
Ni 6.923612639921334 6.033058087654021 2.938302850748989
Ni 7.725257004813243 7.249283877627812 6.02213732687124
Ni 7.050905560526294 4.03519095593236 9.023637296082542
Ni 7.338786264123509 5.026390911698181 5.103283790190379
Ni 6.301700034072739 6.151072624680989 9.614152505448065
Ni 6.2100372891219395 3.8334834918307625 3.1805744388102375
Ni 8.15705950697551 6.057472126909356 8.067115112544732
Ni 8.134866717258797 3.8127197594017423 7.043591013117287
Ni 7.128674742277004 2.7385229997428753 5.080793538379814
Ni 8.930190092646106 6.610271817492551 4.001953321977708
Ni 8.561476365371792 4.311423814999142 3.2722695391674677
Ni 9.451647102196045 5.567443579359425 6.083258280467124
Ni 9.444044949444846 3.3518242336728656 5.202494068898045
Ni 10.658900009081384 5.033875833728563 4.134886367599301
