36
Energy = -155.79949362 eV
Ni 6.876319038242658 4.965579078429719 9.534176250214283
Ni 8.61290592544063 5.831556739844443 8.235587548593392
Ni 7.964788779832201 3.4716778041127707 7.935540003441251
Ni 3.6724438826497137 3.1715171976069456 6.56127848745841
Ni 5.566788311276826 4.254069836092193 7.8206745789192595
Ni 6.251410967172327 2.5357486576948722 6.254625704352761
Ni 7.2268645707689165 7.2540830802360245 9.58358829682471
Ni 4.991693421372674 6.493425883078308 8.979632564219276
Ni 4.732122861102942 2.448563243292222 4.3773943639785085
Ni 2.8663356574116285 3.939578426970611 4.347597345826673
Ni 6.528917630150524 6.536244013435743 7.323912423164838
Ni 3.8108837330640886 5.6186295942657445 7.094783348646811
Ni 9.701747863936186 4.631289640893478 6.516343296255137
Ni 8.556831348426172 2.826875427985353 5.551114349705061
Ni 8.265011903425735 8.254544777398355 7.733654161720517
Ni 5.148123018978011 4.455739494955508 5.445173759785664
Ni 7.38234834204602 4.719706968576774 6.132136642083033
Ni 6.021026039710821 8.731998408824461 8.178921730538619
Ni 8.631412065424282 6.74995887651029 6.023357223928632
Ni 1.8666356041194292 4.874501376604547 6.258422313901015
Ni 2.3691828241729627 7.371835310945255 5.858936654469596
Ni 4.594352260414352 7.755788326979122 6.705116816818204
Ni 8.74154495270934 5.048047355836529 4.282661157007643
Ni 6.843231480453486 3.623364508795527 4.00631835811647
Ni 4.873249448625732 4.512383728462155 3.061021871643094
Ni 8.391547993210713 7.373196025678387 3.870329336721839
Ni 6.212079538234662 6.494403126706309 4.8373147686006295
Ni 6.822541911565916 8.522356239064887 5.772348890047641
Ni 3.7574115296340036 6.1112130368174 4.626128847817075
Ni 2.7660731874569224 5.4685452413444775 2.410043431736898
Ni 6.90606595905689 5.800591586536803 2.786817247295641
Ni 1.3323014819272612 5.828923578351578 4.244378796377677
Ni 4.4300467628850315 8.393870137131783 4.516415527644545
Ni 6.398928110939619 8.26558842086081 3.27039748244547
Ni 4.695049905458403 6.847556551760232 2.587471604065756
Ni 2.5129548421000476 7.650732689238962 3.3455844083549398
