36
Energy = -154.71771337 eV
Ni 2.5389860258213997 6.169790946028433 4.979187678506344
Ni 7.084338842069064 2.7600841740710615 3.5286357493959986
Ni 7.212963499017781 5.655148109915488 6.451650268384215
Ni 3.776000716753596 3.9945215941759247 5.554407546650596
Ni 6.326364088619614 9.538390552770734 7.716055640516658
Ni 4.8684882421843225 6.149338012780478 5.984219563171226
Ni 8.159250364509886 4.082886099922057 7.984287919260728
Ni 5.20106328561166 7.483638120282273 7.994947151379935
Ni 9.474424663136466 4.925472512599569 6.187477827876753
Ni 3.5732050212637874 3.041747628795559 7.640571141131818
Ni 6.248390043618334 8.1913452079143 5.8126188755305845
Ni 8.245882553589167 9.373247859184755 6.012733492025044
Ni 6.395209956866147 5.596275582474625 8.691348779283745
Ni 6.001960517200372 4.274762428714929 4.857538310796036
Ni 7.557322616904174 8.64566034559346 3.8814761661003017
Ni 2.4531914137561253 4.10404383966173 3.705054390659277
Ni 8.167794356749976 6.623855083871448 2.7244540594223348
Ni 4.657781326685774 3.2018037185271524 3.332026300918812
Ni 2.9882512670028856 7.126675131084583 7.089567852318458
Ni 4.319494226434125 5.520411646671295 3.591771127210308
Ni 6.384149379774039 6.590991732367211 4.124079225694078
Ni 8.6341731067718 6.196419868015418 9.114318917976616
Ni 2.14620425399965 4.870299692309078 6.930765743642739
Ni 6.42559898368809 4.803655714821485 2.5577985461204316
Ni 5.805962525845327 3.8125638027860766 7.194137423801903
Ni 10.367325281374752 4.843413862884102 8.351574310411438
Ni 9.942294222075624 6.900999974805398 7.265463492135189
Ni 4.132187761558836 5.276800983386052 8.065850891163183
Ni 7.820461353743443 3.1872287960380317 5.817630348324556
Ni 4.1962526648561616 9.084251456159661 6.521601925991227
Ni 4.284723548269358 7.8034573622646795 4.4255302415332025
Ni 6.850815191052636 7.760383015178552 9.610243826005819
Ni 2.248537550074744 8.48769270967568 5.344130221704132
Ni 8.238144671118567 4.878628705261564 4.224281239061243
Ni 7.834955265000433 7.758593056715169 7.567656300417875
Ni 8.665388303626983 7.101347289905304 5.1925616778617405
