36
Energy = -154.87773991 eV
Ni 6.193785512253317 4.041448863484807 9.070983887935524
Ni 6.0518944558254075 6.421013437160283 9.624934747947172
Ni 7.723946409115359 3.236566484955125 7.434732520839869
Ni 5.870328524834576 8.858880951834907 9.849926401710887
Ni 7.632506820863951 5.58616211863342 8.074550202441767
Ni 5.367024816118704 3.2306765732060367 6.974303356047393
Ni 5.245599002624477 5.520260367731775 7.550811600040975
Ni 7.448240845728407 7.942947515524778 8.420840316765299
Ni 9.51710587397921 4.805073624670831 6.94607280185641
Ni 4.871625733339822 7.785935049198015 8.101175262699947
Ni 8.21260356426923 1.2466254429890133 6.370699418462359
Ni 3.48919081713586 4.461905561802934 6.210311634753373
Ni 3.1566006832902174 6.583629788101895 7.191488723333241
Ni 8.915368758376554 7.036400922852406 6.687888307281002
Ni 7.014298169415589 4.859258812852188 5.807452357776495
Ni 8.978134081975861 3.164579152739313 5.392503947080121
Ni 6.06140186516353 9.679855073782981 7.587006638824357
Ni 6.648520852637896 2.43794069612256 5.202659118471303
Ni 8.256903042109412 9.283292339737779 6.652024783399099
Ni 4.223474954162199 2.556314656450391 5.036660016273097
Ni 6.551602652383576 7.372179205228731 6.288657739344604
Ni 4.259131583799504 8.323836014001985 5.844154113338037
Ni 4.893564999388652 6.0343374669226435 5.202454595400503
Ni 6.421648546896403 9.64394260638751 5.310071231627558
Ni 2.6353146523574074 6.4990407012399105 4.953087706734417
Ni 7.785733954458521 3.882689965401519 3.5597122511815944
Ni 8.040371661527976 7.93559450780856 4.6097986944130165
Ni 8.954452108672015 5.616453231191385 4.773663827119086
Ni 5.487006011745537 4.112498611883739 3.9059880426615172
Ni 4.424746055526204 10.023241339214616 4.2322437545430125
Ni 5.697247127223525 8.007892556729695 3.844946963121532
Ni 3.1792276671583886 4.427063281707131 3.864513187731583
Ni 6.878973689899103 6.0414020027327435 3.687980824593398
Ni 3.3763481437595018 8.117800814144672 3.473463755404074
Ni 4.555009699767612 6.125248069229132 2.860507050363876
Ni 2.2114384931889774 6.239359291684486 2.682881985872534
