32
Energy = -135.77246552 eV
Ni 8.098912723289873 6.3493783836608575 2.6064320857508316
Ni 6.431296129920109 4.809246394256194 2.2727475283653487
Ni 8.828901305907321 6.979842498797647 4.696285448846418
Ni 6.018569872972445 7.183595669944871 1.889517548731008
Ni 6.698915445616831 7.677829922264599 4.066197027861943
Ni 7.038551216840957 5.29966938766746 4.510408722523605
Ni 9.17107048678339 7.195773440425564 6.960210577668553
Ni 7.956514797153205 8.88938096363237 5.8966545794494145
Ni 8.931729550125773 5.036232921890799 5.9724963729750735
Ni 9.97968709665731 7.030879332089257 9.128142085245832
Ni 8.844423636102698 9.06623892034702 8.297071117995346
Ni 4.918117413786582 6.014494363214717 3.5042759363817613
Ni 10.743616720376862 5.54668136742331 7.432741275558707
Ni 4.551492011757816 8.343121030256144 3.5458199978139535
Ni 6.732927631608808 6.881089389727591 6.453698619855515
Ni 5.5895841935849715 9.06035990042577 5.622599806770413
Ni 8.589821380419853 5.2884014245874935 8.291165145682925
Ni 8.952622945609617 8.461659321904511 10.617456684515123
Ni 6.601947816888209 9.584270834969432 7.703298348059925
Ni 7.348615795149294 9.998513855419139 9.92408780824382
Ni 6.807000246524884 4.5594360987493445 6.882624756379872
Ni 7.167053315019917 7.468215489722736 8.77950775676996
Ni 4.949494873430202 4.670504558544742 5.420886831821
Ni 8.235557400723453 6.183796090021709 10.496626428080514
Ni 4.471403926331342 6.9919895530174445 5.56104521180018
Ni 4.816145061639256 8.042098919964122 7.631691260533398
Ni 6.456795628903584 5.123535615507147 9.184487754916075
Ni 4.841673745269751 5.693785221385351 7.549061948073592
Ni 6.671409184256433 7.983686787373957 11.025777368531733
Ni 5.205975698340426 9.195295208020767 9.610779758028992
Ni 4.941002758515354 6.843780746367769 9.661530360325122
Ni 6.122379169839082 5.7608284836152475 11.418415242562157
