31
Energy = -131.36452169 eV
Ni 8.960669859121927 2.9478665473093275 6.88143886778043
Ni 6.846072321643383 3.626413168158861 7.591279333702838
Ni 8.605766943346767 4.605018420039756 8.784656929269797
Ni 4.555591692441971 4.167107762856371 8.329598019204814
Ni 7.335331041677115 3.6069983527578393 5.255213304846608
Ni 6.460391300660616 5.674050515465479 8.584215894075843
Ni 4.473362460843647 6.341480409287131 7.530481753891819
Ni 2.5483743736454625 5.6087250062724285 8.55129926626352
Ni 5.113971963288961 3.815268673532082 6.0780240991059316
Ni 9.674414750753128 3.9931528681402697 4.830168461940051
Ni 8.774927877877884 5.212015077206853 6.583133153933234
Ni 10.088572683482159 6.306256194393324 4.999605287628342
Ni 2.8952235674893525 4.548248391354028 6.544356634662973
Ni 8.40907480569832 6.931366371888075 8.127298135538886
Ni 6.38793270765374 5.801483042708548 6.143832309604215
Ni 3.5466970572753747 3.7042780230540635 4.4038855493299005
Ni 8.212317114673517 7.490329069480001 5.789723609363045
Ni 2.3990996285840125 6.877709827400595 6.475132075918063
Ni 6.300276920149191 7.827069228629646 7.4666872388301035
Ni 4.183509132859068 5.988413553786388 5.060363740517037
Ni 7.996813916849953 5.632823587009303 4.244308604880566
Ni 2.012924330693885 5.5502145119285595 4.478834287611402
Ni 8.20194487257874 9.190549818312709 7.370698629881359
Ni 5.736329399449595 4.840668507820367 3.8295965934542857
Ni 4.457583531138066 8.153396921149222 5.962240161373032
Ni 6.335632914028697 7.2945209559403725 4.288268527209636
Ni 3.4145475817131614 5.083237520341402 2.609912691949393
Ni 2.821932222008964 7.809036466588892 4.250709369510227
Ni 6.5749314875684295 9.226344967922524 5.622987921839334
Ni 4.560005766058391 6.984166046522307 2.8977036124734834
Ni 4.868191986241375 9.099232156078806 3.879634296756209
