35
Energy = -150.63358829 eV
Ni 4.761810529499117 6.83964558598512 4.742111035846478
Ni 5.0286930663214875 6.644580955283642 9.418262510549924
Ni 6.892893862768006 3.198829567356673 9.225314529911328
Ni 5.598615914929836 5.639314434783348 2.852133224460172
Ni 8.271861196952035 2.5164481795844944 7.3969842815991
Ni 4.58872824826075 5.299439161152919 6.684748493556435
Ni 5.097375763292955 9.46906095999031 3.897043149375847
Ni 4.299431245459205 9.205316628667127 6.135015109190564
Ni 3.827037467284123 8.410154481680271 8.39260456989468
Ni 9.867182086422574 5.352490361308348 4.7962677687917745
Ni 3.1107424089681115 7.1936642908848 6.406906781207117
Ni 8.801400515839854 4.380085698316005 8.684180670842824
Ni 7.848626346758625 7.965921600365123 7.283536617481419
Ni 6.8644012026635925 5.503222100519752 7.869736887939396
Ni 5.7537477988622125 10.931488526722717 5.643100170643953
Ni 4.948216816867374 4.416761122633913 8.889976914318483
Ni 6.112307763175026 3.4427026222656356 6.992494490442345
Ni 6.674344574107564 8.814411564305331 5.481750771267148
Ni 6.701357954137606 7.61982507997618 3.461640137469512
Ni 3.095014645910629 6.004478005984239 8.400817353229126
Ni 6.929257374735316 6.347946645530518 5.648040371082985
Ni 8.055249047617153 4.163265248665828 5.764975547802206
Ni 5.485610082062265 7.405125475194468 7.217252627685787
Ni 8.805618029988402 6.719905525100803 9.116929474514599
Ni 9.149902572646038 6.1090054507364195 6.829935089240035
Ni 6.831777055718617 8.00272472288709 9.343724823197086
Ni 10.770265276083089 5.6104690049973165 8.386526523647298
Ni 3.024304377550814 8.368566485741214 4.333408741503545
Ni 6.063781581002872 9.640445228668101 7.696325796507647
Ni 7.80888672847244 5.466382859662814 3.6831993636756915
Ni 7.003063553382343 5.487152800857395 10.13065908216031
Ni 10.182245337796807 3.9577988419886974 6.777351591955856
Ni 5.856251272366063 4.451029508602676 4.845817334854262
Ni 8.714378815173891 7.534540843566278 4.900888308352116
Ni 4.453638847571865 7.674616245334855 2.565230404832326
