31
Energy = -131.20788744 eV
Ni 9.266585670958577 6.590338141999867 12.233191299906206
Ni 6.983759644888358 6.125585201845253 11.710116714770631
Ni 8.626492476970517 9.190907739402205 4.433722234504944
Ni 3.974560478329891 6.737480174697168 6.624102721202567
Ni 8.243581248158538 7.993751509996615 10.685520723725919
Ni 9.98290896666753 6.163815452518945 10.003137179267755
Ni 5.426734495085976 5.77501729790435 8.359451548880907
Ni 9.421972727478607 5.758173301603724 7.626592148699548
Ni 4.65701084915095 8.868594366176856 5.782099816037075
Ni 6.747584852278205 8.241268292721092 3.0609734844771643
Ni 8.708625064963666 6.981105533283997 3.7769688137648103
Ni 6.80044534926505 7.7330291189712 5.256209173100074
Ni 6.477306167133782 10.042367488417664 4.860603028286901
Ni 5.883037247580373 10.343282491997241 7.203300793157825
Ni 5.344601054398805 8.14950167618586 7.8808025589184565
Ni 8.614302674089075 4.57862566290947 11.293332434989217
Ni 4.7082798707425155 9.271441269044487 3.476985423995448
Ni 7.9004205754927295 9.303576392915359 6.737756035951718
Ni 4.744473547953016 7.052719309395929 4.315760452041781
Ni 7.297681158551799 4.501695152849402 7.561387287795796
Ni 6.61058052975222 4.190126940891952 9.905778791900095
Ni 9.280564270554104 7.530340503266138 6.051544993823838
Ni 8.968248734475049 3.9738862743462526 9.110354142686495
Ni 7.148866851311891 9.211017606662338 8.946435648688261
Ni 5.863015274597666 5.5958689905256405 5.976427553052805
Ni 8.197575857907246 5.487135709214982 5.553917684796604
Ni 9.169790070470658 7.988792441131679 8.476211001114843
Ni 6.685407534207061 5.8404942754902205 3.715392386643547
Ni 7.317496126469179 6.954059981530603 7.394085004132501
Ni 5.988188786144225 7.441097353049441 10.024492050827666
Ni 7.7890844271220026 6.0392701653373 9.495291168843476
