32
Energy = -135.6964228 eV
Ni 6.51742872038416 8.558974530387552 8.78696152663982
Ni 9.595102390693915 4.845409591374184 5.129752563108227
Ni 5.6937356199691855 6.04961801903079 2.5019956746558645
Ni 8.024921797122047 6.444645411878007 5.937711081256621
Ni 3.616046655815831 6.8136771367562385 3.542981903618249
Ni 6.813398494916333 2.0342083974931278 4.883347298035805
Ni 3.0324635323423466 3.3936106739402536 6.53878557694477
Ni 5.282284293526956 6.634907980552965 8.82639001317154
Ni 2.3137487784839412 7.66965973578852 5.314317259092509
Ni 6.915359246331689 2.792076665034549 7.128771235806065
Ni 5.724628387154077 5.989329949607707 4.825840022127795
Ni 6.138644571171868 7.611890557745806 6.746078781066587
Ni 7.896670658218206 5.848039770817275 3.616209312850168
Ni 3.7706726757767957 7.425809784510789 7.150941088095561
Ni 6.321871129992822 3.897251608160621 3.327880886904412
Ni 4.630984484403807 8.283309350501547 5.096789542419435
Ni 8.533959436620025 4.555565738667872 7.343473035090255
Ni 4.837805234632025 3.2768656022847633 7.994289924107815
Ni 8.966118412442423 2.6620807308197802 5.92691803019461
Ni 4.9481075546726 1.6181569612164877 6.366969464896278
Ni 6.919545925460993 7.991214206304527 4.488787627890969
Ni 3.0645591949853377 9.062949377500944 3.543643240533478
Ni 5.072954097531322 3.6884105041850646 5.462269645316984
Ni 5.237683840351443 8.395812956477767 2.81697630480378
Ni 4.0942800307791805 4.554417524094418 3.5225192624097694
Ni 7.372481894583997 7.640726748171954 2.202778538707284
Ni 6.109970357954385 5.151343127610599 7.235965075282782
Ni 3.5063728797658884 5.5615031469180725 5.644166763103593
Ni 1.7425834143339094 6.155514527523339 7.01379343926124
Ni 7.65392617542271 6.57668664387012 8.300425137607915
Ni 7.402586898292985 4.252616690342884 5.302286362654556
Ni 3.642756486951777 5.217643234296201 7.990429648028784
