30
Energy = -126.87802746 eV
Ni 2.478309657926283 4.508253163656776 4.277665450278724
Ni 3.924713492143956 2.969470932519556 2.709371173627972
Ni 4.1928379605544395 5.247650909845776 2.5771874182618935
Ni 3.1863424623615515 2.306316801834495 4.84886932977899
Ni 3.486944773607524 3.9438979954816205 6.547526999904071
Ni 3.826858518430535 6.498849541875346 4.548832515956075
Ni 5.561127724328141 8.150503060725024 4.850647688107982
Ni 3.947720145062831 7.726322099725935 6.561527022357351
Ni 4.729228505686896 4.175704038889651 4.6070809987109955
Ni 6.413602402665873 3.853241685750035 3.1294395676086206
Ni 5.421752344702404 1.8856401542190635 4.1536962573192255
Ni 6.0163854650106865 6.243439207522706 3.6213503888053493
Ni 2.407893116225097 5.962647092300495 6.295981232407399
Ni 4.864634936845051 2.0112882900329447 6.481965947521624
Ni 5.398063795184986 9.572342901266866 6.750797725333733
Ni 4.120736643187634 5.8097331930292535 8.040557279776774
Ni 7.38942793406211 9.548484242084273 5.402477949988286
Ni 6.660176333499977 3.2939247400937233 5.616740773322377
Ni 5.491625349502365 5.744712621810106 6.180040636114098
Ni 7.266475323825113 7.277021761069557 6.22463478796001
Ni 8.020009139215599 7.561603145635555 4.127591007861234
Ni 7.674653442527959 5.194771323483621 4.749521840419352
Ni 5.567941862363482 3.8871088162298344 7.700224306119524
Ni 5.801833825636247 7.6019518044046075 8.013100486886982
Ni 7.5206736775801115 9.209544292249017 7.725937563930332
Ni 7.614548214198904 4.943716668794795 7.121868566526488
Ni 6.424147743931542 5.629566557591418 8.995811375203614
Ni 9.284570374968126 8.488818764384666 6.324012892028872
Ni 9.324143050658313 6.18649999581744 6.0553929074596695
Ni 8.306883373341964 7.000352497650515 8.227094408981573
