37
Energy = -160.87943189 eV
Ni 6.392619483493937 5.1988565761827585 1.5018389130001157
Ni 4.114304478246021 4.945283547262078 0.7689738663585001
Ni 5.035678574027202 7.188358916535891 1.0773784506979576
Ni 1.6941074442480124 1.0811784118723784 2.3122029317025268
Ni 5.044743222629756 3.4051007389949173 2.9565524353369166
Ni 4.52190681349318 2.0294185058044993 4.908750262578969
Ni 6.536494910136751 7.222203087689953 3.003253059897187
Ni 0.4461473849468864 1.2038401949028863 4.322379821886294
Ni 1.6913951289999805 4.954942704323326 0.774934995032757
Ni 6.637052070579867 5.074013564601255 4.037588327656215
Ni 3.3681499487607187 1.0988827849097744 6.67979709633266
Ni 4.69130366081621 5.827361139713283 2.9478666381582617
Ni 6.672964619526547 2.8890555716916224 4.857397074429787
Ni 2.741388071056649 6.7839306832849084 1.9121950186417729
Ni 2.798317789945476 4.53627834038686 2.766847793532979
Ni 6.256709009779588 1.3364135889112914 3.052645519148965
Ni 3.0655353739085065 2.821026510963576 1.2338504200655984
Ni 0.8297864449756874 3.2822034054111033 2.1821652270771095
Ni 4.304229474898885 8.142887915354978 3.191978193054397
Ni 2.7017125019485366 0.3249678107329929 4.451357178803006
Ni 3.9963285240583577 1.2131109484455584 2.661643478929693
Ni 5.567070055977149 2.9677639386071735 0.8351783987438903
Ni 2.3362457503297627 2.649836982320391 4.0321415100708204
Ni 4.039362370400536 4.442798051075434 4.7980307281167205
Ni 0.11278801423914434 3.5253655160657518 4.421638239323797
Ni 2.8582737489177434 6.586360952885295 4.319268715741496
Ni 1.7942579728444197 4.732867905502949 5.4329521019705505
Ni 7.367552039516679 3.3296115949140423 2.5532822787425307
Ni 5.222189282447763 6.745433600615397 5.048178218304422
Ni 1.2534020195389584 0.11316144870407159 6.241944839811059
Ni 3.5129092106784396 3.4961155917938607 6.837408598578156
Ni 5.009866914432481 8.14288791535498 4.436035857268311
Ni 0.8534392531898842 5.54557804865274 3.2441145380353285
Ni 5.732936907724267 4.621688852453922 6.299715418914341
Ni 5.534753217022716 2.275196501325616 6.931272797817279
Ni 3.5888812679274427 5.8908025136820035 6.569951726038863
Ni 1.4591547712498465 2.4419601649368556 6.181247057114721
