34
Energy = -145.84769238 eV
Ni 7.102094899581312 3.8566568808664106 8.261661604025708
Ni 7.132634094546593 6.357804634568736 4.305293733423387
Ni 11.051554379100969 3.581760734900005 7.93492970385557
Ni 7.461917138185765 7.588953717752115 6.443735250008334
Ni 8.852250250858193 4.587086120601197 4.616060698924595
Ni 5.387343981081204 7.132139039038963 9.830208665647993
Ni 6.27429199029043 11.162147276876444 7.645259221111449
Ni 7.994033323779177 9.625072797359488 7.941825088763151
Ni 7.082452849438864 4.8639247895318265 6.092465097082153
Ni 3.6208968214580355 8.005046566278487 5.599868504735213
Ni 10.629752867044878 5.079427965470521 6.155126325371044
Ni 9.658354887150615 7.923402211124034 8.085708509210393
Ni 7.234672664346129 5.497551067518781 9.942468339485657
Ni 10.94085800719753 5.901285065413393 8.33718782850645
Ni 11.217987981190264 7.399837845564632 6.452043232780134
Ni 2.870168230184434 9.146556750734037 7.430322800748463
Ni 9.351008469561245 6.508731725939676 9.989555182006352
Ni 6.128430854440909 5.995896351165941 7.936243729455513
Ni 5.5284462138557355 8.558940403637289 7.430872964102586
Ni 8.968064804862038 3.5641217744165483 6.820498408362407
Ni 8.060135167381608 8.53272437693919 4.20245572524455
Ni 9.414061598631937 9.064136603497325 6.065185428162675
Ni 5.765767167139385 8.388091613610223 4.793180953349739
Ni 6.050117308076152 9.523302043393715 9.439052459506
Ni 9.309769543474223 6.783863622762626 5.26114422909743
Ni 8.692406987522064 5.798495686968234 7.578806799558176
Ni 4.650836959900921 10.180273652611566 6.087430920787007
Ni 7.110826680680665 9.983028692911281 5.8265975848220535
Ni 9.240268098264549 4.247332676598325 9.23507115454304
Ni 7.505068943240266 7.635383707247881 9.002157086636032
Ni 3.916210914673995 6.978141404981758 7.801336684079014
Ni 4.183036966311059 10.710064881513375 8.438534561172274
Ni 5.259668652735574 6.375141690144634 5.833632808633652
Ni 3.752240517467217 8.709873685598538 9.512705362936915
