33
Energy = -140.30052787 eV
Ni 6.089789921239419 4.252036159455682 2.2351302851157104
Ni 8.105795886043527 3.94857218409731 4.258544736830006
Ni 7.299495715275059 6.017731548176321 3.034008723422618
Ni 8.854623299889111 6.282991673037956 4.739846010774732
Ni 9.68106063195488 4.644927317666827 6.1807450830129005
Ni 7.863429163769215 8.183192533556642 3.6883634367105502
Ni 4.854989001523451 6.318727584508776 3.0943581882638878
Ni 5.8807642049140165 2.475382724517511 3.8077937192380884
Ni 3.9872782630995753 4.047293747803589 3.2877279298123403
Ni 6.631391551933951 2.915398619881538 6.04137800070824
Ni 8.358702038853043 3.3052906435482803 7.536660732423297
Ni 5.912875119568727 4.66803697331489 4.507842025593489
Ni 7.45385217096223 5.110093293488404 6.256064410635177
Ni 8.79420139795126 6.468288253702396 7.639936761439306
Ni 6.2504225934407645 7.041000773712216 4.930999820605394
Ni 8.112282959868764 8.0871939182613 5.987517234784718
Ni 4.3082015714333455 3.1584798608484532 5.459451503026771
Ni 3.968393328919097 5.725963858806921 5.342586037758129
Ni 2.6373449542391896 7.020517984637795 3.555358180274445
Ni 7.8049157918184 8.75298579085912 8.14290724717301
Ni 2.0657017063230563 4.920051802195488 4.215935342172444
Ni 5.155552072383242 4.678573912491629 7.112589749865547
Ni 6.393056257546827 6.907461524866984 7.330832397725789
Ni 4.1677767933148955 8.095017098470938 4.917904485510178
Ni 7.073630887392397 4.907127293338226 8.583203795244433
Ni 2.4674916213187545 4.18428992324701 6.3501609456598525
Ni 7.26469968239595 6.996092631269598 9.582317927957124
Ni 3.081577526785824 5.689358251898165 7.8970275494574675
Ni 5.924818823280937 9.008252044019715 6.42323586857636
Ni 2.1842126104786055 6.930590145541119 5.939314790199588
Ni 5.04316742801327 6.169499555311815 9.079933910680147
Ni 4.129295194487014 7.5866112086706545 7.213075583477584
Ni 5.56416589904682 8.53245737453177 8.829699406758207
