31
Energy = -131.45964344 eV
Ni 8.606136808137538 4.164132660608397 4.287503702510164
Ni 8.045576163867041 11.12964083427384 9.852744501099647
Ni 11.238735675164806 9.375177335352943 6.907175704353919
Ni 7.060389371897878 5.838820352369816 4.049870821178775
Ni 7.786429212018111 5.587041675435747 10.115312435843869
Ni 7.249753876896657 7.73027325939315 9.405454114752377
Ni 5.096176590787957 8.38170193353809 10.444504470455275
Ni 7.203211389111665 9.296606361815446 11.19350771171444
Ni 7.709768910142457 10.282456326467715 5.160522776278627
Ni 8.946207430627373 9.025899133791295 7.905924959133389
Ni 7.3536636099180965 7.989971993785071 4.743870662948965
Ni 8.929843639814596 5.185338184013236 7.831725846199712
Ni 5.383406070896955 6.1047610726157115 10.00808712211777
Ni 9.388583368472263 8.621099567797403 5.599060791272793
Ni 6.58246607780544 9.023899477346605 6.769759556372332
Ni 11.205357137549044 8.550268994459543 9.019206025431906
Ni 10.384509930665267 7.110018180313491 7.127194718348622
Ni 7.746326217392332 10.980069865981607 7.51436962284675
Ni 9.509483274650208 6.976101269609453 9.280831117721846
Ni 9.684058747232095 10.913425693579216 6.210357397193745
Ni 6.537569710068588 7.035872046774337 11.769167829801583
Ni 9.139077240129275 6.156514910911671 5.309534604512856
Ni 5.829908199914245 6.723031123794472 6.035703106747364
Ni 7.3091761191284395 4.808186806757193 6.08200374035962
Ni 8.765845747192296 7.392910646858266 11.455270040582796
Ni 7.910406740569839 7.104662866593471 7.039931221373996
Ni 10.116598982531956 10.84092722089255 8.590059425969674
Ni 9.344367687028083 9.254360817412152 10.215069751400032
Ni 6.281649507370807 9.812544824388898 8.983286929307484
Ni 6.5211583543555145 5.523658543109979 8.105711821326286
Ni 5.270530033092232 7.661754335384711 8.144129192181836
