33
Energy = -139.89411385 eV
Ni 4.796634527067806 8.272866304760047 8.376039077455387
Ni 8.274506956060955 3.0713228237682486 4.601873258224567
Ni 6.656357556184579 8.381997609026735 9.830937337892346
Ni 5.944380827503732 6.080691568195441 9.406833872089758
Ni 8.974172395162768 6.975656919812056 6.935961221922475
Ni 7.2833369810064355 6.611221866543665 11.237503068457398
Ni 3.6885775105150946 6.278146424258237 8.676043609309254
Ni 6.449618766153453 4.281546406224374 3.647764312099807
Ni 5.337372182745851 6.51766175114999 3.453884462287094
Ni 7.64124474131485 5.0443620920109735 7.706414701009967
Ni 5.8305587057218755 9.406404161500445 6.503991494667442
Ni 8.487955798168823 2.9944802496959686 7.004833869599471
Ni 6.873484727707389 5.743644455983429 1.8575080096007504
Ni 5.277847099827833 5.328220156767907 7.248903497841851
Ni 9.09808372995122 4.893302847705306 5.777096139726594
Ni 8.552224435274624 5.205426326884255 3.433794300511015
Ni 2.990818533976186 5.490438764005926 6.599929705282565
Ni 8.378610680594994 6.896574471989808 9.183173697205255
Ni 3.0519816286662627 7.778044770652325 6.877856338165943
Ni 7.6997198006100565 8.382167440937629 5.526396766276643
Ni 4.994114638114242 7.292128022177785 5.782771630869589
Ni 5.760828204511659 8.791401397666725 4.198305824917363
Ni 7.98578670507425 9.063083232353277 7.934396180737052
Ni 7.016120913138012 6.004157251117807 5.270542370215669
Ni 6.695812546811308 7.269102696660034 7.45023060302151
Ni 9.441585487505604 6.972054737531358 4.6537093453080915
Ni 7.519084096065576 7.419488725781079 3.354396179566279
Ni 3.1594290617292624 6.703685617904647 4.509365015864435
Ni 6.531031789628128 3.7434330785445917 5.98446616060459
Ni 2.4077885051660184 4.518039274740885 4.629338147177486
Ni 7.810246168134097 4.737627992698724 9.969291549798928
Ni 4.639480417966294 4.872269156931402 5.00451005720567
Ni 6.0213484107502495 10.249495932827402 8.642082723896388
