31
Energy = -130.63281442 eV
Ni 7.828193500544146 8.86254061089423 3.3386862593454416
Ni 6.1031081092375 7.690625040665252 2.255958458620079
Ni 5.533748258287575 9.402831628071931 3.712873871283193
Ni 9.164228412691296 7.712289504465803 4.916575444291331
Ni 7.69295626381158 6.523946952324711 3.6240992637159244
Ni 6.918500672858803 8.832748320220697 5.4816891160265175
Ni 5.601358639856841 7.100065964562463 4.52222663830224
Ni 5.695775718846165 5.461515486430651 2.7111836818303847
Ni 4.453151232341597 8.982188410134333 5.770226004645364
Ni 7.550240837203117 6.64721471458204 6.158126439749432
Ni 8.924284691388097 5.071159442121572 5.14125350209501
Ni 6.6785895013413805 4.616369431449642 4.638619395678932
Ni 5.66518277006144 7.655427715160367 7.159978966274096
Ni 3.7022962367901684 5.735158400808615 3.860022256784051
Ni 3.722021948374815 6.759916348603061 5.961146553574418
Ni 4.702734448379016 3.5687156214180304 3.728132552167621
Ni 1.812730116992866 5.575162197404274 5.349858919433998
Ni 5.639964781134802 5.271286591281764 6.669583264849336
Ni 3.436969547189164 7.852957766001077 7.931792566924894
Ni 2.3617642110887274 3.844873276117917 3.8239369259422062
Ni 2.823161585237218 5.431194029431804 7.607391734073039
Ni 7.919452438293059 2.9213759796420073 5.693299139713982
Ni 7.160899017909044 6.508692010985734 8.519629284412764
Ni 3.631951390224922 4.20301667366229 5.760637913054952
Ni 5.5390970451030705 2.8682997453161807 5.846442282421351
Ni 4.796108900538775 6.046301790523198 8.717636376343693
Ni 7.825405261451584 4.604031567310275 7.2972302268977245
Ni 4.5390189656487125 3.6872034587359748 7.9598777994095675
Ni 6.690009763191294 2.5547870748481794 7.8170439989417835
Ni 6.4229948080707535 4.401208877902573 9.212772689041424
Ni 6.819838953078934 0.9626333960901837 6.167806501322242
