39
Energy = -169.18957148 eV
Ni 8.559576940568121 8.631225660844478 6.053221006733309
Ni 8.239990193172384 6.173901723412734 6.467501453511309
Ni 7.499680107533669 7.25468011124293 4.568790507655794
Ni 6.008941750511099 8.256993951581245 3.1552412633291165
Ni 10.123996354847435 5.152643633117037 7.535398631068442
Ni 7.888933255704526 4.889251015952845 4.43916101296787
Ni 9.730604738374664 7.455581667503948 7.769296878831227
Ni 7.211464125374195 6.171518302506303 2.4761634250740223
Ni 8.493286375688875 3.82063623633173 6.5152183690348515
Ni 8.978144652939752 3.462988330523017 8.763441124453772
Ni 5.960549341499613 7.495019010947675 0.9494281470855739
Ni 6.991631781628107 2.68335994424128 5.090055083098704
Ni 7.4453438791981945 7.896162286569344 7.9306916939738406
Ni 7.579949372389125 1.9522432232178362 7.467388628024619
Ni 6.246971523228777 3.8376366659983283 3.0918188885211384
Ni 5.575275535584705 5.859959313249135 4.105434860986774
Ni 5.439243161897511 5.219921529553414 1.3173414650989217
Ni 8.246628890243326 5.785586496279555 8.786481242727078
Ni 4.228998222372311 6.906252847491037 2.409031169089767
Ni 6.23256548118192 4.6535476484810046 6.163605297200497
Ni 3.8951729900776493 4.563327596874019 2.970473650055082
Ni 5.399275914545924 2.5273527102546582 6.945499112394445
Ni 5.679021155068542 6.933286804176544 6.4768158858951015
Ni 5.888902318546939 6.1848611616537195 8.712568908206938
Ni 6.737523014898886 3.9872085615532495 8.40318863068702
Ni 4.229745668202917 7.824786536558558 4.626613026136265
Ni 6.159359635390538 8.976780618882456 5.661858657249869
Ni 4.660558713549276 3.336597396631318 4.826751086555658
Ni 3.8521698204102073 5.4972543061992205 5.66751474865104
Ni 4.436011107380955 4.549586816410177 7.807205701706012
Ni 5.304250076272459 8.507242876551132 8.286574255750207
Ni 3.8235011194625876 8.903905407834781 6.6065896529633905
Ni 2.4879372061698333 6.28088411398815 3.8356043708821943
Ni 3.134987994185197 2.9754019337491795 6.637102962558736
Ni 3.704891459756841 6.820548297428698 7.847707109229011
Ni 2.257852122819351 7.270292705266158 5.989888518087864
Ni 2.3255082504515405 4.051514530378643 4.723823734618843
Ni 2.112429359659234 5.08421247304943 7.112164212539064
Ni 0.7285515511560707 5.665270715457955 5.306770789310215
