33
Energy = -141.36628272 eV
Ni 3.420688479316378 5.519317915207974 2.899707428538453
Ni 2.255165059017669 4.816670095696677 4.8989525644094085
Ni 4.681910614030085 6.260289328689588 1.0354012551885041
Ni 3.1091580942812524 2.8090045281270277 5.9241317814204235
Ni 4.405090292362287 3.8880830126991595 4.275620840444488
Ni 1.9176477173505242 4.257774763123228 7.299066855657725
Ni 5.72600011031897 4.857954986048982 2.567482009550128
Ni 5.459571417790331 3.0458396406319923 6.283623405823595
Ni 6.7523929807703205 3.505433679015278 4.303499623080524
Ni 5.139430607635582 7.214554487007354 3.1086567489175034
Ni 3.660310878386699 6.7684060196114455 4.87436694364459
Ni 2.1837259797732207 6.441108172603724 6.707192706108187
Ni 4.153811711351119 5.016483686836151 6.428297984136686
Ni 5.995406638515212 5.729116095107965 4.783703796193254
Ni 3.8887002955387273 3.244661704466566 8.112396838072225
Ni 6.93610368787065 6.722978020789637 1.702644454985663
Ni 7.968957302721624 5.3306699123106736 3.2927183229352393
Ni 9.038098796484727 3.9657128581998538 4.858880206174247
Ni 3.5761392354551664 5.579082424240109 8.618522869350912
Ni 7.368427122687735 4.352411201090669 6.461763594309288
Ni 5.787891667459457 4.612579923321463 8.21496381309657
Ni 7.394885747156537 7.5856427141717635 3.87620940356849
Ni 5.56646514966316 8.150795297362796 5.2926438158025055
Ni 4.209071949973135 7.41341997689825 7.153536895812199
Ni 8.537533175499187 6.217778777197049 5.461055193226923
Ni 6.510616465441421 6.621023488023732 6.9029736438008635
Ni 9.596730486887472 4.8084037055280815 7.011403200289746
Ni 5.639866705181021 6.837678141490871 9.05147987112725
Ni 7.893672519572191 5.6570676806292015 8.493052034932989
Ni 7.8317408293872335 8.37588959672207 6.149444433948056
Ni 5.9000364407989005 8.914542532573716 7.557190124590926
Ni 9.492283087038624 7.11475418572558 7.420621377633191
Ni 7.725451918428373 8.000680437538724 8.600080884837057
