33
Energy = -139.82920009 eV
Ni 11.909477642949106 9.849256176198608 3.4042568089491283
Ni 5.0408568468272605 4.200004722808794 9.141434799642301
Ni 4.511397567031148 10.115437729147363 7.159457576279776
Ni 9.25423020916327 7.286944646998351 4.369888776047114
Ni 6.289451980577155 10.105780027612688 8.821249033209154
Ni 7.522019047845527 4.2000389909429305 9.111789356217095
Ni 9.766498103123434 9.56998708592145 4.004236192149408
Ni 7.965659761377552 6.63468857424167 9.1910640843151
Ni 6.343176801663511 4.516558475403264 5.480989752140698
Ni 10.575460547728898 6.525478565025399 6.216004176399167
Ni 3.6061389198855873 7.993290039986537 6.93315099407691
Ni 4.316817541215111 4.571810235294294 6.970172949138346
Ni 4.18371912839507 8.778124009377452 9.041544685258286
Ni 9.244478409885916 5.28855673117122 7.76670780489033
Ni 9.881987277769186 7.661069060099046 8.298918099127665
Ni 8.231871611858114 9.348737310106719 7.632553704112268
Ni 8.143236731399982 3.4741191831794747 6.849294934867078
Ni 5.0182628985989455 6.484955403500361 5.966093835264283
Ni 6.003288760157966 3.044537573829029 7.419887317269064
Ni 6.618751286038589 5.525006131138222 7.503269964355808
Ni 6.6208721951684515 10.549310570829478 6.4463103698124415
Ni 7.7860705465150515 9.028424660350382 5.172124946942201
Ni 11.477849166527715 7.9938019694263875 4.560363906481663
Ni 8.636149123619742 5.25485606352557 5.412486820666954
Ni 10.00707084946182 8.825846733510563 6.183666258980011
Ni 6.924197936399994 6.825675157286595 4.749590668502173
Ni 8.215700757671657 7.172759199160037 6.682330418191367
Ni 6.2046086104661216 7.999970087134208 9.83354420823936
Ni 8.362608438839803 8.871181912511334 9.85343062053744
Ni 6.161619217644358 5.7524756013603735 10.355817440050206
Ni 5.3940365008375375 8.754511579846588 5.302849257631169
Ni 6.0758785832106925 8.157930684472706 7.435266085275639
Ni 4.654994670470524 6.47197617897339 8.543900924207128
