37
Energy = -160.11820904 eV
Ni 6.9934727626106294 3.525531061495156 3.1454230467283604
Ni 4.765823140891236 4.032064642199236 3.7534496054248727
Ni 8.23446253623775 5.342613680788219 2.4528270717460527
Ni 5.678211959963517 1.9296340169116648 4.349397319214575
Ni 5.79074178092345 5.2675081456052695 1.884105861454232
Ni 8.00654668958536 2.258801652457767 4.913365783089512
Ni 8.589590927747171 4.561784069687704 4.682310481102246
Ni 3.1418237268661264 5.060527796243593 5.178071620913991
Ni 7.312281043275304 7.434885215729443 2.329107905669357
Ni 6.458017740949499 4.014861055352253 5.46357456974083
Ni 8.635875578355588 6.925816241669343 4.246420808087849
Ni 5.046614824686761 7.537306414701612 2.4247651351844985
Ni 3.5964955584974247 5.743202145800572 2.806112218973879
Ni 6.3940218396467445 1.9155102274109717 6.610865749176433
Ni 4.310137773887857 3.1314914407802257 5.950298966713205
Ni 8.158416993225815 3.638784431346981 6.936397908808349
Ni 6.405289032180603 5.9317690410604955 3.967818947789859
Ni 9.119168565001631 5.8760525185319326 6.577585389602933
Ni 4.331714895510557 7.045381179186229 4.566597716310704
Ni 6.3781098026780025 8.39445323352945 4.384275562138548
Ni 5.646484069905943 3.7497977039579995 7.828430692080321
Ni 7.154694643742501 6.921593266837852 6.002297826128284
Ni 5.1154528711129075 5.674881522533452 6.41171780567264
Ni 7.161015615788808 5.527056871632358 7.927081545009718
Ni 3.3546697995271115 4.674737712972312 7.585688307464081
Ni 8.277453368909695 7.642468290276797 7.959509578737173
Ni 3.1683212511941687 6.94604680297421 6.6444930534419955
Ni 4.63810768418821 8.80769361895155 6.042333102267876
Ni 6.973606923140282 9.263878231870454 6.629395098017561
Ni 5.691157809728574 7.65487051836042 7.764069832884672
Ni 4.986642147993074 5.738097496613974 8.990026317882652
Ni 6.8489627350067686 6.987184425224871 9.769973819323054
Ni 2.903515410033849 6.6888663469054235 8.967459817660586
Ni 6.985831106049304 9.221432551997639 9.161914511202554
Ni 3.204136652918257 8.807975566490045 8.010212103326891
Ni 5.160765750606959 10.005708089050348 8.033666895239705
Ni 4.71742264648845 8.16207069277253 9.74682753460643
