30
Energy = -126.19534227 eV
Ni 2.8956251538149296 7.016175686187625 5.154546268141426
Ni 3.7441813737752723 9.305437668561604 4.856047492564369
Ni 3.858407718228702 8.401897483926554 7.000617342623202
Ni 3.777718664122836 6.0618396762978035 7.183695028878776
Ni 3.422973491084965 5.5954854450581815 3.2651021243415665
Ni 4.377930605173011 4.952642156263591 5.251021023752441
Ni 4.012217601113982 7.4371255210947025 9.099495475682382
Ni 4.184314162312288 7.733608244667118 3.1542376893581032
Ni 4.009032002477616 3.680336002516646 7.324770810802471
Ni 5.8543997040534155 7.082477393229884 7.673382010187136
Ni 5.143215332128815 7.431186098916278 5.270543475126638
Ni 5.951383071241815 9.152288583336215 3.9367636119545053
Ni 4.524094927753693 5.158377759725643 9.205182761278884
Ni 4.633151309540969 3.639524618710994 3.1207242561199533
Ni 4.370871085126459 2.6205847891946537 5.232373449263241
Ni 6.212399991112277 7.712596290067572 2.0726361311818
Ni 5.879228230974066 5.738773272231067 3.395288720150856
Ni 5.4569532511957615 2.9971569345353175 9.084490734921012
Ni 6.372318632677433 3.703643070170393 4.647985914118567
Ni 6.140246713233767 2.5169266805292825 6.79796082138524
Ni 7.528409344440305 7.386197254662617 3.9092315047886084
Ni 6.117079821340998 4.715495805584674 7.612792285693935
Ni 7.204520220184824 8.220460709923364 6.138812127855955
Ni 6.807186662295634 5.883791666878179 5.69955145029586
Ni 8.32431847700905 5.086669551521967 4.179844422945169
Ni 7.713509117609798 3.290688351478766 8.450651359722974
Ni 8.077990477970808 3.7983329256316543 6.223214494309436
Ni 9.07946255250912 6.9466057131436285 5.5697966581539315
Ni 8.279506305298302 5.776161646743903 7.493162192028344
Ni 10.028448039952233 4.938607038963696 5.97717240212777
