36
Energy = -153.76709507 eV
Ni 4.555926546413344 4.266377752558837 2.7498784176079885
Ni 5.158327816611198 3.9988600379863484 8.343836993344405
Ni 9.963731922093933 7.278513718229524 4.563111346869028
Ni 9.34609070421823 8.553748865022387 8.331886097946416
Ni 2.588527782139439 7.581486228803579 6.9054456249891585
Ni 5.656090332265047 5.546895712749324 4.326888824454197
Ni 6.287564842872594 8.73236131190815 5.810046791212836
Ni 3.311462780103595 3.534227309398096 6.840333853513833
Ni 5.535375398908809 4.765397349282049 10.465366563576836
Ni 7.598420908712655 4.32854686637939 5.052046768990593
Ni 8.430261348508447 6.456136665175104 8.207303150396708
Ni 9.19391910221301 5.630218958400428 6.123647479208934
Ni 3.8745489656251824 2.8148007625018243 4.556808262972145
Ni 3.945597236458433 6.597426240843593 3.053573638633382
Ni 3.6164545341412 8.794227870893133 3.7342318581436325
Ni 7.060520664464682 8.35466118376439 8.091874758641447
Ni 7.337051893383422 4.399431730239241 7.394410069577529
Ni 4.371541002440249 7.3804000071633595 5.365958395788971
Ni 6.116393639144498 2.9539563871292795 3.8760226174439545
Ni 3.315359587342463 5.037394960945591 4.737299586578588
Ni 7.657176812052079 4.722909975786407 9.638434265300779
Ni 5.993589743011109 6.21972866800236 8.721020425378214
Ni 6.516439357194601 6.452216990584128 6.392682417578532
Ni 9.523092112659455 4.4310954300021095 8.171506350594157
Ni 7.991880157175696 8.921188873524102 4.17932239638059
Ni 5.478508896561857 3.8697033253437447 5.995869750080462
Ni 5.871218356892463 7.902115917881399 3.6004131783106557
Ni 2.1415408210138804 7.087946001584888 4.654627405305324
Ni 1.6657698650234607 3.454649347043465 5.181928738555151
Ni 9.403432913676678 5.091009813805711 3.748946578499464
Ni 4.175626032515839 5.748151736069268 7.1156784260712636
Ni 1.84751279180586 5.427968747134103 6.455619846114312
Ni 4.829283684590245 7.972757739686095 7.596472950016029
Ni 8.538535132737403 7.975509012867373 6.264792456589729
Ni 7.77900142623196 6.647157622656263 4.235057621717937
Ni 7.136885347298455 4.778691229730268 2.7446229903975667
