35
Energy = -150.22271293 eV
Ni 2.5743644049944305 3.7759559711312067 6.137351538056686
Ni 8.118985021275966 9.667243299680587 10.390031806527343
Ni 2.9640533410644982 7.53627871621665 7.253629820372346
Ni 7.478593146357649 6.358730570092423 5.490620191011982
Ni 10.688455432901621 6.6457627145168034 9.417322777126271
Ni 8.513581473342656 7.32782068688833 9.910161385859011
Ni 6.603408143359679 4.133219702707115 5.468621793385386
Ni 4.76310305527233 3.4244924721205625 6.918589117867746
Ni 10.63665073829628 7.785904539872136 7.322709238800419
Ni 4.703732017394741 9.134357196423379 7.876503052955234
Ni 6.257712547797155 9.749045155270172 6.137583636826708
Ni 8.700538389809509 4.531982605027286 6.528900990896385
Ni 10.703720145665857 5.402227677280627 7.4480980459240556
Ni 3.4306770642995428 5.9021134125428745 5.606616001054303
Ni 6.894150390237728 3.9990298692366224 7.857809564587947
Ni 6.65178877273945 8.210401674060272 4.390492974702239
Ni 6.5243842918448385 7.753902344483647 7.282848645535568
Ni 4.629361934767007 6.945167172909948 8.742641002438218
Ni 4.749223376339342 7.8925535621698755 5.760147006669452
Ni 9.046474696771158 11.127093190532342 8.81588315511079
Ni 5.4710145877506315 6.0903209702639405 4.359418685591218
Ni 8.208046283096474 10.855796366126844 6.609645505946864
Ni 4.383825118388203 4.001292975659222 4.669932993273024
Ni 6.627899437408742 10.458703081434315 8.451248985854853
Ni 8.903949214836649 4.93736918029387 9.043299874416292
Ni 5.443201634383832 5.630982253750088 6.8814693101313145
Ni 10.304316803428561 10.029223967750815 7.117701398380079
Ni 9.829486669936967 6.467697315716906 5.489454268699878
Ni 8.575308793036145 8.529479918327823 5.85725121578629
Ni 6.763229538321964 6.027289859075776 8.993625854162262
Ni 8.646071956503379 6.65464165836787 7.569598380892828
Ni 8.374304821704518 8.981688553411226 8.150460372990098
Ni 6.332018257050657 8.344144443414429 9.619571275231069
Ni 10.291827027005576 9.00380491976518 9.410913823552061
Ni 3.329088132282587 5.201743343279432 7.838686271692451
