35
Energy = -151.23037756 eV
Ni 5.95812199834746 3.3131241734617864 1.6930752320330007
Ni 7.159475298526174 5.28559045751988 1.5630508135753216
Ni 7.851026396895449 3.6406136552782575 3.2302001423673112
Ni 4.805876576490117 5.291951248326547 1.5350747253714367
Ni 8.100571821800473 6.197259047054151 3.473110065394261
Ni 5.958153915589732 6.944583354352594 2.859554742146756
Ni 5.934154154073547 2.1445718216509797 3.625697041479118
Ni 4.039882740736529 3.6071164857602067 3.179767476080271
Ni 5.957436899306145 4.747125285553828 3.8734163874898107
Ni 7.213895353366491 2.7106692539460564 5.448453527837172
Ni 3.8034163020583254 5.991610850852448 3.468470755594803
Ni 6.657130803482029 6.5266490136335165 5.383565188379186
Ni 8.92543943946453 7.177115006376982 5.435562448752713
Ni 7.052015638181287 8.534013043221616 4.431202802291449
Ni 4.828130720585493 3.157249605170629 5.426532823105532
Ni 8.362275088035359 4.774499811675786 5.2975971339855406
Ni 4.767533641414914 7.8480514487294855 4.675039660816246
Ni 6.438363134031605 4.494999066851147 6.656619462586251
Ni 5.567600675190103 9.390631747108186 6.243663179490547
Ni 2.6455570415591243 4.481660811658088 4.973556543905553
Ni 8.17903172399166 5.971217994543066 7.335172675401914
Ni 7.41561594589708 8.237239093607785 6.968335357203527
Ni 5.775739524692674 6.601850378178016 7.622211403286638
Ni 2.5579779847340047 6.959644216890784 5.16081008147377
Ni 4.44469396698941 5.619023687334709 5.816256523187741
Ni 3.2929403153995582 3.538189422286225 7.06703033458302
Ni 5.449859492967935 2.82597170810646 7.799311126024171
Ni 3.905166811063021 7.865509699000413 6.89795094194207
Ni 6.828515444630917 4.827003921874749 8.972340483086446
Ni 5.4973327613518626 8.639581363242124 8.566759317686643
Ni 2.5729050827298985 5.77949333764867 7.207347936447661
Ni 7.487064353506469 7.243444306479998 9.175438414326086
Ni 3.515447655711332 7.050901395523647 9.007039167099615
Ni 4.46497511303167 4.903919924031942 8.511009590689584
Ni 5.468484211507061 6.494498607825898 10.027053437211883
