35
Energy = -150.6449741 eV
Ni 7.776349614057676 8.51349261524234 4.559188305338636
Ni 6.9943978680943415 6.136259578138864 10.229130271043383
Ni 7.664786456680562 5.2967834491803485 8.214784967343512
Ni 2.3495587694221625 7.894491634013766 7.208561137911331
Ni 6.238678915206624 4.119105562773762 4.076683691562715
Ni 6.336835890429032 4.041465482375261 6.639854248542971
Ni 7.326534496306887 6.441632914331917 3.5872567415276566
Ni 10.621442225507495 4.779027049289649 5.352773652688081
Ni 5.5072938351763225 7.99209948695939 3.633762821257986
Ni 9.388695798944058 6.727891372378208 4.811474996946816
Ni 3.420620098679399 6.7448811555162305 3.6609879420524503
Ni 7.507272762045144 6.040639361998845 5.969102925668199
Ni 2.9590810182856373 6.102423442394666 5.879295252423653
Ni 4.536186157371528 8.429603285871055 7.85821002220403
Ni 7.438835878741206 2.5246660261629565 5.237694966598631
Ni 5.657031165803435 9.902987417358244 4.897579582532431
Ni 6.803056580743596 7.741304773947707 8.518044191155253
Ni 4.898530276792597 6.926419534194192 9.728133793282183
Ni 4.046791276625803 4.262619363671926 6.835791450579791
Ni 5.394385268399308 6.235606698558 7.353769684502037
Ni 8.536104194786082 7.968726540888181 6.83862058833151
Ni 8.75447697346511 3.981209906998458 6.533373221922507
Ni 6.247592489105276 8.133780167464542 6.2043546556199365
Ni 5.006887547141563 2.6123770141202267 5.379329618858184
Ni 8.976226126915613 7.053724522053988 9.042422887437723
Ni 2.870702361017582 7.995262777219566 9.474761679096234
Ni 9.798423703819799 5.980020972081769 7.145955402790166
Ni 3.99264586874989 8.225486965325373 5.5040180531212215
Ni 3.2540446895494526 5.979092841796014 8.285578369735527
Ni 5.245554766178026 6.101830788736579 5.0358365526150175
Ni 3.8043662382783054 4.4325273133425345 4.384074423890263
Ni 7.398141630662928 4.646508825553229 2.148966374475593
Ni 5.388211921602292 4.636773644717466 8.930568462571772
Ni 5.274228061171647 5.719700172111616 2.637092929568356
Ni 8.562491424098138 4.481558152854384 4.245205975251493
