39
Energy = -169.82533709 eV
Ni 5.681486304420246 2.739721581510999 0.8794323110514035
Ni 3.3228856910593425 2.6447613391666565 0.0973033876554777
Ni 4.263068197318422 4.9219724501504265 0.6305595259698478
Ni 1.9198322134177164 4.384899059071253 1.2769178276991942
Ni 4.125389351166692 0.9270398965630706 1.7102427087382086
Ni 5.062894474014613 6.910380622024097 2.1168597163086575
Ni 5.856908253366327 4.6164304124983975 2.4474671286013043
Ni 3.833990570034754 3.1712857721041465 2.2063489077656757
Ni 1.7600296718654207 2.0065882096518917 1.9679091799878914
Ni 2.6959782220619695 6.777322034250901 1.3346403493873287
Ni 1.1797128035567608 5.866080092710024 3.1257243414400904
Ni 2.090448357063351 3.707448312370972 3.627775400166747
Ni 3.1555866989045045 1.4673595184866395 3.899854883308427
Ni 7.5455237611054065 2.915182907931257 2.507950950829853
Ni 3.5129472235675747 5.366461015294806 2.862943425862755
Ni 5.393988044224306 8.191933984004056 4.117278839506711
Ni 0.027275303052468818 3.650160920290571 2.7734126835914656
Ni 6.507409129244722 0.7339322333826946 1.908315666367597
Ni 5.594009013406883 2.201551816760502 3.4002136252189987
Ni 7.027637827953189 6.403260079112616 3.539169499487958
Ni 4.389790938660706 3.7787225624731398 4.54520713027216
Ni 0.8077319007096014 1.943685643363176 4.404265367315779
Ni 5.037652441383184 5.9755524361311565 4.52725867460861
Ni 5.0782473744564545 0.042843605182690356 3.825819745393763
Ni 2.537309459059711 5.641559204635148 5.14101935984066
Ni 0.44353732828828457 4.3561643427857195 5.117119955103322
Ni 6.968059623936615 4.178077044298101 4.503914120274965
Ni 3.1478576830661464 7.5055740160985 3.668593380296013
Ni 6.970729767425363 1.8316601071245746 5.114065967372371
Ni 2.6075233244934752 3.127767799188523 5.83009632740256
Ni 4.649038715832075 1.469276905491987 5.751014468950645
Ni 2.30431664873561 0.8965055479891378 6.066416332047761
Ni 3.9983699186315893 7.344359679647415 5.9982058112406325
Ni 6.387230378902363 5.731421832033943 6.283658460394929
Ni 4.11784518352275 5.054209115419752 6.80948835953414
Ni 0.5731952109192204 2.5707492001884193 6.7095239662384
Ni 1.7345151976446622 4.709902460245791 7.198734153760512
Ni 5.80383717691222 3.429295126604896 6.423039323956778
Ni 3.8706053751501988 2.7932958722961576 7.636633495585319
