34
Energy = -145.83689324 eV
Ni 7.092072042374032 10.76544696007486 6.287696023821224
Ni 7.061975130169419 6.6954657237159365 4.192698978146719
Ni 4.392194696418071 6.016078636465115 7.246613828087744
Ni 8.342657546033559 6.300838922261851 6.287115297335505
Ni 4.817440343654167 7.307714811483235 5.042279211518809
Ni 5.665353898175682 3.5143305412896235 4.198881266978326
Ni 2.9970179531371137 8.741704406178492 5.008379098240893
Ni 4.924134693558067 9.937216227638496 5.780703234166813
Ni 9.206396664983345 5.65742904065602 4.221656016553435
Ni 8.955476076196938 7.979071964981189 4.802053379574141
Ni 5.1315377363466705 5.676086141793532 3.2976216084687224
Ni 7.565505651447676 7.665155620983771 8.84334316073272
Ni 7.2802953681961595 4.740236080444439 2.951227361934224
Ni 8.853529788789118 5.699854036986671 8.406447510839644
Ni 2.523681686659698 6.635086736818496 6.017154672089281
Ni 8.852303980419693 2.2334445761648483 6.390867378509357
Ni 6.474260606000718 2.3396664346233487 6.101532541664442
Ni 3.8151958199094693 4.841229341863286 5.0816621000116875
Ni 4.13686153759903 2.641137329025446 5.805235783989025
Ni 6.321997475701837 7.367286415439145 6.86790150271357
Ni 7.659418830467432 3.961292064491241 7.355280121466369
Ni 5.153175358026321 7.460085234401755 9.012859067616384
Ni 7.966295756345017 3.8177892852269295 4.961898471637413
Ni 9.783774060233545 4.4280844409703155 6.395472791473206
Ni 3.0028372447840512 6.656141289500227 3.7412556670227928
Ni 6.764802462018769 8.836536747607333 5.014228823522992
Ni 4.306411152769102 5.075993671337348 9.301840470711959
Ni 6.477437470700169 5.560075925009423 8.513536201188872
Ni 6.13464700881469 5.179195172010547 5.774609992848777
Ni 8.233038359999263 8.808849505920225 6.9046178253894945
Ni 6.057099546517919 9.420452643317736 7.90175905473877
Ni 3.9676966863843703 8.325549291038733 7.119732130474746
Ni 2.9198046275222187 4.253964006554641 7.1770551165860414
Ni 5.220423646058707 3.7456555762563255 7.544564164462183
