38
Energy = -166.11109619 eV
Ni 6.940754548696176 8.695791349946388 6.940754548696176
Ni 8.704378624865441 8.704378624865441 8.704378624865441
Ni 6.940754548696176 10.33868385 8.655387629420083
Ni 6.940754548696176 6.940754548696176 8.695791349946388
Ni 6.940754548696176 5.185717747445963 6.940754548696176
Ni 6.940754548696176 6.940754548696176 5.185717747445963
Ni 8.695791349946388 6.940754548696176 6.940754548696176
Ni 5.185717747445963 6.940754548696176 6.940754548696176
Ni 8.704378624865441 5.177130472526909 8.704378624865441
Ni 8.704378624865441 5.177130472526909 5.177130472526909
Ni 8.704378624865441 8.704378624865441 5.177130472526909
Ni 5.177130472526909 8.704378624865441 5.177130472526909
Ni 5.177130472526909 8.704378624865441 8.704378624865441
Ni 5.177130472526909 5.177130472526909 8.704378624865441
Ni 5.177130472526909 5.177130472526909 5.177130472526909
Ni 6.940754548696176 5.226121467972267 10.33868385
Ni 6.940754548696176 3.5428252473923494 5.226121467972267
Ni 6.940754548696176 8.655387629420083 3.5428252473923494
Ni 8.655387629420083 6.940754548696176 10.33868385
Ni 10.33868385 6.940754548696176 5.226121467972267
Ni 5.226121467972267 6.940754548696176 3.5428252473923494
Ni 3.5428252473923494 6.940754548696176 8.655387629420083
Ni 8.655387629420083 3.5428252473923494 6.940754548696176
Ni 10.33868385 8.655387629420083 6.940754548696176
Ni 5.226121467972267 10.33868385 6.940754548696176
Ni 3.5428252473923494 5.226121467972267 6.940754548696176
Ni 8.655387629420083 6.940754548696176 3.5428252473923494
Ni 10.33868385 6.940754548696176 8.655387629420083
Ni 5.226121467972267 6.940754548696176 10.33868385
Ni 3.5428252473923494 6.940754548696176 5.226121467972267
Ni 8.655387629420083 10.33868385 6.940754548696176
Ni 10.33868385 5.226121467972267 6.940754548696176
Ni 5.226121467972267 3.5428252473923494 6.940754548696176
Ni 3.5428252473923494 8.655387629420083 6.940754548696176
Ni 6.940754548696176 8.655387629420083 10.33868385
Ni 6.940754548696176 10.33868385 5.226121467972267
Ni 6.940754548696176 5.226121467972267 3.5428252473923494
Ni 6.940754548696176 3.5428252473923494 8.655387629420083
