37
Energy = -160.05639602 eV
Ni 4.026627194664944 6.938378288722578 9.590310414008623
Ni 5.141967815857931 4.567670431238413 9.79346074449189
Ni 2.6996609757820154 5.153102588855078 9.078882406068226
Ni 4.807707266466385 5.5045111697870865 7.833813256956255
Ni 3.723724739809614 3.289538686356493 8.2367462565411
Ni 2.6136104623826597 7.03067745539219 7.58006738327114
Ni 7.280165919399173 5.136287109213853 7.908115808468989
Ni 4.179515966790918 3.058904041330365 5.928708083052637
Ni 5.985488566167717 3.205036688482261 7.809372612769263
Ni 4.683923970584798 8.24173345922469 7.661973474549323
Ni 6.262247485217523 6.895154505967265 9.095122423669553
Ni 5.930792481240813 4.590282558307336 5.845411586001457
Ni 7.952292709560062 3.4680140983642014 6.248234119952742
Ni 8.373736236966952 6.636799408758461 3.3724525725673162
Ni 6.489899673949095 7.068466332439126 6.743286327197412
Ni 3.0765506364490354 8.65273464817671 5.851688219091107
Ni 8.178951016576878 5.844215294653905 5.74794832012181
Ni 6.20033214433633 1.974204021021384 5.795160804953767
Ni 5.3662036144741005 8.634594377603483 5.226757281955179
Ni 4.283092835323717 6.6518322327678865 5.896695060611981
Ni 6.1246703981554695 6.330900449620768 4.332320173169614
Ni 5.571902936292116 3.2376651350814623 3.788589328750181
Ni 2.7795765755518014 4.83797424516058 6.670214819086504
Ni 2.07824447396808 6.5949391721739685 5.163077610859879
Ni 7.7308518494493725 4.398814158079207 3.9985621589469402
Ni 7.5997874267139345 8.113338355002305 4.920120605096057
Ni 7.743138362469813 2.108923097314719 4.136444997775442
Ni 3.4478774381179655 3.7405185977237427 2.5030492010503513
Ni 9.251880101464097 4.797504695273995 2.2739232848900577
Ni 6.185780843892539 7.771346914830417 2.672206963513206
Ni 6.955208261861967 5.456771755399958 1.9760157913521748
Ni 3.8512100366889253 4.874684842760695 4.459961454956702
Ni 7.610149831570117 3.1262277245254295 2.0481475186422347
Ni 5.473381932342601 3.660972986328356 1.4585646789218265
Ni 4.695333335439724 5.746067952046653 2.3350397950934974
Ni 3.909751476011729 7.465783589622533 3.7167584903329978
Ni 2.355454687454573 5.816120611837528 2.9234876507078913
