31
Energy = -132.13890684 eV
Ni 7.410280926464302 3.971176638576283 8.362246456903298
Ni 7.346965331586225 5.5466708128531845 10.288472327718258
Ni 5.029859892214382 6.56313099269079 3.1276668758210406
Ni 4.926713594448381 8.088846449562835 4.894557603686805
Ni 8.747467541508504 9.918491068330628 6.55972553314595
Ni 6.874249401460074 10.281786675302342 9.31201213321914
Ni 7.08236940931779 5.672137444892483 3.8635347652182115
Ni 8.880355283350626 6.912821911261933 2.9747354913234982
Ni 6.728768994773733 11.070561783461798 7.118351908844302
Ni 5.253880564551159 6.425010487207363 9.416538883597209
Ni 9.258281885597665 5.239344773417338 7.385646182509498
Ni 5.301876176942738 4.895348742967892 7.54202341479401
Ni 9.184025492790031 6.753122922938125 9.23188463557867
Ni 6.846589826853362 8.023512000071575 3.413311350181687
Ni 6.7803694898504725 9.617580644088779 5.219061086577156
Ni 8.890936377634201 9.080792480965158 8.83756183216074
Ni 5.1508838473633825 5.681976698708451 5.316270936934737
Ni 9.096388103097352 6.052295621013693 5.163735714995107
Ni 5.097654896226813 8.750224554080894 8.983060438738862
Ni 7.250377558345291 4.799574851138178 6.125162488527051
Ni 7.14017113299427 7.875731856274993 9.886462619495056
Ni 8.845427969271316 8.430952303027587 4.7376007594645735
Ni 4.899069772713153 9.591472832941735 6.720917801158696
Ni 4.969131819274223 7.22596128396516 7.149078522364915
Ni 9.129887624604372 7.6003100100901895 6.991301788433462
Ni 6.949457703384596 8.732530317426784 7.532960182382739
Ni 7.007271605122829 7.203444268410849 5.644217573157971
Ni 7.176844984578671 6.354283796850379 7.958881596141244
Ni 9.334384051332108 4.442975428889651 9.645544899062342
Ni 5.538439948103098 4.117374507333606 9.785475290853727
Ni 7.562907452054941 3.241133931323384 10.607347299839208
