39
Energy = -168.8672188 eV
Ni 6.877736903867179 10.902524816437166 5.9863298117977
Ni 11.278409734976114 5.118251520000412 7.085986863836745
Ni 3.3508136339699894 5.529508161922748 8.155391880846146
Ni 7.862577712038292 5.105441657626925 4.9887028282348576
Ni 4.89010714488459 10.164772103368408 7.107781282900474
Ni 3.2369638146605255 5.043305133904716 5.800623466219658
Ni 5.496420583309123 9.114562519898213 9.120333459963623
Ni 10.939274845825729 7.0992530822841005 5.912067360289817
Ni 6.631073192102814 7.097516820465091 5.239252783076291
Ni 9.055923600353966 7.094905748974222 9.608595030450314
Ni 6.761980400466283 8.629699538983912 7.107468112136888
Ni 10.20623235561696 9.15224856998466 9.134477701025753
Ni 5.501183212171102 5.0687813336631615 9.116119344437767
Ni 8.784759281220843 7.0968895074471945 7.156054186501634
Ni 4.838107482255005 7.093287588524584 7.244740399085054
Ni 6.865115103236365 10.877046195606717 8.264492605978935
Ni 4.897864735064824 4.021783787165339 7.100582065260996
Ni 7.914537414405191 9.084539293458997 9.223279739378372
Ni 10.985545345504192 7.097331221716342 8.29373297418219
Ni 7.859516786842704 9.09201518880375 4.992204583638843
Ni 6.884483136906634 3.2887424520575324 5.970941979981212
Ni 2.4956996013279293 7.0916718598243556 6.596885177921585
Ni 8.978072744109996 7.100159851539241 4.69033608261289
Ni 4.218309883617236 7.095335614780938 4.968622779420965
Ni 8.94977887270905 4.538939120557891 7.090597361150433
Ni 11.275403207392884 9.079713276912251 7.088335666444007
Ni 8.945338168291926 9.653567520357626 7.095312488560043
Ni 7.917635660329842 5.103235280022599 9.219388056998433
Ni 5.470405424257095 5.049894679371399 5.079241399153901
Ni 3.3465070489910245 8.651805579678989 8.159135251602354
Ni 10.181140581842058 5.0473994512840905 5.050307829574364
Ni 6.720134042940411 7.093779307303342 8.999341913630293
Ni 10.20922956322987 5.039381025893544 9.132098505738565
Ni 6.873803837902646 3.312353068555827 8.25023702716995
Ni 10.177248226010605 9.152569791172965 5.054054608038875
Ni 5.464976790854703 9.143405762549168 5.084266230819261
Ni 3.230879501366501 9.143335197723907 5.805373972287924
Ni 6.765601840289668 5.561391070017418 7.103434847109397
Ni 4.4022927829213545 7.090258743523564 9.64634498869785
