45
Energy = -198.70298007 eV
Ni 8.771783922376287 3.502075846874653 7.652044360223965
Ni 7.30321900057579 2.955166449410063 5.746957241332602
Ni 7.289047979153972 1.5145282341848372 7.609490801293342
Ni 7.542332189124681 2.6649723305113664 9.682813692541279
Ni 5.373407967215233 3.0166258456878334 4.347138069869769
Ni 7.864681412238024 5.699542238771629 7.210294509881827
Ni 5.381935066464883 1.9420321349856642 8.993351564646575
Ni 7.7050489958697765 4.9799436262690495 9.483493193686078
Ni 7.388497791934728 4.154409952461268 3.7268292351906958
Ni 7.094186156004349 6.356206987074663 4.9941448212975255
Ni 5.154327515761502 2.2123214609215514 6.576458963030708
Ni 3.7408431461813794 5.642233441987183 9.557472018491849
Ni 6.010184762645378 8.350185261898977 8.507191334220972
Ni 3.441374560356182 5.7800648956667615 7.0910480220183185
Ni 3.4620720251160293 3.7144743525581454 5.727788352809219
Ni 4.136187169445618 3.7618677965824285 8.08085439939554
Ni 3.515406801455788 3.967458515633355 3.301505422525655
Ni 7.692610729558271 8.051049612009061 6.814670137506595
Ni 3.4442161439253063 6.123456778163191 2.3542478520440446
Ni 5.552374754027472 4.145911272969604 10.035008810905996
Ni 3.780916317672977 7.698328074759941 8.367993550648471
Ni 5.485810405407214 4.858313757511908 5.936266565971482
Ni 5.3604350323729015 7.33271157458599 6.4437181310861655
Ni 5.69754710028891 3.7122136377981767 2.0186700426776993
Ni 2.84342612415144 7.99934515081521 3.6173032612967386
Ni 3.390767797385939 5.927409817255058 4.755349402696781
Ni 5.438522400047301 6.010522006234181 1.1530626901075878
Ni 4.666349795624084 8.139912158392303 1.9295832805861979
Ni 3.135638929561399 7.969708222922906 6.004400019320582
Ni 6.4921958343588075 3.725398694876201 7.8234849252515115
Ni 5.621045027911523 5.87857988320024 8.220311142201425
Ni 7.565636042399037 5.207214330804134 1.6761528923123337
Ni 6.031622782502389 6.57701940800476 10.299701880520233
Ni 5.4001849461424145 5.407967786867554 3.4947623961425904
Ni 5.059795552810556 7.666903420095214 4.168987400572849
Ni 4.100511759321263 9.757832095718609 4.66585402799755
Ni 8.930478307855564 4.615197813025574 5.429806997153004
Ni 4.46144009248262 9.59539813808746 7.094585601953164
Ni 6.869854128682626 7.244393679116404 2.592897284447398
Ni 6.200462167088988 9.473728014552268 3.257681818017623
Ni 7.9792517870250395 7.236921047082405 9.006422038787548
Ni 9.402401547591838 6.889683681094617 5.7208602011948715
Ni 8.849529631155121 6.146681097262707 3.504657142738978
Ni 8.04186320392579 8.380496124761532 4.3902408862198925
Ni 6.23554923558703 9.373770710251684 5.601939594510499
