45
Energy = -198.31745941 eV
Ni 3.305261985397563 10.04175021848026 7.46124144638742
Ni 8.23123659005863 7.035707543361426 8.001749536763239
Ni 5.267703206357277 9.890270559369396 8.981849198205415
Ni 8.81193198846362 3.844085952679457 2.950780751127059
Ni 4.234688487932091 8.044050001817377 8.073835608881941
Ni 4.996945924538826 7.452095145946144 5.388259497237858
Ni 7.619759057985636 10.355287148988424 5.757174665275622
Ni 3.599426698002768 6.1345512302019785 6.900708735435457
Ni 7.787969260041758 3.237609339518223 8.642271123987554
Ni 5.225667317073798 4.783528904347726 5.804517677799678
Ni 8.294168391496633 8.481702153957551 4.1531380946530945
Ni 7.5228951679266185 4.757112927819964 6.863921548495957
Ni 8.446983360777205 2.019754541970367 4.64360451742432
Ni 4.255080351282781 8.155740058713222 3.2274394821588266
Ni 4.708905974408281 5.864590759548606 3.628352243885351
Ni 7.042422007559676 3.748535732641189 4.677784465469957
Ni 9.281285172252613 4.565676154600605 5.095568049114498
Ni 6.253999788599429 7.680546443165163 9.335386187345371
Ni 6.5246615182381325 7.376681475150547 3.0152598410550118
Ni 5.988427384714071 9.360080262607893 4.353098468003385
Ni 7.012128260261469 6.146998077737167 4.93531838681293
Ni 5.512130533764397 3.8696525960010018 8.016519807332017
Ni 9.664654698719284 5.159683584223537 7.47225891541204
Ni 9.156654264124331 6.792250647771545 5.774618019906674
Ni 3.222196411390955 4.0776246529399085 7.728017632018673
Ni 5.977551352447907 1.5716627251302238 4.644183301666113
Ni 2.206335692139323 7.988349478862425 6.756178381557677
Ni 8.706858034802707 6.2293571653649815 3.361871580394131
Ni 4.88322131540921 3.4842064933208836 3.730575255616793
Ni 5.479062162581012 9.680151752573522 6.674097402569536
Ni 4.319810350277038 2.664938653205763 6.061613417865344
Ni 3.5664927361565364 9.240368855307915 5.226980495520703
Ni 6.745292428664637 2.3955820153277054 6.649342622359473
Ni 7.243704520300368 8.15244336726885 6.144360302332098
Ni 1.8862985108238175 3.133773056653852 6.148741361631196
Ni 3.087933849521041 4.557003797035222 4.836323499087148
Ni 6.705938614948108 4.9717781594677435 2.6968451224001093
Ni 6.970885586781784 5.38427078730756 9.193131104669096
Ni 4.561965275413022 5.799763066174204 9.071462615154491
Ni 2.7587113896825577 6.929468955424895 4.702151542447559
Ni 5.970561977306424 6.501039764937192 7.324608362574672
Ni 9.090918149885242 2.910416686891592 6.7398777918713515
Ni 1.5027800605442287 5.542502399858374 6.281483696979393
Ni 7.394897910020215 9.361114947619058 8.088101212096458
Ni 6.880094944916904 2.5327404226999652 2.6918956950079718
