47
Energy = -207.74838267 eV
Ni 1.6022379813365446 7.234177009849134 4.6544074238700865
Ni 3.756800972559055 7.438187117730164 3.577158628297358
Ni 2.8402475046894065 9.060888841357016 5.241875054803333
Ni 2.495913899228329 5.323265104498766 3.6076370689603374
Ni 1.9660124998706578 7.601638677138784 7.109799688568945
Ni 1.9836381429773022 5.409406274495723 6.0470647980056675
Ni 5.185916410554871 8.800864978205277 5.03370437542988
Ni 7.081710980974002 10.026767776971354 4.651115615012168
Ni 3.790476905293783 6.965648235825654 5.906424338611611
Ni 4.743349846989632 5.416589022919196 2.7578781957084386
Ni 6.76682838646807 8.00173864213149 3.3098709665701334
Ni 6.3855623084707185 9.775312869814481 6.860549069098627
Ni 4.113984959264384 9.007776638556342 7.218460721877463
Ni 2.115290500797917 3.336863429637287 4.961346158500953
Ni 3.9222145022970567 6.941348840396927 8.407953547897542
Ni 8.91442831477668 9.041527894814466 3.7990284703334085
Ni 5.752821961331716 6.440284548019378 4.663499045487802
Ni 7.115728921437798 5.610299604744639 2.649804321895857
Ni 8.811240325320693 9.634368412765095 6.309212188136556
Ni 7.83045009715474 7.70607656553161 5.661887904139541
Ni 5.804446072837497 3.431401461473471 1.9763709231777093
Ni 2.22056510927452 5.426379909924807 8.357657941841111
Ni 3.8292186886564035 3.229655263671682 3.276896692988633
Ni 8.78507398325299 6.673662547578841 3.83227886422102
Ni 6.292154730892051 4.024154474877354 4.093554539192904
Ni 5.923126686326085 7.465911641526539 7.017025402579044
Ni 4.144045541563348 4.641468506039371 5.093428168351702
Ni 7.706970893727542 8.356380487478068 8.190720076612545
Ni 7.242568583576233 5.286273834277642 5.9534117077589315
Ni 10.341653360645148 7.933337867769773 5.191115087757583
Ni 3.281729454007521 3.6694833745367488 7.162462816955186
Ni 5.094376180568202 5.312958986086701 7.1359494121976565
Ni 4.389502712930647 4.555815557856654 9.131587201750383
Ni 4.0083312177917705 2.099768197275094 5.4869490771507925
Ni 9.766046690254713 7.686775378949657 7.39465084649214
Ni 6.146791437056977 6.341102804899924 9.093073342697918
Ni 8.173954580186546 6.027278796048289 7.933957928612866
Ni 9.580759593358168 5.819943563386487 5.95553179753315
Ni 5.7336621284438625 1.8052437284889231 3.8952131504344125
Ni 8.641344277165201 4.342656618707274 4.320197906954151
Ni 5.897036661095695 3.262914862667674 6.283418659676302
Ni 6.784190100158546 4.130143158667689 8.407742494388925
Ni 5.028081532426213 2.3582498780391212 8.16588309635488
Ni 5.910031723188858 0.9116771498059014 6.150691548555133
Ni 8.732429975350437 3.7978156436376813 6.87368169783417
Ni 7.708652583581136 2.3138936466157722 5.239412371070644
Ni 7.396793614781548 1.9768299091372943 7.63510742369445
