41
Energy = -179.77970126 eV
Ni 4.293753287552389 8.75820044637876 5.94517530748034
Ni 3.257269374030038 3.939702516419424 4.999411361272803
Ni 6.56156187963315 5.7279175992492 7.255724601094608
Ni 1.8409603692777707 5.296999688171182 6.53281142331247
Ni 6.562854732907649 8.973586324804332 4.699713360970272
Ni 4.16123655178804 3.2233534085282987 8.893644076968187
Ni 5.350123379869811 2.355085637522715 4.4179326437450595
Ni 8.79168484477456 5.083415161148621 7.170273431421676
Ni 8.183945132335332 7.5830461109000185 5.983986976905327
Ni 2.718162887674068 5.260461042902133 8.730965679541075
Ni 7.08992173470424 4.4460737291012675 1.4662884059132568
Ni 9.881253734289718 6.177137789564481 5.026486695577157
Ni 3.394396795678729 6.552758151871563 5.430358642291634
Ni 7.693765921265771 5.484003948805277 5.110380022503422
Ni 7.155252584086161 3.322089349266431 6.082683409631151
Ni 4.508151277989445 7.928993956517419 3.6825827144148153
Ni 5.101201784872468 5.342220091223405 9.299728636867947
Ni 8.216623499936185 7.2854405462742635 8.263062192132294
Ni 9.271805611243805 3.839011789280284 5.014223208209497
Ni 6.417826662286524 8.534023185266985 7.15231752221113
Ni 7.247016255677507 3.56813354319053 3.6757021868433366
Ni 6.393469913831504 6.000961320699467 3.2143708419111454
Ni 3.9527369714937888 5.669976292182355 3.367723278208528
Ni 8.273355285808222 7.471104885188927 3.650387614231551
Ni 4.863150419813022 2.6198262341381096 6.654967812135431
Ni 4.359565567309236 9.110173071734009 8.365584551762435
Ni 5.226201876783725 6.1521792262521195 1.3421798886169116
Ni 6.409913818428047 3.6001198907592222 8.278728959448504
Ni 4.240656385531315 4.773556726926172 7.056922696995279
Ni 2.5088170615851877 3.198937945683212 7.237889123844276
Ni 5.13197174197892 3.8736464503712367 2.609952374848565
Ni 8.852230505466979 5.216111358162989 3.0176889278676375
Ni 7.485006584886982 5.4146654286764955 9.398584572105786
Ni 7.764814320670547 6.649337519484418 1.3903479134096903
Ni 5.792535821814232 6.950347140464115 5.376454959426545
Ni 5.460682350962829 4.61267737742189 5.004658404250994
Ni 2.411454314677598 7.4414031877046485 7.5459163462830565
Ni 6.39136738369823 8.221182816765667 2.4017080939128888
Ni 6.090880954962804 7.4910911536744615 9.311009338268683
Ni 4.611771709258213 7.016029106454176 7.5284287111513315
Ni 3.676073736947301 7.23662801322002 9.661502742215193
