43
Energy = -189.2617586 eV
Ni 4.3926366155674 6.170089963554479 1.7791486753304662
Ni 3.783103687729164 4.376946756037928 0.2890765510562298
Ni 5.637965533070704 2.6670395170344494 0.29503031785189315
Ni 6.111259781702445 5.0457288859534035 0.45588521871400944
Ni 1.5148959628748162 3.6935763966888135 0.9448373459098149
Ni 1.9262603287803983 6.115607538493706 1.6186599667203234
Ni 3.5291059142371752 2.232142878599826 1.386030392793255
Ni 5.457640255415404 7.554863865657563 3.28222554342722
Ni 4.666398944402264 5.17517814281479 4.109757283163881
Ni 5.298489118398944 3.8320902924678144 2.196310053372276
Ni 7.455597031907867 3.157816626020515 2.5235348047079613
Ni 3.005615388650272 4.295537818349273 2.534518801827399
Ni 3.0978039256604917 7.8371654452238895 2.950609489535485
Ni 5.624332618523944 1.4197138275388332 2.4413336772635046
Ni 0.6823332570309163 4.577791739325978 3.1094910256082304
Ni 1.6860552572188365 2.2844886614847857 2.965861485758902
Ni 0.602684678068426 7.026547542703074 3.5434270528322593
Ni 6.7290186693177185 5.5882308948103985 2.723891288511387
Ni 3.3754140609751278 0.5169223167283558 3.0596404610766266
Ni 2.4932839343666418 6.025209410061437 4.095673465542472
Ni 4.127799938192845 2.617780229817479 3.8027999324266424
Ni 6.314309929442807 3.529877716806603 4.605428084768243
Ni 2.324032471696254 3.8076937850737855 4.7594161719329255
Ni 4.871978376023031 0.7516338626797121 4.891921414842941
Ni 7.110158159828612 1.4130301963373932 4.2894126365161025
Ni 2.507984615700311 1.45441808385283 5.159349612233257
Ni 0.3534454526921245 2.8394223833756365 4.993201306672895
Ni 8.241984191287536 4.707271773193937 4.369758014524699
Ni 4.236935149451693 7.263079448267804 5.250302446057559
Ni 4.3229917686449895 3.6139577051965324 5.926609396173172
Ni 0.5828916473044867 5.3135567398524755 5.393884977280029
Ni 1.8393040152634625 7.448824660477974 5.7611877574155095
Ni 5.200431194186915 5.6385370174447855 6.8186343585299545
Ni 6.546165563526837 6.346958102324106 4.976332333311988
Ni 6.434810854228657 1.1289481640494785 6.555638917941876
Ni 2.737548387694251 5.380919638820425 6.546308475297497
Ni 6.0702752325889495 3.297444186444453 7.359897618300198
Ni 2.02565459044933 3.043788916172572 6.915574539697238
Ni 8.016155816082627 2.832999081894596 6.01100935110385
Ni 4.107025075543912 1.687758947482808 7.054435003911769
Ni 7.4865542561209715 5.030177718618112 6.624847173940816
Ni 3.58397201315598 7.264020518169166 7.482458748881145
Ni 3.8940953859184066 4.001611653021852 8.153047876159933
