42
Energy = -183.96756653 eV
Ni 8.51828856900963 2.8479578754520167 1.544556475563412
Ni 6.311781370477336 3.377135438000619 1.8638300573387605
Ni 4.017551539063479 3.827051328921067 1.9582361409611895
Ni 1.6758792180306865 4.418350054260138 2.07022954317183
Ni 5.6344185932925175 5.562028714663066 2.4601426398771835
Ni 8.01725942609718 5.171080848351045 2.029471521982955
Ni 3.3316659038129286 5.832610645413015 2.9328981654860184
Ni 9.400486500486295 3.6606488427008363 3.533240858406833
Ni 7.424000972837869 2.0177013145312817 3.515411518355231
Ni 1.1265918455112724 6.023680087724159 3.822151726972905
Ni 5.0340363236568 2.64257713117477 3.776350269610677
Ni 2.8474743200622035 3.673400277145907 3.994300139525108
Ni 0.49764960120696844 3.805943769899728 4.057790053754939
Ni 7.227577560471935 4.257345379802516 3.95033424598094
Ni 4.8046857875658135 7.158800248945366 4.18918494137856
Ni 7.091287259785832 6.673904855268044 3.9671749602091526
Ni 5.008828010331257 4.822853591934393 4.672845597058891
Ni 2.8327934497751834 5.792426139375683 5.414651488852847
Ni 2.546299684542155 7.88069924222074 3.903945462778896
Ni 9.330006349553928 6.055711415804656 3.8035576769056636
Ni 8.69501860754135 2.4302351255213765 5.461449506612409
Ni 6.394947396160966 2.8882194795298384 5.697039888739286
Ni 9.400486500486295 5.4204613801061985 5.698470574187826
Ni 6.290842511617842 8.055065600336288 5.7983020470231486
Ni 8.548978694666125 7.084388234919028 5.841625921998843
Ni 3.9937737470268817 3.1837604662901526 6.011522251534044
Ni 3.689096393170565 8.310497563004063 5.908670016673952
Ni 1.3335388138215127 7.403861890193335 5.942358041328989
Ni 9.245537147374607 4.691626692050445 5.682991682585486
Ni 1.666996837842536 3.9235984790202347 6.131889469960677
Ni 7.02399807053012 5.347624395190456 6.090271076055438
Ni 4.877915525143127 6.339167268444165 6.568888979096933
Ni 1.1091388238035222 5.709810960400543 7.653146891247037
Ni 7.930023913045001 3.565947402010611 7.4167088942083
Ni 5.562162836120364 4.166768166692667 7.553120815049471
Ni 3.2997942386279 4.7790304290390475 7.6519384469521015
Ni 2.94437813664248 7.122693014633807 7.8026631666457655
Ni 4.9925154208889735 8.313486749481383 7.899287122592094
Ni 6.930593053874081 6.962533777509025 7.843777941800378
Ni 8.875643815005281 5.700942680015288 7.7937815006108915
Ni 4.918185641039025 6.073793562847864 8.918743598810272
Ni 7.063984280728217 4.994664654350068 9.143133855289035
