47
Energy = -207.64241937 eV
Ni 4.6177850622424454 9.710028362791627 5.509750770369664
Ni 9.44101940860267 2.8324494455281237 6.529127220072638
Ni 9.451018722530886 3.872613299082825 4.392695980804352
Ni 7.5238633967365525 3.898798100959653 5.664527686380473
Ni 5.637541825632097 5.121023753420604 4.763681341281975
Ni 6.579755024337278 10.717234673570237 6.46064441800127
Ni 5.940392544840138 5.14621901760396 8.699141049858378
Ni 2.9579533421781936 7.309234503878671 2.8592766146774085
Ni 2.161856876231582 4.853137905216064 8.204273124084969
Ni 7.317927779937297 1.9001547573713315 7.134368013033823
Ni 6.552248445390705 8.697186294677358 2.223862276378038
Ni 6.736844124430188 6.0117200876323516 6.61064876337612
Ni 7.297197664972519 4.015817993046266 3.2775458711323218
Ni 7.928648265026993 4.094961003161649 7.994535421978983
Ni 1.7571734450488194 4.692912790126728 5.897080093614352
Ni 5.165823897165346 9.460959142037378 7.831755803077133
Ni 8.501237873616967 9.768714384698093 5.542405709666389
Ni 4.460096693847866 7.544465539130653 6.592134336211141
Ni 6.292455847001424 2.802390890212924 9.080046379350463
Ni 4.138342179190455 3.676273211716408 8.811333915823417
Ni 7.877483195415386 8.065192396151822 4.016649354324203
Ni 9.342470896475476 5.242515142733731 6.525259789783654
Ni 2.8372093897679918 8.372927000043411 4.95919493444528
Ni 6.567054551154418 8.37531832434063 5.990735117673862
Ni 5.7334309811777535 2.6604256174238583 4.394979698523944
Ni 4.8666879894342046 1.4828543466638093 7.621212962060674
Ni 5.51278328781233 3.421921396347541 6.713689374354424
Ni 4.425891206586914 5.30769347700235 2.8095543000720307
Ni 4.065276513436244 5.1976301510711584 6.816762431609954
Ni 6.073940672325358 7.44675421775362 8.427790414605077
Ni 3.937805770590877 1.4835192376078419 5.393778342871028
Ni 3.8886642361557975 6.511763619632167 8.710056634370966
Ni 6.69155329871845 6.292101685927883 2.746202893591821
Ni 3.6783798078287835 3.76864172236108 4.776887219675163
Ni 7.756026268495782 8.987119015537525 7.851691410722323
Ni 6.4931921552337775 9.991409370735669 4.151956268404687
Ni 8.184793909916454 5.8757713699083975 4.530867420523748
Ni 4.845301133854035 7.328510154992914 1.6245251337026163
Ni 8.783488871472958 7.5170704232232 6.228239302091753
Ni 5.20728976342106 7.486478716200057 4.147194695328797
Ni 4.3513728968094485 9.325123423543179 3.1078558212457095
Ni 2.9879727092067023 2.951598161546586 6.93055750377398
Ni 3.306156072305175 6.087332737869212 4.777619018846453
Ni 6.102853046225695 0.7058596880296075 5.596119575028697
Ni 8.031936499345134 1.8819256887207063 4.718598304576799
Ni 8.23699794034524 6.497081785930328 8.331397367432869
Ni 2.23829517127167 6.832168201182764 6.822978233609711
