49
Energy = -217.06861715 eV
Ni 6.216711031697889 5.6412344853735386 3.7512903951875134
Ni 10.272089232878491 8.237491795680006 4.590829497666793
Ni 8.119580102572959 9.350278973377227 4.302878568314707
Ni 4.408292628683746 8.579129908877999 6.175666355457103
Ni 8.321688540322574 7.0216617534228565 3.7281295290992165
Ni 7.495123945413914 5.820486973413231 5.6270488672793295
Ni 6.348556542340617 7.894769240567842 4.780035146241224
Ni 8.366874133495227 4.621886194805406 3.809150154634709
Ni 10.248626092237703 5.808656924896365 4.506051709956905
Ni 4.695707198196625 6.3924495697210855 5.4018234196943
Ni 4.199663565090941 6.706626529199078 7.781415430699055
Ni 12.040878622653073 6.956962092498864 5.592725233404694
Ni 8.043261554508343 11.598311056114156 7.270471163519928
Ni 11.048407833391558 8.650183452897924 6.833711811730663
Ni 4.1628644787111755 10.723786170079933 7.23174058105609
Ni 6.3756178216423915 7.383508004327299 7.115308018724659
Ni 9.089007260445772 4.235186315088705 6.149068136030655
Ni 8.58473316603599 7.87130993563725 6.143446114561516
Ni 9.417175668488307 10.132208714023406 6.022364657987357
Ni 10.12565324145793 5.323714264244681 8.972934416243799
Ni 5.835512953655714 12.119673701873005 6.477750944098915
Ni 6.855151403642999 3.624103606167455 5.3921101375537335
Ni 6.44465750655671 9.948480028752444 6.051632688009992
Ni 10.203476475297203 6.194987507428809 6.742558264295721
Ni 11.927572343920497 6.79346567164184 8.14769900299517
Ni 9.610980508085433 7.809193336233472 8.528716635713156
Ni 3.9886129298469473 10.439897891734354 9.61648409723055
Ni 8.11491663529918 5.997889322182997 7.983102070770129
Ni 5.676114302623995 4.994770134153238 6.950086409922672
Ni 7.854443658613486 9.350834740197888 7.781911369950453
Ni 11.210028461043967 6.978013546977089 10.396816256160564
Ni 5.415920561927578 9.071411278665886 8.299451211213649
Ni 7.453736822741342 3.7628048294468917 7.773344643762914
Ni 3.116181175791568 8.720295762231421 8.31163307178061
Ni 9.992243335243144 10.296271267527448 8.347367176632538
Ni 6.155561025318937 11.22623276040825 8.628321732083647
Ni 11.771859272755716 8.901401502751739 9.111424666214084
Ni 5.94407678665702 5.76982722388645 9.106009868411332
Ni 5.965030562244186 9.733270475238236 10.573037742751776
Ni 7.219012203005212 7.859883758262607 9.43628294973823
Ni 8.064822430018355 10.381022913028865 9.807404489559973
Ni 8.927610733644965 6.621996405951668 10.603599446672341
Ni 4.756968820586656 7.644603026574112 10.02640017514806
Ni 7.855156220003996 4.668729551746793 9.937377867383386
Ni 9.880002900793246 9.05540568350571 10.527373563238326
Ni 7.782109267551571 8.59960333414765 11.609505246225597
Ni 5.493481060471968 8.147290020070917 12.196782080489399
Ni 6.673034790951665 6.42170923806676 11.236853034325206
Ni 9.969315635657901 7.655192571114845 12.350977394394077
