45
Energy = -197.53409402 eV
Ni 5.937990399786943 5.29084200618718 10.838569868331703
Ni 6.796255454722061 6.557870348717332 1.603426540069831
Ni 4.588184557806246 5.735722197163574 1.5938968852244206
Ni 4.651200045986384 3.548052981493737 0.6057500515320834
Ni 6.599829191625865 4.22346540366558 1.7017470358115507
Ni 5.0132810039480935 7.631104971000619 2.934030057447742
Ni 9.281992365213686 6.573525491771068 4.862046240741149
Ni 7.318501500059983 7.462832928182665 3.7378932111059946
Ni 4.367481970553915 3.8332956935238287 2.9635823898263576
Ni 3.600921961542254 5.9269160065176525 3.8261845495917637
Ni 5.778124376096743 9.256740490084848 4.390566521681929
Ni 9.221755212708057 7.576636495937844 7.058237703019003
Ni 8.154000855827205 5.257125128286238 3.209068877605972
Ni 6.756827171913928 3.3304800972312893 3.867902287048923
Ni 8.357496731011725 4.092530397814254 5.318007231261111
Ni 5.9154831193391235 5.569426703572735 3.7361952031524877
Ni 3.596964924480771 8.251422065390418 4.808831061529905
Ni 5.672115548297049 2.064139610893343 2.1588961601474743
Ni 5.18744157370994 9.19414211674175 6.684347759470884
Ni 7.421645874301228 6.097449935471296 6.052487629030123
Ni 7.576726327743558 8.605379975626096 5.742112266267381
Ni 3.3465288214812365 3.8441065764502316 5.087764578824988
Ni 4.895724357718992 2.0576688891096704 4.39699834727215
Ni 8.467013095185827 8.635409698346942 8.998146995435624
Ni 5.408543617423126 7.12208512719257 5.5565803190757075
Ni 6.7752442543416755 7.716024699828305 7.693661799270702
Ni 3.352431224769607 6.100560353896698 6.146637794249975
Ni 8.244497559664449 6.191555230583427 8.719433095100586
Ni 5.466653782556044 4.44424210458046 5.82182850688138
Ni 9.588259702184754 5.271764040890778 6.927836032007861
Ni 6.283227353111257 9.62646635503188 8.97690387076489
Ni 2.993154042445287 8.173377501026291 7.093188591815545
Ni 7.4667560110465425 4.3092198254727325 7.567604348901678
Ni 6.62468124106064 2.482448193849521 6.13709544415645
Ni 4.583344946905048 8.04559175506255 8.719404425763603
Ni 3.4480053190081814 4.161908999426091 7.441974457442308
Ni 4.250999464816762 2.1441976733003085 6.58251059403672
Ni 6.3840388852791214 4.994233205584764 9.683706099830793
Ni 5.294259355470344 5.8121659964145715 7.7987894785770076
Ni 6.727716967350199 7.386182618094278 10.034406910632365
Ni 3.0831180816781183 6.219804972729294 8.581404816551306
Ni 5.5041680620948625 3.3007678607390756 8.169754269499546
Ni 5.056121459953949 8.7912255815523 10.838569868331703
Ni 4.621799098873872 6.465100665429688 10.447734851374847
Ni 4.054803624319311 4.340101525548555 9.703149403529368
