43
Energy = -188.67155166 eV
Ni 5.893446252257876 8.346783798365612 3.0225429117160694
Ni 6.984900672957248 6.2550802806551244 3.0071457679949702
Ni 8.29884707279476 8.246113321613729 3.2884236272561744
Ni 4.539637662044624 6.349766757730265 2.9066445420356875
Ni 9.220523799414218 5.853271470410469 3.623189402211329
Ni 10.389496264756836 7.631973505895995 4.47229354612473
Ni 3.5418510253248683 8.517117587222765 2.828276656262509
Ni 4.526962498189418 9.025468405318495 4.87857423635758
Ni 5.659952204439407 4.411150970923821 3.7022471171586275
Ni 7.5377806797809255 4.991864990278946 5.017927554447465
Ni 6.843449011372313 9.176943226011332 5.073430766260608
Ni 8.182586004301848 7.25549067090533 5.3573246650263675
Ni 5.669052273066336 6.7948382636564615 4.917095173796533
Ni 9.142839953868053 9.48524042609936 5.2798424574905205
Ni 3.7134549149680094 4.906817110979303 4.798245120222876
Ni 9.768165937316445 5.64911294994735 6.000141756884969
Ni 6.924590367168566 2.6743819903209123 4.5917695510446315
Ni 9.11112470166554 3.365172376746638 5.424876654135886
Ni 3.0528000131010864 7.157726880973096 4.647119110791238
Ni 10.17166230602306 7.9399312959298145 6.7598675867401266
Ni 3.238480137142787 8.425497702618598 6.7266297646735245
Ni 8.832310225221807 6.605354815863362 8.067423429045776
Ni 7.9096621528132305 8.654403378896014 7.247890556493773
Ni 4.538903016486588 2.6386240319943384 4.9671467210983336
Ni 6.742637821509144 6.239623015092031 7.034485920175249
Ni 5.585069729797871 8.36659287210859 6.943144239019785
Ni 8.245998930758946 4.378379675080787 7.35779342687136
Ni 5.9247573478445865 0.8036577388461671 5.570928042960752
Ni 1.177622972833855 7.885617038854092 5.79591916715028
Ni 4.253432443852137 6.21721241318825 6.758027244535002
Ni 5.71668392427942 4.165460075963473 6.325101946018698
Ni 1.991063574621103 5.733672806028326 6.317014063725359
Ni 7.39251788727397 2.2317188602935407 6.775953986473065
Ni 6.599183872417146 7.4817161223171835 8.96826802035959
Ni 7.516071542380788 5.287132723818407 9.440712507187849
Ni 3.399711591098456 3.80384819722708 6.856930750919706
Ni 4.138484159093805 7.506588385622835 8.73023637638628
Ni 4.997468534820714 2.045948532140354 7.289624251243275
Ni 1.7590475140588455 7.301084080414282 8.052171502770255
Ni 5.264448558767085 5.398864262643787 8.809060061159148
Ni 6.435033910072592 3.378230452058863 8.58873635482117
Ni 2.910964270077934 5.347905738854431 8.581355755194117
Ni 4.104484086848013 3.3558446668970765 9.068089140622146
