42
Energy = -173.39695073 eV
Ni 11.859284699546938 14.582065825009579 14.028069263364427
Ni 12.732818333854842 9.31923905687299 11.402379523424594
Ni 9.073171972361362 10.159054436315643 10.024738572112131
Ni 9.454016460725068 11.074442650505889 12.151517691410016
Ni 11.01003855376551 11.082664271784978 6.250096465940751
Ni 13.472631231596136 12.012003862131214 6.998150931940202
Ni 15.5689440196992 8.16910264023967 8.622713863332883
Ni 10.52574429685601 13.043642399409647 12.627735209574857
Ni 9.612613952594677 11.721806245499861 14.364825899348531
Ni 7.670305151815194 10.631988961888357 13.669236899604778
Ni 10.48400044212555 11.32456177117947 8.49554750023092
Ni 3.7259125459253815 11.7329234803136 12.839293387643163
Ni 12.80880082619834 10.95506557515285 8.89472926686486
Ni 3.7957421032549474 12.229498544285303 10.486427381723102
Ni 12.174174366773487 7.30157084271817 10.289481134381406
Ni 13.828618051633425 11.341065476936185 13.655611014690423
Ni 6.753733201718638 9.771672390880767 9.692431028261323
Ni 5.899612356335775 12.01626398675206 13.481597919954153
Ni 11.832479804446018 12.3331439486976 14.660163754264964
Ni 11.420823642277702 11.605117670993293 10.766289699769885
Ni 5.785730224220476 11.979658619667303 9.480367576078143
Ni 7.883089328781583 11.51580063306358 8.604904229033117
Ni 8.088492110774173 12.958582970043414 12.879902999084967
Ni 14.88523340481055 10.161753941387394 7.619617546575705
Ni 12.808119830757898 13.079445121987755 12.50262473578822
Ni 13.868975453947536 13.509542261029726 14.582316425288171
Ni 5.278336367825125 10.697128274456729 11.433484590630535
Ni 5.601024846342218 13.194507489823005 11.581009778037386
Ni 7.415876234047366 11.518851237406837 11.205551696441207
Ni 13.98916802874751 6.416704647961385 9.015410061243005
Ni 10.975987369650246 9.141544221314671 7.495200764845975
Ni 8.932926353763424 10.206791362553886 7.0718649171507195
Ni 13.73353965638545 11.37267378068796 11.305881973641952
Ni 7.865914846827568 9.194109729570888 11.856950698981137
Ni 12.929168826410633 9.834104642454413 6.520126966818632
Ni 14.444279814775388 7.834197633616103 10.731340947575566
Ni 11.634243132859545 10.694946446962177 13.013237449387855
Ni 11.148979883490004 9.307568864063127 9.731079324849217
Ni 13.213643954872314 8.570308853997586 8.556463537750421
Ni 10.37754626500878 8.986827767179623 11.880638994001197
Ni 14.726601004395057 9.955325581010138 9.921401801156067
Ni 13.640056959667191 15.688033269577067 14.947805742992651
