41
Energy = -177.90698169 eV
Ni 6.407317373140841 8.626375564933946 4.527389164850561
Ni 6.71534519154752 10.40725044280582 6.041474932715225
Ni 8.672022462070869 9.450651950038555 4.978022486145386
Ni 7.0894904023748415 6.2867559191341975 3.9774704892965946
Ni 5.318709110665289 6.8302721748827455 5.644966317314818
Ni 4.407129948965913 9.070787021071565 5.80811557227864
Ni 10.947870768713306 9.364979158985992 4.600739301969172
Ni 7.596662892208922 3.9564230244638856 4.078698038007023
Ni 9.046377882049761 5.402640050927504 5.426814354172731
Ni 6.742899170431331 4.991546282583267 5.960398628614538
Ni 7.653482527683628 7.2641977153772865 5.936799172487865
Ni 8.377849885158321 3.1529579754820505 6.13763137145001
Ni 6.542077814651201 12.339763610503221 7.530513588294229
Ni 5.938941110225445 8.460978834981546 7.421505465948041
Ni 10.861143346219178 5.694330222674592 6.927219389568931
Ni 10.050026376171356 7.629683170334257 5.810447309255798
Ni 10.459564744638971 9.819969159067798 6.778972429791181
Ni 6.1360758426441375 2.804642571383024 5.664574170223088
Ni 4.827089374222448 5.155877326915281 7.443040627888804
Ni 8.915086478186623 4.542240208234809 7.872391954661915
Ni 8.633463812879805 11.292215118971852 7.158673153940036
Ni 6.650401833624708 3.564168445229421 7.836586369950706
Ni 9.054467337471289 6.8602901368942035 7.879208835859393
Ni 3.8855664781210066 9.14076762282626 8.459668624029192
Ni 8.300095907602394 9.015134895694782 7.265315355201858
Ni 7.975596099633826 3.590847944712047 9.76039001225569
Ni 11.018958310689309 7.931049226002806 8.161647833709063
Ni 3.592054419293077 7.22803302517182 7.126320159293532
Ni 6.78582635819332 6.24588404660624 8.030188344683943
Ni 4.80103272815786 10.869739394832083 7.246456077243472
Ni 7.6068844583986905 8.176103021564336 9.42242011976538
Ni 6.92571281977693 10.384491897444617 8.68398299087029
Ni 4.809608866533754 6.947062170265991 9.118372642837054
Ni 10.506205434700547 5.6450132464974425 9.27036123430657
Ni 9.506298547605681 9.76990497205818 9.023144883946468
Ni 8.211351775079281 5.866252955104365 9.982812662404111
Ni 5.528815134282395 8.991613077439514 10.116199058532393
Ni 4.887757756416975 11.140429348258683 9.507368702287755
Ni 9.759446910532025 7.694764723851229 10.163153721895513
Ni 5.936782881469395 4.875237579065921 9.686816511026514
Ni 6.31779463671353 6.917959975871635 10.933013150171076
