44
Energy = -173.80888987 eV
Ni 15.641849553334556 6.469665235639924 8.840196425761976
Ni 9.345121136362959 14.267739940535874 14.084882991663363
Ni 9.515683429114366 10.793369492839476 5.110733844996046
Ni 7.682651710325539 9.872882508891458 4.230719920990158
Ni 14.027703046697305 14.203287848859247 10.906099230407497
Ni 7.830078100482251 10.800667555628822 8.903620359505984
Ni 9.804526661310007 10.368459315225744 7.644323673576872
Ni 10.107339322789377 10.485317097796578 13.093340436436959
Ni 14.460466351025218 5.074269053482408 7.524424149303369
Ni 11.36595027842572 14.565243586777946 13.075086932950432
Ni 10.647923496976782 13.384510211074534 10.018696010570405
Ni 10.186980073672299 12.581754486657312 12.156311526907073
Ni 12.584777404913085 7.654477818648807 12.918904782524189
Ni 8.420111413389103 12.140494917708294 6.443364274047995
Ni 13.191593522811628 15.514861195957685 12.557046278024016
Ni 11.64920953452822 15.264182510506282 10.771570873441545
Ni 13.351198214083135 13.357605108375948 13.63924344862078
Ni 11.432253658737272 12.636633673218972 14.239852530045383
Ni 12.263582156333406 12.827247067274062 11.52035626465341
Ni 8.636451669084396 9.19720685347802 11.705378079818237
Ni 7.221065292355926 8.351469314469615 8.170209072710405
Ni 15.289985160341617 13.119114413594637 12.356966549064014
Ni 11.19270253053111 7.58416751222757 9.454692517545414
Ni 13.373851334127224 7.162598112933764 8.346646240844608
Ni 13.704133184476541 5.471060094787884 9.722891383756153
Ni 10.22192577651698 10.872625990628757 15.224780175445833
Ni 8.406644080326062 12.912677381800238 10.364269637342069
Ni 11.621063972991037 6.212329179787055 11.080495896884829
Ni 9.471849752606284 14.687981117897328 11.535041503894247
Ni 15.320143637787307 15.242021256937182 13.027034249303053
Ni 6.772591361285177 6.131639236794179 8.534817683146365
Ni 8.732931397536586 12.198644180014762 14.018806837219666
Ni 13.563155891701646 7.631926423643294 10.68990374938716
Ni 13.579122062616458 5.649305865117438 12.065350768229536
Ni 7.613134681231552 13.660054903346635 12.547502152187365
Ni 9.332554974708124 7.046085411241631 11.07935564198761
Ni 8.008390181360125 11.380067456873535 11.871487362085835
Ni 9.13208227086165 8.9474134083459 9.414011275746201
Ni 8.895539048529374 6.7013467701752925 8.893809344261733
Ni 7.779025827659465 9.854128565840249 6.562387663453384
Ni 9.452354121346815 12.536361007310523 8.424012017659686
Ni 9.969415074836844 10.921084124534973 10.409876267707132
Ni 14.633480918156877 16.293137464253018 11.125788890741832
Ni 10.910027753354333 8.811590583748252 11.569555299640095
