42
Energy = -182.93414696 eV
Ni 10.92172592966293 4.887852060723777 8.388778969187346
Ni 10.35468152706561 4.7790553689464375 10.894475678907053
Ni 12.189852314139157 6.169830583465797 9.888274284575074
Ni 11.154221659509547 6.951081756565372 11.798020400308376
Ni 8.976928253832558 6.296907146898236 12.35692320730061
Ni 8.048470530641426 4.4236387146387655 11.393383050403632
Ni 8.559438372121809 4.6958067287286225 9.156045016273922
Ni 9.864334757857321 6.6035360896658855 9.673333744530368
Ni 7.098630528059647 7.861622227756162 12.21992927883308
Ni 7.620062108014102 6.5482852724021425 10.458171133885036
Ni 11.335378215665976 7.2439028007760395 7.893556435983169
Ni 11.244962622156045 8.50540673966316 9.907681313607304
Ni 9.298386554599196 8.336943383866759 11.255043551957604
Ni 11.061580067219722 5.806960574060141 6.0687464220670275
Ni 10.149545279611148 8.07952832969215 6.0625149811800085
Ni 9.15532273848771 6.009920604546174 7.325226786873759
Ni 9.524619577028021 10.201139576364818 9.769897290180905
Ni 6.9301771436804644 6.330555241898791 8.276176723526607
Ni 7.395656583150311 9.182462237592793 10.307590623260147
Ni 10.857455119696695 9.579355944671828 7.801273366855113
Ni 7.802337206676354 7.664465745498611 6.438440825005586
Ni 5.898031334619933 9.19277110059398 3.809924873894466
Ni 4.216128802695136 9.31624199130938 5.7362998144785635
Ni 7.633670010095704 10.874924438508138 4.353754570754777
Ni 5.322605429100101 11.302805821851448 5.030219657464572
Ni 5.215739315596459 10.793886287655075 7.427274641549257
Ni 3.1064021290191444 7.3845619564745 6.416583728726786
Ni 4.410404027016296 7.396938821840768 4.42642695058985
Ni 6.562652494355926 9.561756866906428 5.95490215546431
Ni 5.313456803204211 10.053344200362455 9.634857624469225
Ni 4.181106544177368 8.636181060525473 8.068689105982525
Ni 8.387809283624511 8.684981827177124 4.414026809742373
Ni 7.181433528443938 11.821579486016356 6.450959821288212
Ni 6.520872197635268 8.683574423463627 8.162747175957385
Ni 6.702852518073257 7.0174659873337175 4.426446147883348
Ni 8.830516159574396 10.030557101584309 6.514856603069191
Ni 5.43120649796041 7.1764182983190645 6.543098833175511
Ni 7.5693388899062715 10.736882560235488 8.471991938915247
Ni 5.568815182840031 7.680877443208553 10.051064273781918
Ni 8.929970699776172 8.40539579005993 8.433643528715137
Ni 9.006652588703242 6.34563495037947 4.8799924694670676
Ni 7.13528258401765 5.413676567082962 6.127470299239411
