41
Energy = -178.51810203 eV
Ni 6.577690269963345 10.248198761423044 4.90786936000233
Ni 8.634481492827113 9.512808976474448 4.0286615666025964
Ni 6.937693431552806 6.934031865799727 11.069279699574446
Ni 8.654222020415155 5.242107895844668 10.806910359026405
Ni 3.287409462154943 6.614639381980303 7.680671403041986
Ni 3.95017580828982 5.3321743876541206 5.794212415725341
Ni 5.459306678861164 7.53369057817038 7.432507599578938
Ni 3.0063504602888185 7.385384712064409 5.353442730415274
Ni 5.042261931166655 8.585581636179082 5.35283287190341
Ni 8.957031098345322 7.1843896062919725 4.023007620598899
Ni 6.739452647533449 8.12377210162392 3.642119615260499
Ni 5.23016534523091 8.624777977564033 10.793871973673319
Ni 8.952217235599718 7.204828497164004 9.596214692855952
Ni 7.109716566440395 5.7316042205652264 3.643088553572796
Ni 3.4006027926935327 8.887166170875448 7.095139807148347
Ni 6.318485486965208 5.845301517228522 5.82079590353086
Ni 7.1803507595009926 4.121261078117147 7.244090883095075
Ni 5.245202660354974 3.3951009724706136 6.159569624767528
Ni 7.2762076189058815 3.6156456392158964 4.922130582554879
Ni 5.21794040022691 4.3374252565208655 4.03834316522952
Ni 4.920160445006937 9.68078369520129 8.69673754957099
Ni 9.907647181251775 8.521771017582827 5.786146102934822
Ni 10.563643765053662 7.243152169642093 7.676424815198531
Ni 9.115490461163573 3.177719327198545 6.4491506356533
Ni 8.746549224663804 8.78320717007771 7.830213575748353
Ni 8.800039618007002 5.287909459535101 5.370485700724543
Ni 4.740238808841357 10.685259670381688 6.44520210467673
Ni 8.948615228945748 4.176953201901367 8.710758410347696
Ni 10.62299596033704 5.600103456962847 9.413149002832455
Ni 6.876045670871399 8.261844243355677 9.161432889694728
Ni 6.982947146603181 5.560969656130831 9.197087463713505
Ni 3.2509752478928498 8.263246930047057 9.416133133060075
Ni 4.896470918287678 6.670303563001326 4.02735079029281
Ni 8.37717822318409 6.3305249672872534 7.461948367690181
Ni 6.679663557983435 9.737535850229973 7.225780305764368
Ni 5.116826295921911 5.08300504936175 7.836920763912622
Ni 10.449075358362755 4.975079356592982 7.096131112544478
Ni 7.538145199007035 8.006677012070767 5.8167100507666625
Ni 4.921553465398874 6.661165954293308 9.589058985705858
Ni 8.614788911398685 10.460208896109041 6.141347394198999
Ni 10.848585825108279 6.465994734477307 5.348333040954229
