42
Energy = -184.55872519 eV
Ni 4.98618334870734 6.397524150481973 3.74336092682119
Ni 7.061335120626768 7.5100273781195215 3.7675708685786113
Ni 7.384593191283087 9.797296323980591 4.2762391622592455
Ni 9.324764658133214 8.030384194001615 4.122396697325976
Ni 5.106312559169147 8.74428456491167 4.43776679482347
Ni 10.564203042552636 6.132145063782284 5.120071174346764
Ni 3.5227717424284095 7.057117496635558 5.348022824281051
Ni 6.8316225586487525 5.161513772561784 4.256324133620155
Ni 8.981723670562722 4.277649353862717 4.919609065878712
Ni 7.946955763445594 11.31324973245235 6.204489463934506
Ni 7.793205979550616 8.813170999355904 6.32872747057141
Ni 10.099754589139724 8.021166422284086 6.456254075819779
Ni 9.603104377996738 10.007705926436 5.27844776301126
Ni 5.899305409553247 10.223079768527567 6.133221381426665
Ni 8.288557776780479 6.5542441153920485 5.570822645245368
Ni 4.040962503155839 6.840917606758731 7.581107138357929
Ni 9.604989535695474 5.095282486957413 7.046786271908682
Ni 4.840196664662206 5.0253259418094505 6.175659497687192
Ni 5.9431795597482004 7.107173146053434 5.881593889138902
Ni 6.218199078322696 5.941201712939287 8.082622191817881
Ni 11.400649339481946 6.444075427533415 7.506769371392626
Ni 9.351008028066888 9.98409071576506 7.67920925273393
Ni 4.145450979405201 4.790462342231643 8.633833896673869
Ni 7.2025525162595985 4.604951192651153 6.412116845316275
Ni 5.976489986923508 3.5138249047192835 8.01047233644649
Ni 8.343481472568607 7.12737512706543 8.074286672075438
Ni 6.030928280404 8.353300199584089 7.971554603699899
Ni 10.363810031699945 8.141370638689754 8.845519146008161
Ni 4.772942602015085 10.583349572429084 8.223171658388345
Ni 4.7944860741614885 6.848907706712355 9.84160784659316
Ni 7.0743551174566015 10.511103368590287 8.26088412197773
Ni 4.002606026252984 8.987441495111842 6.610271059558722
Ni 9.95225660821725 5.8014789631202355 9.302709976915372
Ni 8.610502127259092 2.9692092886797528 7.052457017177773
Ni 6.057482314603203 4.791878597987744 10.12685612865371
Ni 3.706153261799099 8.696637935488955 8.982272003902873
Ni 8.236458699168935 9.015603201979244 9.563858356526026
Ni 9.314858857873729 7.417301270926009 10.879984276180105
Ni 8.04340351814521 4.4638238393764285 8.770932117764602
Ni 5.838295661320954 9.207758726428256 10.068211608878915
Ni 8.293852042573626 5.263685145400788 10.919989826446095
Ni 7.077030934526287 7.062885792569882 10.162914050180733
