48
Energy = -212.77174152 eV
Ni 6.138320259317293 7.306781499612467 1.0144765285626856
Ni 6.33046015439776 4.889731156881372 1.010784140660894
Ni 8.38792429681555 7.960252625431675 1.176150501731635
Ni 4.325273464066307 5.835732427106093 1.8898839031058727
Ni 8.53850796089676 5.708095795951237 1.7081797109127643
Ni 7.58590490722675 3.731211896158692 2.659150182170955
Ni 4.770971134769821 7.892623131262609 2.961599596302533
Ni 2.6321832759040653 6.7766056529537835 3.2251453057078527
Ni 6.967118597851554 8.68157332364705 2.8912462905771212
Ni 5.207007331665847 3.9304280851195683 2.9341103971842304
Ni 6.6588548775529945 6.203234585906671 2.941738059023078
Ni 2.901254654644368 4.409169593656403 3.6399914790183296
Ni 8.743751833540271 7.330288263097364 3.476944135583011
Ni 9.11474705747818 5.032890155142701 3.9674376032494654
Ni 4.602536904184509 5.777631285825479 4.327932672958427
Ni 6.373683084332774 2.4217422117117033 4.267690904109794
Ni 3.979230430964386 2.3931096746393763 4.370654070866864
Ni 5.615093564104472 9.567886842270854 4.622133060598375
Ni 6.9274281195529595 4.744083042441903 4.769260125139156
Ni 3.657329460170292 7.964901777886155 4.997143217266724
Ni 8.60963350583689 2.808641076355289 4.654003401461105
Ni 2.4550152681657806 6.011517885488324 5.49976003550283
Ni 7.910126626288109 8.882059842666472 5.132341464931102
Ni 6.1710395313614566 7.335762206592382 5.053793290038704
Ni 4.973475540969662 3.911226283747203 5.866530611073903
Ni 5.406107172239769 1.0119677035012415 5.752846115725731
Ni 4.624268120307395 6.4104764187502825 6.762909144078305
Ni 4.793661614612633 8.892352368162138 6.715149866448769
Ni 8.867265035163875 4.40446169908084 6.321624109919006
Ni 2.6736401550996725 3.7039404450236884 5.941362966939236
Ni 8.36391081866552 6.605054729512552 5.7074437215060625
Ni 3.1752158409873337 1.4329697537187185 6.396362945536226
Ni 2.7975967818917753 7.694898422541093 7.335809186671741
Ni 7.0432768686730025 2.870299627084087 6.559925029628064
Ni 6.777275547334517 5.306097404486315 7.026773863256384
Ni 6.865247718335945 7.759805664726478 7.290500709987811
Ni 6.745977084031497 10.052704116762119 6.774797519493722
Ni 2.2923485420700827 5.307954481714809 7.728624448383633
Ni 4.451482476192246 4.500724144112327 8.168066734998948
Ni 5.0072054053852755 2.2097814886969736 7.648738464946339
Ni 5.014424075567171 8.352593991980426 8.871237602461282
Ni 2.676237575576833 2.911438234725745 8.164347897762312
Ni 6.04386907786913 6.260773306716956 8.97794521283326
Ni 6.529864782377265 3.764341564495404 8.823754827995712
Ni 3.6844219383508023 6.504803132500123 9.240792454397647
Ni 2.7322916485204733 4.442831123204024 9.96428096555403
Ni 4.433242300244395 2.7712175215235053 9.82478208253737
Ni 5.010880948698315 4.907915705680876 10.530426811454552
