44
Energy = -194.23765288 eV
Ni 6.396604270245537 7.205132935333539 2.1474910343001343
Ni 7.332724728373451 4.98845029975191 2.3247063511542234
Ni 8.160219848430105 6.828628472708102 3.6743387509355343
Ni 6.340450164120014 10.083472790270172 5.6961523493414905
Ni 4.761049546490014 5.567303388616274 1.7586387629861626
Ni 4.241620305601145 7.657987924119471 3.139040014726472
Ni 8.2804127517414 4.578065162554859 4.625054686780638
Ni 8.193396197969633 8.495803633405412 5.525554052502386
Ni 6.222335902896421 8.203097639770737 4.259300091473249
Ni 9.432179973359855 6.426416890824833 5.682301246097148
Ni 5.68897459671621 3.428336859867364 1.6760582427261377
Ni 5.745458977813502 5.566432788152431 3.8761267474961016
Ni 4.218000291239998 9.204580034717877 5.200024170813013
Ni 7.673396320696332 9.681743782568175 7.5537778662534105
Ni 7.070735909420424 2.9200020234789497 3.582377314412019
Ni 7.051781988767159 6.318100529267784 5.678657997452835
Ni 3.26869428555988 5.580409561910012 3.5778115593864337
Ni 4.466687445847006 6.927418249969701 5.398590387275547
Ni 6.077392511964636 8.059754861172877 6.870491400294913
Ni 3.2445166922636615 3.6636753276975695 2.1095912423421552
Ni 5.438058695560071 1.326345874664374 2.5516025108405205
Ni 8.283515633748221 7.2817774285086765 7.5907539423955495
Ni 4.700668402059275 9.648250543009999 7.596277626202806
Ni 3.385491418581582 1.5679185446109005 3.612391764338593
Ni 6.685077118941155 8.32112793582694 9.12938769343829
Ni 6.154851019419776 3.936975148273834 5.785715055031927
Ni 5.727190623440289 1.4940511097975107 4.872259506252797
Ni 8.175270778022046 4.854348137947142 7.077085964891522
Ni 2.1104063368609376 6.12027493202129 5.640986827989891
Ni 3.115987636057013 7.973040147577534 6.953820807144849
Ni 5.4550646109123715 5.685936531740909 7.309882570369156
Ni 4.736972664232741 3.4135354153938353 3.810910872325368
Ni 7.795113587243119 2.461647802461822 5.9551612885047405
Ni 6.957199932264995 5.966988673137999 9.0120450368224
Ni 3.9249876373406893 4.676572909596103 5.701621428750948
Ni 2.2663347787638544 3.5865688414234955 4.345040832216071
Ni 4.592571430680269 7.385799548047663 8.710454198733038
Ni 6.5082296805987765 3.728560324181032 8.279684646698175
Ni 5.699342414207774 1.855214415286977 7.134033774169571
Ni 2.0235780261213145 3.855559675315378 6.726115276707155
Ni 3.1009263884836282 5.728737128723319 7.79400954034997
Ni 3.69903211050042 2.3100857581966814 5.85050693020803
Ni 4.792579059392855 5.093802109623767 9.501545117625682
Ni 4.188112607505603 3.5506083287111663 7.798847463712105
