40
Energy = -175.02927631 eV
Ni 7.816377055331509 6.149306088660374 9.218083985180218
Ni 9.401704822114628 5.139276697345613 5.5695615454479475
Ni 9.040166606731669 6.742201830550717 7.241163007663652
Ni 8.317529631924195 8.93073951906206 6.637255335217137
Ni 8.502300976443411 8.388159260115161 8.935397086254449
Ni 8.7150574289489 7.365083951226897 4.886084931030368
Ni 7.934632905055916 5.343076171006649 3.72664879482024
Ni 7.603435832360926 3.5683500482689414 5.373404777294926
Ni 8.212152716608413 4.47235144151725 7.5672120150224504
Ni 6.118483097593933 3.7819693439796453 3.506522470085347
Ni 6.021300889547582 9.725749317280103 7.03801133399555
Ni 5.523252403875425 6.941042151434068 9.624508313057316
Ni 7.129799758234237 5.879110281955015 5.939032653006536
Ni 6.701649144647226 7.545421510582503 7.661863495430064
Ni 6.494029377277555 8.20123782945093 5.244335009966758
Ni 7.202881828639716 7.556650955148728 3.0354760209768235
Ni 6.284437258613292 9.161025425124759 9.323426472818552
Ni 6.341851710737264 5.600632303586068 1.9146695212498153
Ni 6.376771192914372 2.9360528759120514 7.383444841218633
Ni 5.954630103300952 5.189867426298175 8.05151643204631
Ni 4.848216484204078 6.6701305814902385 6.34403359203277
Ni 3.712139709965843 6.034574019162824 8.364473856972783
Ni 5.562953521409451 6.114934293020257 4.06201315649582
Ni 5.773114987136378 2.046890778939637 5.210735652318444
Ni 4.367505868785168 8.35972763394891 8.075354914719206
Ni 5.651409362167107 7.763032783368682 1.295059664681857
Ni 5.241314896911576 4.315338123169391 5.769120666942784
Ni 4.078946008232542 3.735843427440183 7.791378426259044
Ni 4.241881016798888 8.913119310607009 5.678473022823544
Ni 4.909195543372411 8.35383877172985 3.4407366482544415
Ni 4.479252577640501 4.117822932216934 1.8506792735101951
Ni 4.5037109405768465 1.5141185790105753 7.124045844311521
Ni 2.614234809366134 7.49446594340635 6.778015907070038
Ni 4.181569385352009 2.4225485055642064 3.4791874329188834
Ni 3.2491078973612972 6.972344279030849 4.557740832213743
Ni 4.021183148752102 6.4067222525073735 2.322925354554573
Ni 3.851563245929516 0.6988958966250367 5.030071591305269
Ni 3.5821980459028464 4.664750947817355 3.955846232841845
Ni 2.9325347148696315 5.191764612574641 6.200975407146926
Ni 3.3056610921381293 2.9045712382469464 5.648036330911634
