41
Energy = -180.75960148 eV
Ni 8.191738091853042 3.2692739349078703 6.980994583697076
Ni 8.999968945947815 3.00557028926349 4.686823998934867
Ni 7.160368668758147 1.7942256076600813 5.2301676429092945
Ni 9.5698260647674 4.967923908627813 5.770576269713679
Ni 8.239555220434223 5.633619482237785 7.528983672487436
Ni 6.3815691760894016 4.39220935683098 8.33991909817753
Ni 5.826629397081789 2.6774666450996016 6.916860717466394
Ni 9.695313762045293 7.260902613192296 6.561414408822402
Ni 6.780809437015264 6.709843685354435 9.051743091122265
Ni 7.060099157155101 3.3156188260707813 3.2462298759015167
Ni 6.932429856194267 4.285020306584397 5.34256843370019
Ni 8.88700458447676 4.985824463783095 3.485699568167084
Ni 5.133531160791538 2.738209467410953 4.576044794698324
Ni 7.6008696897401995 7.985581246055074 7.197436558020656
Ni 10.132086506948335 6.851901809672781 4.372591978814159
Ni 3.6792675596611177 2.0672688009608478 6.265118183409227
Ni 3.991318109362644 3.5992090363268345 8.232480903217354
Ni 7.794633398057716 6.514236642213288 5.058667310991973
Ni 4.585305324491485 5.917126181197826 8.614404314923762
Ni 6.062330574678177 6.124888594479324 6.802453124697502
Ni 4.277580524559122 4.488106725042233 6.125352826274643
Ni 2.428601213514145 5.521753863796203 7.910140785461305
Ni 8.311339419422145 8.676646015813057 4.924429415181058
Ni 8.570591878705185 7.283880800627731 2.7839728048265173
Ni 3.082465402059792 7.771161679793863 8.537362880020376
Ni 4.8022763231612835 4.428601601598013 3.04119794330543
Ni 6.809560355961182 5.666347980525291 2.743586459803099
Ni 2.030577491991023 3.539530968188875 6.777892540931222
Ni 5.265788714770968 8.162693899216938 7.899008814661709
Ni 5.388552177849906 6.114069088207071 4.5584430239488345
Ni 2.8897254898677582 3.6355565954077758 4.485930410964978
Ni 5.880027492593886 8.31826371612259 5.644659610503346
Ni 3.729620848098851 6.826753640103596 6.2792483113528705
Ni 6.464434740409403 8.002728865331253 3.4033430375745812
Ni 1.472245561141926 7.528668615428967 6.962314871350783
Ni 4.753973909893843 6.759345483234923 2.2946691371315855
Ni 3.154471104365644 5.946086131271493 3.8424997232177764
Ni 3.5231028658334145 9.042409201994829 6.355187392395003
Ni 1.7461611935454346 5.533928567371261 5.626899650513058
Ni 4.126244950205034 8.179015331430056 4.106342834950547
Ni 1.9480746260666528 7.7875414190992105 4.760812085690379
