47
Energy = -207.75634046 eV
Ni 4.379623319648351 4.392997946951686 0.2862020161084101
Ni 2.0018862730153444 4.862896695054692 0.42708846147442
Ni 5.104875413973648 2.0157396911015257 0.18269240061057973
Ni 2.8978483111214834 2.5965293710585575 1.1183889788426864
Ni 6.668562951866878 3.8670899088751787 0.794265098419151
Ni 3.6531949540997877 6.576540580607328 1.1873963564633954
Ni 1.0786328910820446 3.7866748841359783 2.438763415581501
Ni 5.556124465127158 5.51452995076429 2.2081870179465812
Ni 8.67437965448111 3.1745009161916844 1.7466595993202023
Ni 4.9656413564860005 3.061848352722314 2.1917828594333035
Ni 3.189522384449658 4.638252245547626 2.383523212115986
Ni 0.8755330704141056 2.9556224678160374 4.671288266620416
Ni 4.545483555605753 0.8836364031738917 2.4333060435190963
Ni 6.993308200819678 3.8041155163004925 3.270951905320181
Ni 6.847966991493089 1.6872264650788946 1.8501151487588479
Ni 2.8246575658055164 8.217901334399638 2.638311666511434
Ni 3.79523063070105 6.44737688869967 3.810606407616204
Ni 1.4961823720880467 6.212594982594528 2.4151189612140516
Ni 5.550774414953442 7.754976765672371 3.3376087227867424
Ni 8.351447554798462 1.9738932039083044 3.7123907606417013
Ni 6.477237160076878 5.803534028242764 4.451661484571233
Ni 0.2033838393871002 5.282073959698914 4.189607559291446
Ni 2.9084799116149505 2.4544815543642344 3.5357445183141745
Ni 4.650881384351093 4.194620965252096 4.107208345625916
Ni 4.878615108023458 1.7314324490694117 4.735453516328128
Ni 3.7495903560303314 8.576312477682288 4.757645811328457
Ni 8.674379654481111 4.171303930135927 6.12301556165661
Ni 6.5344450740565625 0.4423547149591221 3.799028754066485
Ni 5.622480034816368 7.574332937649478 5.811540081305464
Ni 1.7046135941605483 7.225968292699395 4.586200639101971
Ni 7.223577340789641 1.650970244236028 5.72684086887056
Ni 2.3725772539550998 4.747072311139013 4.783424932813928
Ni 8.302320876106334 3.8900760975671558 5.317676172609862
Ni 2.5402212836719817 1.529411161420482 5.715506551083467
Ni 6.117121315783814 3.668974223557564 5.734695397709282
Ni 3.762902207652716 3.352521925097158 6.151226256232101
Ni 1.1176920140980566 5.836310342738096 6.4325927924701185
Ni 1.5027587564830018 3.4323822393013463 6.941317328588326
Ni 4.495195077294968 5.5960296901194315 5.992143249162382
Ni 5.302693994909917 1.8935242615702412 7.19357815048486
Ni 3.0683819671610393 7.253283764394339 6.6049435778202135
Ni 6.867789404200367 5.607366484810286 6.834165316498572
Ni 7.405058993256458 3.223768790170752 7.546997491364429
Ni 2.9897868082194825 5.11790686657692 7.775498517642786
Ni 3.3105520097269476 2.727622827630421 8.30496368631501
Ni 5.218748270919232 4.200490186857205 7.9623929614194635
Ni 4.973872347445341 6.614055956555193 8.003410432168524
