44
Energy = -193.30596107 eV
Ni 4.227922286018979 4.619702022758236 9.442216351809288
Ni 1.8697919280010225 3.9772529704815085 0.2312678190964577
Ni 2.3648032840053776 6.3725058347914505 0.7154318985838741
Ni 6.086180830135689 2.727089334289064 0.2232085165110119
Ni 6.5949209020595125 5.116052477066022 0.22431186474438664
Ni 3.7400994222352875 2.420779562705112 0.8683566104245155
Ni 4.757855668344682 6.452418171409217 1.459665142607738
Ni 3.158454506968258 4.706975098848357 1.9191402662916939
Ni 0.8698959355032377 5.02282126633898 2.326729547426934
Ni 6.968935626241677 5.7142626562088745 2.5048625938559295
Ni 1.7309970759566295 2.6992281311063984 2.3072144137803563
Ni 5.413418160228482 4.103432109942465 1.8491416568250212
Ni 5.789468666242281 1.6834123688524485 2.507585481852111
Ni 3.372029181789989 0.7852899497439769 2.6944939193878237
Ni 5.753402997917919 7.591876786076946 3.2956507285768293
Ni 2.4493834005708717 6.6675562697319855 3.2195172069660494
Ni 7.556810924315612 3.273539743620484 2.174254841902579
Ni 3.9503201944983783 2.886998819727879 3.130615847051841
Ni 0.30319331510175346 3.4616538486127464 4.145373133721263
Ni 4.527091542889696 5.6388703891489405 3.745945422061841
Ni 8.445395417329625 4.387953182974906 4.057975376329022
Ni 2.3735635887298567 4.443557625255233 4.113942188096521
Ni 6.168950515329773 3.955720278103439 4.089767630493842
Ni 7.096395054511991 2.0613428746919644 4.684392960952749
Ni 7.119217603271187 6.234409461709071 4.791730211503825
Ni 2.2550796287496992 1.9643445722050887 4.597998057563365
Ni 0.798270293004257 5.678928646091672 5.197073273783182
Ni 4.1191902334199 3.4234403654821826 5.263311216836558
Ni 4.775448303692835 1.264200599546821 4.758195295898236
Ni 5.134128107551935 7.453825916932326 5.558788145088712
Ni 1.578740437711765 3.614780731943156 6.225429550122967
Ni 7.444212899294588 4.204720102749165 6.2317661457903535
Ni 3.283719997984292 1.9061087368284697 6.844636146497923
Ni 3.096415660487319 6.145665495961606 5.640647304376955
Ni 5.358528460271158 5.215166200006755 5.973754277357487
Ni 5.72226396894771 2.5659685839921296 6.685723206846665
Ni 3.6438908756666994 4.277955770141784 7.2972357323502655
Ni 6.767572319448702 6.542944104944772 7.172437676552725
Ni 1.8358779196647936 5.645548031158661 7.59597175211585
Ni 2.071233751234273 3.257527878574331 8.555613936817737
Ni 4.345063152967095 6.50058226330154 7.723578251811916
Ni 5.881439829850409 4.54448384254166 8.192003304929742
Ni 4.452384328645767 2.720133291907787 8.804190401001849
Ni 3.626276604087819 4.947208432374121 9.442216351809288
