49
Energy = -215.48278724 eV
Ni 7.62105421446014 7.6295440239891334 3.6215044965028533
Ni 5.301257270146099 7.531636759093977 3.9164834444316754
Ni 8.837634331623505 5.727626771886737 4.630085397935167
Ni 11.236863751745691 6.172008572391191 4.8179051231911
Ni 8.802213232971257 9.295214707315187 4.923194521390245
Ni 7.7589462385280346 3.8966296508283382 3.768807515156552
Ni 6.398869516559237 9.510902829155084 4.855921690118176
Ni 9.968498919796609 7.700224735153682 3.69023360610445
Ni 4.710555932647399 8.242890693075958 6.063623285363
Ni 6.404157976384147 5.531124926238321 4.589886792724239
Ni 6.992320884656752 7.482107868320855 5.812647338150896
Ni 4.623046164438133 10.625063912688324 6.138771421672565
Ni 5.798337722671074 5.227216620999153 6.998003393178979
Ni 9.574665242311216 7.398571746473579 6.073266883190293
Ni 4.259770503207672 6.0593118700803785 5.438863077525503
Ni 7.745076679408439 10.914153240163028 6.207537755786768
Ni 11.941540923932248 6.776322899660621 6.9011979427168
Ni 6.148173070315455 9.861617375006487 7.601959446289022
Ni 7.776152904535268 4.073306241370571 6.049390337994694
Ni 11.313268203074166 8.707829593037909 5.543281561633838
Ni 9.84943452330624 10.019404873150275 6.969404463073928
Ni 8.038991255594555 6.024475382312251 7.36372677571217
Ni 4.341428439501072 11.301463757154446 8.45598212304833
Ni 10.171845642590574 5.11094318275035 6.6969963694230525
Ni 10.1461523397119 7.051881407732826 8.358354832970901
Ni 9.321801020760432 3.1045875414727506 7.511608811645807
Ni 6.281497019450859 12.19089786368942 7.492691088645524
Ni 8.208572643153584 10.822637589898811 8.520373635705814
Ni 3.952612432363526 9.019899051632056 8.117033102605689
Ni 3.9014017703907724 6.545422751038389 7.726105485041519
Ni 9.499274987865048 4.869082134764646 9.036532434723936
Ni 5.917729599735063 5.555855612436303 9.41859292713816
Ni 8.159738762407828 8.559679608053717 7.604268096063058
Ni 9.583018051693909 9.084184626834304 9.480628739072685
Ni 7.3781558546345805 4.036108254580141 8.46447789130207
Ni 6.033204720075146 7.489824906881395 8.04253210753828
Ni 7.993619077334533 7.030337042247724 9.466377496006967
Ni 11.54147310077561 8.838152555302715 7.979874228359441
Ni 6.30102621730002 11.396015433014947 9.766859706752316
Ni 9.91398482140498 6.569977833282268 10.740814518172034
Ni 8.245659386607329 10.532881662003936 10.880717705061445
Ni 3.678229238828613 5.377149865301749 9.683339836753643
Ni 7.811341301081119 5.141441149523593 10.799953624035215
Ni 9.92213961717227 4.318399400556367 11.217546928744984
Ni 4.4615272811935 7.522954136325871 9.898223150705725
Ni 6.778750607311192 9.059328846520769 9.834693303634694
Ni 8.4534695142548 8.258742384593395 11.44983391992074
Ni 4.615445815558288 9.809117424584995 10.277700957377343
Ni 6.37208039335448 7.0818578042555025 11.188199828531737
