40
Energy = -175.51102762 eV
Ni 9.283774696573873 5.009322322290903 6.14958955947813
Ni 5.454280271071279 6.230286024094307 2.003703497014693
Ni 7.130862729462124 5.705657998348008 5.4624711368401675
Ni 3.556415416657146 6.923212995031914 7.059414568228129
Ni 3.369155003637813 4.558584508700507 7.194983246381241
Ni 6.240351259321736 2.17854038233512 6.476541749455153
Ni 5.760990420339918 7.77796483464018 5.957785912312023
Ni 7.605549146122373 7.016717963972243 7.496592742566577
Ni 9.811573289669484 8.829767136686943 8.834610052350756
Ni 5.118485928111577 9.91993333830275 4.957976204117512
Ni 8.676203727071789 8.968739940630643 6.77216566124477
Ni 5.426186705653214 2.552494656741429 4.08257060406247
Ni 2.981546496783534 5.674850587265283 5.07309540366762
Ni 3.5455790004687775 8.026013806617206 4.93820822531783
Ni 5.569723178029699 5.757743495262555 7.223549984936051
Ni 9.92737505456653 6.932234733906998 7.448626882206923
Ni 6.442609936788028 9.735616333381191 6.963493872495523
Ni 3.969212801588043 2.248378685221583 6.842341014081282
Ni 3.33957545927506 6.784686968839925 2.9200302967515936
Ni 8.843693395683347 5.13805199261575 3.8382142702281308
Ni 6.508569492156455 4.560187607401188 3.3379607227054935
Ni 4.121842220762263 4.455631163668766 3.1623148501971214
Ni 5.415838967158693 7.929436565032746 8.368994804762918
Ni 7.624092443508929 3.359847117732814 4.987899450271396
Ni 5.1797161763604 4.128233096605486 5.652650041435507
Ni 5.340114106794969 8.289430683335114 3.305966834066582
Ni 5.102258668096102 6.201389016577203 4.357183000663381
Ni 3.093496509107819 3.3142735101783605 4.977393410324601
Ni 5.29049376923594 3.6267911437928424 8.272021839278123
Ni 6.361775695160481 7.279104599764054 10.336744412686109
Ni 8.642675192403384 6.9651448709733845 9.628281450233885
Ni 7.324421506963132 8.996262524678226 4.786009753059288
Ni 7.285455116480879 6.937975959284705 3.4363686498950115
Ni 7.401532047514026 4.06111867321841 7.260282823103404
Ni 4.065809411959039 9.24613309245634 6.953159537047681
Ni 8.923805771065139 7.195083975547144 5.20292627410344
Ni 4.447437619810339 5.825743926922575 9.198612237769737
Ni 9.106808302075372 4.969729826430125 8.518618515311191
Ni 7.4804621397425715 8.93664240986736 8.953700305092916
Ni 6.828853644271864 5.351644249150688 9.205548921757833
