48
Energy = -212.84335743 eV
Ni 10.333461247828668 7.77945789080192 7.676125539468313
Ni 9.70732859984891 7.593824451673094 5.295062075240283
Ni 9.862938490397232 5.316819086061526 4.387771557366084
Ni 9.979456541116798 5.674623378595247 6.789457560958283
Ni 8.48490038880071 8.773415959861802 8.707216772629005
Ni 9.06197861964001 9.497591314991789 6.574017522844606
Ni 8.739434604472793 6.377611403631101 9.028501899409793
Ni 9.414099443039147 3.528981632711544 6.15950080961361
Ni 8.787387114760614 3.1073352156642047 4.040808823115475
Ni 8.132762567502747 7.127616311291574 6.899073363343621
Ni 8.29632667213733 7.034080014364409 3.54663496149383
Ni 8.317250534212933 4.854801874804973 2.543781752038474
Ni 7.99315296064301 4.621278511044213 7.6500467264010945
Ni 6.599667358476732 7.530710390416351 9.124768548441276
Ni 7.595862138381281 8.994983047629164 4.791298795914997
Ni 7.7627687363325935 5.154461442601638 5.274105492470458
Ni 6.732542941588185 9.00659374037007 7.013840093450951
Ni 5.859713717625347 3.7466959039875203 7.743365923626268
Ni 7.023614882103847 2.909817874547831 5.845287127469254
Ni 6.023161835510832 6.100970322566981 7.359639407877445
Ni 6.548703083636697 5.1733118330100085 9.501947482406887
Ni 6.6016517829645665 3.4759397681160933 3.513763041953251
Ni 6.353115223372519 7.117778935057735 5.279259398631609
Ni 6.274014057103823 5.7613963220599045 3.3769475243005105
Ni 7.178178356142245 6.649637896218761 1.4203247693245484
Ni 4.219727741830681 4.0384799095028 9.368897047405891
Ni 5.304929951503474 4.737212661074674 5.400789181499555
Ni 4.965428964598964 2.382904918283437 4.588921029712707
Ni 4.751966968842364 8.498914924649853 8.047457869460317
Ni 6.108367244476452 4.462933861445673 1.4527549136498565
Ni 4.5645572867155115 2.1897542623368587 6.844592796416541
Ni 4.313157944550129 6.963968731263178 3.87214783481398
Ni 4.454279887608646 6.371275324909798 9.13947254438211
Ni 5.002660005645719 9.028071282135638 5.203369108353795
Ni 4.121799643410743 7.095686189199726 6.294531500334825
Ni 3.7811470250159744 4.90379327569684 7.222518625930273
Ni 6.18415896106936 8.181194236686792 3.0428833673309796
Ni 4.238160552543727 4.422270570572379 3.299467486499603
Ni 4.804821086207991 6.419391916429504 1.6902241636762512
Ni 2.8978130934226147 9.100810287960618 6.807528922154928
Ni 2.6149533396741678 3.0362232531195725 7.899203980013616
Ni 3.100414506698506 3.4203804293567455 5.436404143587957
Ni 2.182477279864137 5.388786861319838 8.782614030971141
Ni 2.757031885762394 5.637629635493825 4.951947760223875
Ni 2.6405095751680636 7.789693034785708 8.810553349337358
Ni 2.5118821968927207 8.061807302443258 4.800264414340153
Ni 1.8537806707160824 6.895309275533748 6.827922002847929
Ni 1.393782118108591 4.604171665851527 6.643779166511444
