48
Energy = -211.88163728 eV
Ni 5.926659202331181 9.381405218414624 5.176405907349747
Ni 6.118169556104088 3.4058373560001187 5.333425033870124
Ni 0.8033737779013499 5.923624790359547 6.1591601534389495
Ni 6.03826770331864 7.040518572708077 9.260011727726377
Ni 2.3489524909052246 5.280750986995722 4.564902337969314
Ni 6.716691776790055 9.381405218414624 4.512564435128797
Ni 6.240621626350399 4.625157471355727 1.9558418082578457
Ni 4.762693959577731 9.355433821621533 5.832670710890053
Ni 6.464316111695864 1.3196888834532086 6.640780729442258
Ni 5.265103037383546 2.776633622949179 3.182927930462351
Ni 4.6310145042735025 1.4007808677338 5.180961029647268
Ni 9.762792823387517 6.208998355911202 8.712796359420155
Ni 2.94393226284932 8.94268621878328 7.298362953495341
Ni 5.258444942458075 7.37948739036546 4.600257306892673
Ni 4.659469410501007 9.113463298745915 3.295275186791293
Ni 7.006344251913134 3.2919251169232355 7.746138516690703
Ni 7.937293181338483 7.353792651262105 7.854006203160335
Ni 3.2371790152977877 7.133933176945249 3.327859055254526
Ni 8.295145314441397 2.7696945550954752 5.775686759262923
Ni 4.650003277072756 3.0017397409483673 7.113775377495638
Ni 2.892527067351357 4.883715867939393 7.090208385937439
Ni 7.596194299883829 5.269597526345095 8.919139744893938
Ni 7.304084228766306 7.610181119240028 3.0760019150971813
Ni 9.465633854846756 7.078034069971631 4.0186738282817425
Ni 3.064111117843184 7.0488759383673845 5.958578813885547
Ni 3.8504424852150567 6.884437041466324 8.357096860189635
Ni 3.5626563646527005 3.403692460120168 5.041365071709363
Ni 1.6250686168080852 6.963897110054415 8.008044445294408
Ni 6.972070349507704 1.3499598044717582 4.305163766158351
Ni 5.296980976153991 6.8481561356273595 2.2607974117075926
Ni 0.9240945862558124 8.356811013435415 6.252373375165556
Ni 4.365815590310486 4.974044049878243 3.383746015803133
Ni 4.77761385543169 5.315519079888123 5.754764129062303
Ni 5.17296729727577 0.4007952429859641 3.169156109015047
Ni 7.1101415051869665 5.32235194043972 6.521996047056183
Ni 6.9690790962701605 9.259618007706756 6.866903136658994
Ni 2.6919956167721337 9.007633966311914 4.752753417309708
Ni 9.658609502451043 6.604552162512087 6.405967326280453
Ni 9.15839994850846 4.434643830492742 7.266053668608648
Ni 8.395834560076562 5.529235916400617 2.583243389323021
Ni 7.686637025062194 7.44163076513133 5.430138555907801
Ni 7.672803271148572 3.4034608941056432 3.4502869316752465
Ni 8.875943040842243 4.92809965061707 4.887215013470734
Ni 5.678824371158161 7.250446412649824 6.921461688890519
Ni 5.0731841396315085 9.02329853217608 8.272253149794638
Ni 5.298454467316195 5.034211939279709 8.150133814713
Ni 6.634843556796695 5.482284448950177 4.116647519990121
Ni 1.0923431443321503 7.256416370775429 4.21547162721406
