40
Energy = -174.63919392 eV
Ni 2.312250127633463 7.350685382214594 4.203215446652079
Ni 5.342016983370182 9.368219118881356 6.702743560924715
Ni 3.9944627331183433 7.924008929052846 5.5883734878559155
Ni 0.8195716945217109 5.832501254290622 5.112275701949379
Ni 2.0750588208976968 7.124508115693856 6.747800624780286
Ni 5.699826806261783 8.646763409385855 4.253404442540704
Ni 2.396264147074137 5.1134126344109605 3.435815396389035
Ni 4.131855354049801 7.73991784663693 7.938563927628393
Ni 4.350085286377313 4.204766381394339 2.605464595300021
Ni 4.555505380457463 6.42102603604564 3.6155809611307235
Ni 6.501046218827812 7.352544285040733 2.3528699920930074
Ni 6.555680721196802 7.943971707057991 8.293358656240416
Ni 7.301644276233467 8.361015474039041 6.070942641475337
Ni 3.341145349035889 5.582365331877243 5.524322115870684
Ni 2.8551425770282726 5.936171982617713 8.678695060381777
Ni 5.657927443087525 6.463067661240782 6.642724514334861
Ni 8.05809609871275 8.527639478102587 3.7619566869814887
Ni 1.3466351469173234 3.574734120068667 4.9719326148268195
Ni 1.6976644981660876 4.737195080070868 7.015671095800509
Ni 5.634987368092265 4.619230587351879 5.177698942691383
Ni 8.909418373326918 7.715886082643581 7.60506781364255
Ni 9.178280001669629 7.141314928052753 5.307407429978102
Ni 8.56892854022674 6.237730856488485 3.067499112641561
Ni 6.810896639263362 6.635634780209608 4.531514907964143
Ni 5.302125870003697 5.889224101137429 8.889480269109013
Ni 3.6228353731523852 3.303737668548374 4.590717834590896
Ni 4.043314678778726 4.385377388741256 7.411997287012808
Ni 2.705302050241535 2.6086910225646505 6.642996018434782
Ni 6.463388841725169 5.017110323059918 2.811957549802732
Ni 5.052722574619303 2.5059245068140403 6.253036717975237
Ni 5.942595462621023 2.7921005930945317 3.8747173482346664
Ni 7.874595023553771 5.190292281044332 6.043661758041524
Ni 7.7101734223815495 5.8715168249507395 8.318338559775073
Ni 10.106411037010892 5.188962397749932 4.548930625571794
Ni 9.88186798179623 5.576019648753818 7.018077496638022
Ni 6.306710637873582 4.122985106584999 7.571253384790266
Ni 8.145748213252496 3.9899302887363617 4.027226003926392
Ni 8.589371883714074 3.6809855019304063 7.874585098129331
Ni 7.351631617216252 2.78501540430838 5.905782988675133
Ni 9.640265895380075 3.3712666279790393 5.845792478085407
