43
Energy = -187.67709794 eV
Ni 9.096055739198253 7.973981140816927 3.7136052320314645
Ni 10.455292429185542 5.955753248716031 3.84041093463666
Ni 8.463889270264954 6.017820823517153 4.862735611066943
Ni 9.775617204224341 6.173168431440819 7.042251201361358
Ni 7.898916241305353 9.75604202075594 7.224962588074843
Ni 6.682227974736221 8.101911303235973 8.531933316246217
Ni 8.132249996918064 6.0927951395290165 8.956407448644995
Ni 6.596942737413483 5.891067938540047 3.040305142097182
Ni 7.0229035750400755 8.226612912470143 2.5984836528906143
Ni 7.569269625640758 6.941757336120383 6.788562148757856
Ni 9.11394697058051 8.136803115320575 8.400565162302584
Ni 8.711938096154192 4.281823370527138 3.3801522516424383
Ni 8.701427663945676 6.31647767856806 2.1850282214226313
Ni 9.342474784691907 8.277745284866423 6.005729386161555
Ni 7.6540742033631854 9.801198298945286 9.6377480032264
Ni 7.761194499504169 9.600916401074409 4.783641070825699
Ni 7.9899942833979685 4.5469526725200256 7.227640466842752
Ni 9.728348356190024 4.240858905908804 5.579045011580286
Ni 7.581469865618845 3.2192913794938742 5.258524953334857
Ni 4.588315824052817 6.811553270778446 5.966768695793345
Ni 4.564669489973442 5.014384003504526 4.022682444403794
Ni 3.377988544401447 6.077971591196699 8.008938487388669
Ni 3.3513420813360915 7.557816211749441 9.905764823102157
Ni 3.743836477759547 8.856407018873213 5.400676392715442
Ni 5.3070824324019545 8.846323514298962 10.222685872269189
Ni 5.710541852823233 5.869392094753899 7.934640761179116
Ni 6.311101042725823 5.186394792868193 5.518860210563728
Ni 6.642847199345901 7.550692380775486 4.746228731033989
Ni 4.34574501267827 8.263763120396696 7.912306213931145
Ni 6.3427407967652485 6.61709314535455 10.30682546891479
Ni 4.085060692626769 4.515310543156259 6.346069271840797
Ni 4.693656235747029 7.339775075240404 3.5621838188590056
Ni 5.851421065790173 9.107123239485356 6.311602231102006
Ni 6.028291336170325 3.3081208577144965 7.2014003394034045
Ni 3.9632222144331326 2.2083919309296345 6.901716400008021
Ni 4.200805572483889 3.81896927529052 8.583746785676738
Ni 5.187572744888089 2.8784487034142403 5.0329239733086695
Ni 6.532347988770885 4.312800483293398 9.38042250327516
Ni 5.72578691391316 10.26871076965503 8.364274693477064
Ni 5.508601360176353 9.518353399460382 3.982349980733087
Ni 6.431918605505401 3.6231605115523187 3.243787907785474
Ni 4.386829331722544 5.495283440844135 10.115225105512229
Ni 4.647822080253244 7.208563637165198 11.777967498695453
