44
Energy = -193.39647441 eV
Ni 9.045615847326506 7.327419260772665 8.554192395973025
Ni 7.19558704459611 8.44505747299428 9.497857265282637
Ni 2.9916738785573993 6.327066993186267 9.460581914389858
Ni 5.027870850987237 7.491977805364824 9.6215645144789
Ni 3.21070324124665 4.477066471131868 7.948836626428392
Ni 6.833912253625286 6.595328011255742 8.094039661244784
Ni 9.075392477027115 5.200716123361569 7.5961247805320005
Ni 5.148291233089732 5.201344394189265 8.998717498237303
Ni 6.983347897038569 4.179906979808043 7.811477908829706
Ni 4.959380192064985 3.0011351291623622 8.042667895985977
Ni 8.32831362688692 3.4988794628146813 5.937125406453133
Ni 6.106635359059747 2.731108458784081 6.081019189142005
Ni 3.185220242248159 8.597014878558184 8.405130743784856
Ni 1.4086072601695276 5.939559438359846 7.735235454751227
Ni 9.495998615882717 7.272839087471631 6.236260248260905
Ni 5.5159320064424895 9.010349590870197 7.921009609498485
Ni 7.793634158558257 8.675676052847507 7.157345828717384
Ni 1.4347671619772566 3.755272988428157 6.675121061628149
Ni 4.0989368903798695 6.7549727304071245 7.4462318073797285
Ni 5.879288790810782 7.5736337258681194 6.079413262387268
Ni 3.703002358798076 3.2428704816065723 5.912134440411315
Ni 7.657920288934624 5.851189341783509 5.881145889315384
Ni 5.36695468621683 5.08847518562458 6.259295760361663
Ni 6.331407964211613 9.895380177586517 5.811886149848969
Ni 2.713560147848393 5.448584939671384 5.818668960097006
Ni 7.436452360529907 2.0508471364777523 4.150320331388402
Ni 9.915182663977248 5.16681571623962 5.35053722307716
Ni 2.2114350688404825 7.705665782030922 6.393008034474545
Ni 5.003833233486206 2.527891689259433 4.002145076661545
Ni 6.7022915563313745 4.2093811150983225 4.192223740305372
Ni 4.061620596760317 9.118885721171418 6.075039281262811
Ni 7.81377657778797 8.116277560329868 4.774820917898256
Ni 6.265498550010549 2.0015364754137317 2.0971939254356085
Ni 5.444224713428981 8.764593484537674 3.95390872764322
Ni 4.186133471449952 4.824345413301951 4.1172559052694
Ni 6.128734923229355 6.4446381465746425 4.047430646541831
Ni 3.889402557168891 7.132956441492795 4.751268600329254
Ni 9.275338534857779 3.5945233983368 3.801290312595846
Ni 5.287368456373205 4.149924019285906 2.182096987422148
Ni 8.463226840209092 5.913518145966614 3.555099405057376
Ni 7.722494538028258 3.7948623468043947 2.145604528827181
Ni 7.159227129047592 7.972337028083754 2.547037902372385
Ni 4.532802653449228 6.504099615620994 2.452269613236627
Ni 6.779925636324476 5.873062879873249 1.8047278311841286
