40
Energy = -175.33531782 eV
Ni 8.721418025173902 4.561248020275415 6.1628441261763
Ni 7.243569597349167 8.408831844987578 4.909467109516365
Ni 3.2067839290420177 8.186210325952219 6.187773015073667
Ni 9.546340890853601 10.773083681583 7.395191528363017
Ni 9.039346863362091 6.682913527498626 9.804210572878223
Ni 4.7921817948150585 5.100528660029172 6.165724323707426
Ni 2.968501600781697 6.111767517793939 7.43523665999841
Ni 5.67176893301476 11.287690446422543 7.40824520797166
Ni 6.672125489411287 4.226872217174956 4.960056490815835
Ni 7.527875473477206 10.439196739248754 6.178900189069521
Ni 5.3866796170448366 9.331999674969033 8.665256651863595
Ni 8.691030539961911 4.682300827673104 3.805226437407239
Ni 7.2576435120127485 8.401936375591278 7.339747595983507
Ni 4.814282402699913 5.165579155127176 8.587398487722176
Ni 5.062435554054399 7.309908345522127 4.87702120998613
Ni 3.5644143856129658 10.147746743757807 7.442277169315612
Ni 7.270172868208121 8.358687894804813 9.816406805164734
Ni 10.762129917690034 5.054830954330105 7.419284941462539
Ni 9.342342318189445 8.8310978651648 6.074742047091862
Ni 11.044295538267535 7.072926327189515 8.623866744323841
Ni 6.973859882036278 6.305575313541632 8.562860143129019
Ni 5.036667030983967 7.264514920076853 7.3656110463929885
Ni 9.088820378164199 6.709030732163131 7.353380466270477
Ni 7.53674255547385 10.424171791394564 8.612884168074507
Ni 6.67221233373405 4.204026673388993 7.376996148320635
Ni 5.341371416459243 9.369420232123701 6.08258478214959
Ni 3.2753426537242922 8.112702808720178 8.657958078261682
Ni 9.325712957557448 8.804198107675242 8.650209837659013
Ni 6.961403562647513 6.312858778564994 6.124497966505748
Ni 8.727088015808336 4.628250763307965 8.585414012622053
Ni 11.279913540510371 9.1122786607152 7.410807205357547
Ni 6.9462689499465515 6.307773589674283 3.7581503917458794
Ni 9.047783530274364 6.774077573451147 4.860026434758846
Ni 5.120569062961017 7.212864275174595 9.823556433100217
Ni 4.837595300923433 5.200101149982773 3.806481617959994
Ni 3.020587699836638 6.134732701278013 5.05554132737432
Ni 10.69882883232729 5.096571714590029 5.0425489202787555
Ni 11.078026665365456 7.127449656481556 6.163966785424044
Ni 7.00028533403611 6.284033888974345 10.960497334217132
Ni 6.68236521395769 4.303889000103631 9.787103347192337
