47
Energy = -207.19631112 eV
Ni 8.086515359661517 2.9751771315857005 3.389407241349976
Ni 9.178652161799922 3.938523036971054 5.225197879551035
Ni 7.62307061614368 6.920354527134712 8.667306578280522
Ni 9.017775108056236 5.627265296311901 6.975254556385693
Ni 9.049777096463819 4.948336613366238 9.208201508317337
Ni 9.648586088762386 4.758847692303222 3.030009045707633
Ni 7.393233589316097 5.278315747440268 3.0244745935716963
Ni 8.890261512725266 6.999350497237628 2.4379574149227237
Ni 8.556622562245936 3.2390281165658115 7.377832008345096
Ni 7.8028674732992505 8.315024624105355 4.120650356007367
Ni 7.548469757872304 7.395253156843357 6.350221836689023
Ni 7.6354604396895756 3.0900988992555773 9.639247447550934
Ni 6.992977431362332 5.234935014016497 10.380699151740828
Ni 7.071238452040993 4.900019085491484 5.577865947689636
Ni 6.546977816638717 7.399855522877751 2.2342185088454185
Ni 5.270802424248864 3.688988662738803 6.8356625116550385
Ni 4.957938046468996 5.535576421167061 2.659417137692805
Ni 6.529314014603599 2.087774347528271 7.855680149721053
Ni 5.940507456836715 8.933549715394209 5.515953670415608
Ni 5.288417272763209 6.307865084596153 9.173888619477093
Ni 5.799237693141254 8.333976312958336 7.851667556724486
Ni 6.991013854756025 4.792083536838984 8.039460569338893
Ni 8.88713393142447 6.273124007713313 4.674636757743317
Ni 3.9210491629915887 9.453038805013337 6.768503754652153
Ni 5.308074966974025 3.8242397017685144 9.279376046542371
Ni 4.002904123690058 9.766502204193648 4.383646249107777
Ni 6.3357252485883695 1.3635560892167526 3.674984895128907
Ni 7.096790243002585 2.496814779467842 5.576629576989673
Ni 5.989152660359237 9.501708855317636 3.198586704642633
Ni 5.479221731476362 6.253396164582788 6.804941943912699
Ni 2.9733235883200906 3.493945662879389 6.243971289158214
Ni 3.8925770078780086 7.485946485722275 5.402541470438517
Ni 2.0569256652354975 10.290068009490497 5.4905243573801075
Ni 3.5793542504457716 7.316292711693911 7.832485826861696
Ni 3.66248631721516 4.972368729897838 7.963819163303387
Ni 4.31893787030708 7.811699757123898 3.019989487841798
Ni 4.431356482725304 5.032313563107863 5.042899216059039
Ni 4.6468408280245725 2.184786409986786 5.109139981105309
Ni 6.034351863396602 6.776758289965724 4.4497088146671935
Ni 5.889216531157612 3.630420877635604 3.7420142170479953
Ni 2.1606643380714594 8.335633096505596 4.087662548900381
Ni 2.335537180869451 5.853896792033879 6.1632427271983845
Ni 1.887480278415796 8.186354511730062 6.442988517190101
Ni 2.783664710191849 6.072250724216423 3.6681452357447877
Ni 1.5903715409696502 4.231377492244414 4.549198324828191
Ni 3.5394566409883184 3.6939046798866126 3.357199165832829
Ni 2.38989720540884 2.0116131529023775 4.515100034767847
