40
Energy = -174.50008309 eV
Ni 3.8376808328363374 3.956109431056774 8.237945642641474
Ni 5.2218830099994396 5.8664977644831175 9.016604788959135
Ni 6.369037644637203 3.8441791985854366 8.451770731659442
Ni 3.3273513821707517 2.429454005987994 6.400308366424053
Ni 3.3495953204380706 6.384258243560949 7.650647567454968
Ni 7.49504107496188 5.504999248381274 9.82373551079572
Ni 5.7015374745516745 2.8102317956131007 6.4426229947878095
Ni 3.82244921271901 2.0723726276579604 3.282506617491854
Ni 2.4537821508791855 4.589005628678001 6.315470238828089
Ni 4.990835994061157 5.047360554185343 6.649428316006785
Ni 2.06942548143168 3.1720005811511647 4.430263170196393
Ni 5.351034436890138 7.736730339385447 7.481405513568767
Ni 7.883100623031437 3.8008916946834095 6.505298207163701
Ni 1.6331820218052573 6.817658689061327 6.087853073131026
Ni 7.014233155929377 7.644686770006075 9.089235866256264
Ni 8.903728747875864 4.297381057392021 8.475564452400231
Ni 9.089019466347569 6.686931984771909 8.227161649381777
Ni 4.3002383751965105 3.729908574383327 4.767086617639032
Ni 7.084485490652848 5.864885635504589 7.464423595215959
Ni 5.660518828038601 3.5733068828752033 2.7401890341006476
Ni 3.5832781938312195 6.103486255858083 4.849200942655054
Ni 6.53180862649336 4.427455027686163 4.757223165988611
Ni 3.6760515188263674 8.183884490244662 5.948838466232355
Ni 1.5668691398891081 5.476806638475303 4.043277713615758
Ni 3.314136764683245 4.318893876083273 2.7280320140048144
Ni 9.89483174529109 5.1319465348663815 6.48678952774788
Ni 2.147765226119853 7.912983551163219 4.094471384484732
Ni 5.832582966412051 6.781580362865975 5.36855044992453
Ni 7.676870510797985 8.11679128438588 6.8356781454014275
Ni 8.974746408660593 4.290469700819396 4.396443269164116
Ni 8.121152443197241 6.190322569128384 5.352900016669355
Ni 5.98055338600611 9.063399386760839 5.4076706356954025
Ni 9.891535184057453 7.486064344474153 6.0723058815694335
Ni 3.0789580846349613 6.615185817951122 2.4333849722921737
Ni 4.569507107806131 8.044922043023222 3.7063347839257768
Ni 7.515785761090568 5.279918653589252 2.837320684003386
Ni 5.2141953368909695 5.824975071864566 3.0879100564445507
Ni 9.294910855466236 6.799585923378643 3.55744576201974
Ni 8.405037356191812 8.740567315226976 4.747057680779133
Ni 6.946311177832999 7.50692276569364 3.472889930978275
