44
Energy = -192.99711613 eV
Ni 6.525391234017805 6.393459751781601 1.1242679121459445
Ni 4.780014251880208 4.972084034254988 0.5362300330326404
Ni 7.67568515925344 5.979253119553986 3.1270110567033673
Ni 6.7954618942545135 4.084396616766734 1.7430724676504017
Ni 4.271372740620377 7.037846406867342 1.5134367774726796
Ni 7.6128941601003195 7.7422299186037336 4.792130868001643
Ni 5.967109310360317 7.602251478866428 3.099614642048275
Ni 9.208382598241677 7.4466429816106245 6.50191724476048
Ni 8.533355296479662 5.588546712558125 5.328848301891751
Ni 8.929244025462785 5.168139722187359 7.738692077077157
Ni 7.473005767938024 3.882742239900449 4.051643024758733
Ni 4.607960969248924 3.18184066088565 1.9489726787897146
Ni 5.212122157326284 5.246277636845768 2.996775913623925
Ni 7.109873170344348 8.701461892460799 6.9367342021660425
Ni 3.8013366409989486 6.988873953414371 3.827036472957777
Ni 7.18856335005299 3.99443122427481 6.417083164392686
Ni 8.808002138557983 7.809455984794074 8.690776390444455
Ni 6.267206394635729 2.1143217649670025 3.169967740768727
Ni 6.076885337995243 5.9554455757212486 5.141531240003862
Ni 2.8455542192833114 5.194268778201569 2.033092923926177
Ni 5.303540624091005 8.215558058094365 5.303597933066078
Ni 6.563108239983882 7.994364027512722 9.200023828666918
Ni 1.5492209337871408 3.7634170829884006 5.511720338837586
Ni 1.6692915250382785 1.9263984333670416 4.076811393614591
Ni 3.0547519971355204 3.952849542615668 7.3961783479762655
Ni 3.4383363158656564 2.2875054149135643 5.767856041468658
Ni 0.9384919645395897 4.0300117428371065 3.1341216422935214
Ni 3.2819968721886155 6.2099215999976725 8.203577666058749
Ni 1.544894515770131 5.739168752539432 6.705581690645386
Ni 5.357848551874293 5.988593446888823 9.402506837825648
Ni 5.188522542531432 5.066431449589066 7.316007701521131
Ni 6.82897199880689 4.122119669607284 8.699664423180508
Ni 5.332249167670236 3.5719272298856395 4.889210505081001
Ni 3.9793372845126482 1.5700255587178036 3.553072942801326
Ni 3.198845748277163 3.8114215798396116 3.8244617902546505
Ni 5.016458564058943 7.558949791512477 7.5064856941664635
Ni 1.7888155279338718 5.888045057672203 4.296648101151739
Ni 5.282955998242943 2.741277540262178 7.26215074836598
Ni 7.756657543854756 6.018303237221404 9.704955519341244
Ni 5.587182936652096 1.3305449220722112 5.335445486582781
Ni 3.7059701376885767 5.285415457923641 5.567657854426178
Ni 2.3727256040206206 2.6379027857571162 1.9119450460735954
Ni 3.107012636759316 7.4418709832706975 6.067188751104139
Ni 7.148035889315252 6.448650118048805 7.328938520530837
