44
Energy = -193.2086162 eV
Ni 8.059615806932372 3.992679068544012 7.94341675916932
Ni 8.49325367816922 2.572302459058246 4.202776652488322
Ni 7.272410739369771 2.5617646449612748 6.211305188792479
Ni 9.134668396016185 4.313015904369368 5.800308128208216
Ni 7.316061974596748 3.37311854578761 10.062116816915998
Ni 7.292676086481108 3.0521175169612937 2.0867711484845843
Ni 5.9495935896865335 3.0383074182535803 8.164479813387018
Ni 6.243125581554122 3.2151624553351894 4.125528712275451
Ni 8.25852059087523 6.221169586961345 7.316579963708421
Ni 4.936914768630964 3.241922493767744 6.06793417028758
Ni 8.197013726376655 4.727681157807075 3.525830867690764
Ni 6.912909839119229 4.839700749180285 5.775516122578587
Ni 5.229855899645014 4.385440047851288 9.971478930409242
Ni 8.538913555521887 6.5631355354655865 4.988856141889264
Ni 7.354093830738163 5.700802438049056 9.592621184574895
Ni 5.076475660770598 4.116568634447737 2.3305047885873833
Ni 3.847724945724497 4.223752812243463 7.918439771634528
Ni 6.912999562162656 5.253741990651839 1.4761872560058422
Ni 3.8549839524878347 2.979346310786412 4.0087357205761505
Ni 5.919518513190672 5.45686671676132 7.841896838558297
Ni 2.749676188965304 4.200055606876666 5.744844111973451
Ni 6.087742626140799 5.916882211111454 3.7544998238025613
Ni 8.052540269738882 6.960720111795206 2.6761224030176725
Ni 7.943842103269114 8.717691613361879 4.2415021831170545
Ni 8.265686169411387 8.513257969334948 6.612982194432071
Ni 5.114116713640837 6.732153468600062 9.824997164002024
Ni 3.0915931292658163 5.393433921068537 9.798555670961033
Ni 6.654626014286163 7.410590529972573 0.7595705843826076
Ni 6.739045793062781 7.6867219082670495 8.356706636299363
Ni 3.579763604994081 5.318698637193688 3.744142194901659
Ni 4.768980665478521 6.47901860498032 1.9451170942915492
Ni 1.8530202847224357 5.372118580639163 7.621787721325822
Ni 3.676785984511814 6.722056749616287 7.882408202341632
Ni 6.380874948236106 7.274032577925798 5.878293853043956
Ni 6.119323919558802 8.24914848681687 2.820995984002418
Ni 4.633583241644208 5.6236938452894725 5.833838161642836
Ni 7.712502887134283 10.5848881596499 5.579244308637036
Ni 4.32450914325599 7.53988156728638 4.168895905349637
Ni 2.9615090033771256 7.72932900737179 9.853877638755838
Ni 6.215211895413699 9.630044498594147 7.098150610634355
Ni 4.671797196323967 8.782413504967092 8.659833631800065
Ni 2.6117475896991604 6.677921941091171 5.664656692510587
Ni 5.779560818288211 9.41893692229582 4.803426993943644
Ni 4.3138647733557836 8.340948750475244 6.367500920433682
