45
Energy = -198.35890269 eV
Ni 5.379234557823957 2.4825468858101125 1.551044770895788
Ni 6.858177097528089 0.9205062370873329 2.707190267740769
Ni 7.141353710405401 7.873523457937133 3.497055857877906
Ni 7.475321483519547 4.164194855771535 4.817508844106663
Ni 6.681107033585864 5.461150121612615 6.682288952301277
Ni 6.471965798541846 2.8797069241127433 6.663189606790199
Ni 1.7386928005814968 8.468869317118497 6.874521489146675
Ni 7.385096251086402 0.883111973263382 5.359584623308597
Ni 4.611945245501718 4.8226097398956504 7.742927836238641
Ni 2.250602454057167 5.10644770296106 1.916336699906715
Ni 4.093411162356284 8.607909436979803 6.40122851986159
Ni 8.272206651363357 6.486189708554302 5.1115330057525705
Ni 2.545208487027707 7.382819399558763 2.6566826715455387
Ni 6.363346658561839 7.894454625698541 5.844429205705363
Ni 7.623409623504263 3.2380101558885803 2.0427090875785248
Ni 5.512901930760376 0.7096533856946123 6.750933010167711
Ni 5.344519845285612 7.141614704598141 7.906610526169828
Ni 2.1705735297252793 1.3461883650956463 3.594187950013882
Ni 8.482986581750668 2.3031063572442965 3.9466737767077666
Ni 5.571772931102321 8.607909436979805 4.465090838105105
Ni 1.4016769616917164 3.5529395093182083 3.4750139296779925
Ni 4.438519474844328 6.36112100749966 5.95097657422781
Ni 4.942553817079818 4.119176750349606 5.42027828762505
Ni 4.000144743095482 1.3304636084667636 5.165268881196879
Ni 3.741730635256777 3.235780951344974 3.602074887864215
Ni 2.880726738922408 2.6650866159882534 1.6105130952478048
Ni 7.826713752894531 5.589307303448212 2.8507845437341492
Ni 2.953105316950684 6.613091427807963 7.671643372791985
Ni 5.835605060264155 4.290422171420825 2.940750093613235
Ni 2.26974808938658 4.227907021813596 7.462384175277092
Ni 3.6925884783322633 6.741229765214492 0.7698853965459513
Ni 1.0550012034990688 5.909981300124042 3.9187140144125134
Ni 4.072342565600789 2.619478811517262 7.150782448683932
Ni 4.685138779884065 7.97381335799151 4.008475631322823
Ni 5.990555038941292 2.2969106987632806 4.255862304968343
Ni 5.604701696951983 6.6183264289951795 2.0996413432978933
Ni 4.383689590717545 4.576252799966376 1.1773040714656189
Ni 0.9885871064962906 6.264483214651718 6.428519070641205
Ni 6.1021593703020995 6.059558329513277 4.400238417921459
Ni 4.335350255260455 0.9181688225986602 2.8266780478887013
Ni 3.8824699770233404 5.716045554414535 3.5051304918210495
Ni 0.3877447254063696 4.195498077943094 5.577695190677855
Ni 2.546380714477923 7.438006060623549 4.9965534718452975
Ni 2.159340588922898 2.6275181928563565 5.653076492992102
Ni 2.6141419177995475 4.898990712078509 5.314578658407856
