46
Energy = -203.43149822 eV
Ni 9.08968050316454 3.188124080022612 7.927056085460511
Ni 7.090856688423958 2.426811026248259 8.879755962877551
Ni 7.92118206713909 1.4004982810919007 6.903111097948262
Ni 8.9473303212281 3.0644843569826876 5.459404560392154
Ni 7.397628904804036 4.824089005871163 8.688009800886592
Ni 5.551496931928962 1.911550423996136 7.12648179520657
Ni 8.923388623285232 5.145345555828932 6.683110288939385
Ni 5.216166482217427 3.8084155961420354 8.636253299645386
Ni 7.051146575335995 3.683715795544547 6.666251522702351
Ni 6.628319566446277 1.8465679840368168 5.009697717974802
Ni 7.336284548482704 3.7425191186795796 3.8705167618784913
Ni 6.97680435636446 5.805746643093568 5.056344148554248
Ni 9.154046970091311 5.26910053927238 4.303017303706948
Ni 7.36141865041087 6.789529268711964 7.422001719554668
Ni 3.552613590047431 3.0804543414068783 7.075270839267339
Ni 4.177084334812502 1.8651320258545012 5.083886521762041
Ni 5.353256041268266 6.289533521345644 9.041945477258231
Ni 5.3473040631875 2.6209460092579717 3.13509064180875
Ni 3.2699358966272114 5.098670680371465 8.34493296465756
Ni 7.590237580323192 5.539787384472329 2.433603019640256
Ni 5.200102942374413 3.9182122423089596 5.185372594638018
Ni 8.893832188809698 7.265621672047194 5.7400909309092025
Ni 5.639591709993315 8.250362796461582 7.635681809033706
Ni 5.4038783584985 5.46886597248347 6.957617275820046
Ni 3.1921496336239943 5.092785420217431 5.883080831838362
Ni 1.3932553131819148 4.091220788367732 7.162092456620466
Ni 7.90172116720958 9.139027642479324 6.908777132639571
Ni 5.397598663079594 5.008362465660831 3.105402710439117
Ni 3.6287852235233333 7.140495038130497 7.284169175436857
Ni 4.753962683733383 6.715766508567371 5.040551882831576
Ni 3.3641958729731756 3.9350321537806665 3.642192387947702
Ni 2.0330704828128474 2.9672319533946427 5.256116695067405
Ni 1.4524123616498334 6.353983208358968 6.89139131059307
Ni 8.964631597217954 9.313401558294796 4.663554845989001
Ni 8.230459442907609 7.42768976305229 3.524949348827207
Ni 6.507362148122852 8.371770273476656 5.2618355377124395
Ni 2.4893987923802445 7.449646926754034 5.103718632620033
Ni 1.494607409241283 5.2942187814514385 4.442116424709024
Ni 5.82236680379991 10.393034805724584 6.807545866720722
Ni 3.3601687408679877 6.299259236585661 3.210943435440907
Ni 7.394758093048445 10.856324877009852 5.194763006521212
Ni 5.946883439585175 7.243671395808671 3.0238718070137067
Ni 4.110324846033768 8.990708692050621 5.955795958513855
Ni 6.964238428467543 9.456538070867097 3.2630803649278537
Ni 4.1808659649000415 8.578848019745063 3.6395276047353047
Ni 5.207662178508557 10.491347200115142 4.524316628352354
