45
Energy = -198.16959766 eV
Ni 2.251448605989477 5.7687579450681605 2.4398524856657007
Ni 2.417297330438274 4.961632526599815 4.635308140787449
Ni 3.9345550339310127 4.154135415712618 2.8545689513439174
Ni 3.3499715281084272 4.301595825462558 6.83851456967674
Ni 3.4246897192843737 7.10245550417739 3.9472754046829697
Ni 3.56198367286382 2.939522146520622 4.877694463750316
Ni 4.494304000874121 6.290413657820298 2.0227865477745786
Ni 3.0071422123119045 6.522417146475223 6.299884591067105
Ni 3.667012307085715 6.016134709058271 8.576636652953875
Ni 5.772621407394614 2.9954320048138277 4.00693726459747
Ni 4.811196678374699 5.210380622241079 4.723925586381946
Ni 2.8201007780298184 8.753943775686093 5.5357231251262755
Ni 5.375349735994436 5.673893651746548 6.995347028059967
Ni 3.7239802465711187 8.268554540403054 7.716401423944237
Ni 4.952051334719485 7.754647988760613 5.685645015202988
Ni 5.349803869223993 3.1529232893232995 6.340412750565113
Ni 6.268718298292001 4.94362466856353 2.8248000232638315
Ni 4.612439910405974 7.940359267207162 9.824287391269722
Ni 5.894174420226093 6.034408230065796 9.500648946773413
Ni 6.197477433669691 7.772791172618341 7.817546390478111
Ni 7.500385214502914 2.230498183010417 5.530836133836479
Ni 5.072292590279106 3.9733631525532798 8.568272459819456
Ni 7.165669435941652 2.9865025745572797 7.764927174430884
Ni 9.740595514246777 2.4539566805868422 4.805527848336875
Ni 7.114628414080158 4.57215294754073 5.511033468425487
Ni 4.588773565152908 10.038678559094796 6.390144680964018
Ni 7.2361545105082445 6.932454436169279 5.831525758850948
Ni 7.114903586375484 4.070270648212465 9.832034491955774
Ni 5.435775498598183 9.817850435960905 8.637271373338328
Ni 7.629974697653903 5.293786427252874 7.857203646329075
Ni 5.952576410158842 7.164801898223794 3.640466790791662
Ni 8.092365834804905 3.6135707536791224 3.5950890894795826
Ni 6.994847814021851 8.285435014905524 9.917920590507807
Ni 8.570703810302295 7.440303187213876 8.25043221668155
Ni 8.112393643981516 6.029987769699994 3.763941200431161
Ni 6.759778367529562 9.35464139269754 5.797904648517227
Ni 9.068863879814685 3.771793691484464 6.592102721108183
Ni 7.7409000334625615 9.601230204313644 7.963230464953691
Ni 9.38527577101722 6.148850810968609 6.442386272388941
Ni 8.14802328511369 6.159024032325025 10.115954704125782
Ni 9.006680352993737 8.53837073807964 6.1964289318730765
Ni 9.942089646027812 4.775533865485719 4.600836979017173
Ni 7.988040390863712 8.37128118270531 4.057157403193376
Ni 10.014355865379768 7.178905340452273 4.466967349046664
Ni 6.400972783083348 11.302071424186828 7.069546287915308
