47
Energy = -207.08948308 eV
Ni 4.119098935576279 6.103801971963142 8.735367047061379
Ni 6.060137483722603 7.634915968365482 0.47261056421448183
Ni 2.3533698225495856 4.568957370617159 0.13971153255609609
Ni 6.416364220136556 5.2327496426958175 0.7178699795827145
Ni 3.763150667335143 8.273657139048712 1.0202988512532143
Ni 2.0774934985669162 1.730826883615148 2.8084737685933985
Ni 4.321959964214163 4.092991506489738 1.2650290194532543
Ni 2.4672052185913826 6.27987285172295 1.7672482090068853
Ni 4.3141410200930865 1.6651094737120138 1.7257340523292684
Ni 4.830683017031177 6.5244738336273524 2.007687222413705
Ni 6.388173807640103 2.8878368632799525 1.7603388281524692
Ni 5.560805684249202 8.592129338283996 2.7040511082732657
Ni 8.113204868391803 4.542803706400736 2.354494920111242
Ni 7.145655864274364 6.7658064896275265 2.5760323410626214
Ni 2.1574989587124063 4.018572760142825 2.4124803284159078
Ni 5.909032794032384 4.748324619467972 3.0032847759070296
Ni 3.3909020623450625 7.831208386786856 3.370414250190346
Ni 3.824580054118345 0.5606822829255494 3.8319044192983864
Ni 1.5946543096601478 0.2188134566313883 4.613867500397857
Ni 3.6884222560398467 5.437997109824713 3.69673853713672
Ni 6.038244656642175 1.133466380592259 3.361440571717473
Ni 4.186538906438593 3.1198089952067813 3.4953549625218066
Ni 1.3910559499705537 5.617643107924037 4.065717953923375
Ni 7.2919119528933924 1.1337616020679313 5.4607772385875615
Ni 5.501832331982619 6.833678252500833 4.509098302318545
Ni 2.991603044005226 6.952355632997758 5.4410276585207455
Ni 1.228380320820025 1.2101671377352758 6.709771394622222
Ni 2.6096294426531306 2.2353885617228246 5.08164136057987
Ni 7.581519079613908 5.443954857991678 4.56333222744247
Ni 5.455404398268637 4.465561334680874 5.253807949608282
Ni 3.1341067073912754 4.433482218546205 5.737182355233207
Ni 3.4304180633404435 0.35848635026431486 6.278981217231439
Ni 5.109684275045543 2.07577650231472 5.376005277567623
Ni 7.226620834333792 3.071647051931822 4.084335326517578
Ni 1.2082525554522963 5.930466146466466 6.5302366190471455
Ni 5.468078884083873 8.592129338283996 5.343195011437455
Ni 0.7782688647974418 3.290508697156891 4.181783978466851
Ni 1.121150907644952 3.5598376058652215 6.595511921176952
Ni 6.858255682999728 5.533733155841377 6.802418369103157
Ni 2.7430962092064397 7.176031036012342 7.756326626653512
Ni 5.060343352764497 3.832882928277911 7.497173208581187
Ni 8.410228575696378 4.857411640767272 5.369445558936129
Ni 4.624294545694814 6.11632011995398 6.831689407997411
Ni 5.47777212415647 1.3763345720414117 7.442615123562489
Ni 2.8557519242808613 4.8262040635742185 7.974149114288435
Ni 3.2110573255486963 2.4788150020250193 7.353351430169961
Ni 7.078139336077391 3.200790811112078 6.488167337860031
