41
Energy = -177.26619069 eV
Ni 9.77420488122432 3.6262263805069486 4.829482868406481
Ni 9.136533250141877 5.747737639352061 5.499994937313449
Ni 9.239977651242798 5.809032581078172 7.963458298183721
Ni 9.810636007081767 3.918641775680987 9.167942257515806
Ni 8.955457012741268 3.6176551513829733 7.050664559410907
Ni 8.363578058289841 4.981981390440864 3.447183891544326
Ni 6.837426310843918 6.250734994153689 2.206353833122539
Ni 8.222288849940323 7.703181354538169 4.131595655189022
Ni 6.301785164950877 8.651051380983011 5.408560852576186
Ni 6.668150290382639 6.214776692053698 4.6157425570496375
Ni 7.48407062480737 3.5006884752569314 5.171756096933287
Ni 5.880925435913046 8.118804926240752 3.2259971906496787
Ni 7.554436727750643 4.257109687302279 9.01074134181555
Ni 7.2623685214055085 5.230236075995123 6.806753514385481
Ni 7.118046759551273 6.634116473764324 8.749376052891225
Ni 6.064209140812126 4.198663334741743 3.42749624550283
Ni 8.047835480286611 7.48663754704132 6.602729049980844
Ni 6.35994698757833 3.0094927980824364 7.241187354056483
Ni 5.174043395392349 4.777557786064819 5.726608034848315
Ni 4.557124602075167 5.83318909353251 2.6904891702917935
Ni 5.022626135380853 7.603885402310898 1.1649200370500663
Ni 3.4836309611719267 6.274392230473475 7.19901990019302
Ni 6.259171913933965 3.0887464105640743 10.470144188997248
Ni 5.83738424777461 5.362054727748133 10.338072868108979
Ni 4.172191969776997 9.256956053512287 4.523110771127852
Ni 2.259824951414351 5.833633001610112 3.2807158593609547
Ni 4.588891970684263 1.488366752384834 7.045303709421169
Ni 5.716445329580802 6.993897930963993 6.877900723864643
Ni 4.386686457552531 9.722971199573783 2.210320803618923
Ni 3.725811520210243 4.038033290037254 4.011226686231515
Ni 4.326886573739603 6.844826024712591 4.862032904370828
Ni 4.666811802441842 2.8421033317708475 8.899218239829931
Ni 5.263267547213161 2.5686272224979145 5.0752122995616205
Ni 2.45122931226813 5.296268334087523 5.477437991269884
Ni 4.009123620131231 8.522386750711746 6.700284800963265
Ni 4.790320965850772 7.1386393063819416 9.026739955878371
Ni 3.285555740801488 7.8130936505011555 2.763442573668171
Ni 5.217348005671041 4.958660293046885 8.185266980749505
Ni 2.23675085737498 7.746043735187775 4.98788248408316
Ni 2.2457894340942715 9.741690720111329 3.430921689934233
Ni 3.563654932211696 3.619657495309904 6.819160171740071
