46
Energy = -203.1664966 eV
Ni 5.124511284114435 2.4379099307997096 9.133986620973884
Ni 7.6994924917828405 2.6270111187499596 8.879951909398061
Ni 6.003429373382142 4.185563959129797 10.340787110119006
Ni 6.152966350993073 1.992864395411722 7.117715778183707
Ni 3.7701468202261323 3.0171400928522902 7.246291386381004
Ni 4.061311036093675 4.619098507399274 8.933877763096053
Ni 7.951049912611606 5.108730301940431 9.496830390154217
Ni 6.383402534216582 4.204112243666428 7.970616208999232
Ni 8.474879080696123 2.0722487680419146 6.531098042999667
Ni 8.902285822762712 4.2784079519640335 7.5251195150064065
Ni 5.794910037621551 6.245782929412722 9.052798645011068
Ni 6.640295554797476 1.5383341218986437 4.858396018920914
Ni 5.109898893679742 3.183850998782294 5.385997451873089
Ni 2.876910229188286 3.925698415745186 5.151150647787269
Ni 2.4655798095570045 5.09716766865258 7.151330867490993
Ni 4.764762057142221 5.193128784621064 6.643780346149549
Ni 7.36541609560015 3.886973275719949 5.732545402952479
Ni 3.649180986838533 6.8803381015966645 8.15861269573522
Ni 7.524409222563703 6.254201557414557 7.451321200554171
Ni 9.838302970654686 3.8852441140831644 5.443898806702731
Ni 8.528299634980447 2.5655274915917246 4.0780740391756565
Ni 4.048097685076351 2.926500379318456 3.3514339382634803
Ni 1.5612274904856218 5.834673850811059 4.9729850211617155
Ni 1.648400697538636 8.20721009861656 5.643405907575258
Ni 5.573871266959781 7.523197888029579 6.979987818043025
Ni 6.417573250989015 3.580152373090268 3.437796914703352
Ni 8.398528568058637 4.9340614701081025 3.7766185948930175
Ni 3.5112285673726418 6.9310554453068205 5.725420138373038
Ni 2.716919672768485 4.982898929907384 2.9435764099382453
Ni 6.616381959406823 6.0593516869974735 5.221411575866166
Ni 9.027984859536696 6.103284607281583 5.706335365307707
Ni 4.840556232266299 4.436570359600946 1.8210644911567135
Ni 4.6082577929464765 5.288771380788504 4.172689736021411
Ni 3.6533364219044677 8.952391550489782 6.923398102394633
Ni 5.236990523891457 7.752028758719377 4.207021204039237
Ni 7.627650290666154 8.096287308212352 5.912015667787934
Ni 2.615710688254892 7.347011493027058 3.581041076928775
Ni 3.4677444738627985 9.342442044214723 4.610791975339055
Ni 5.658887691967833 9.529453916174427 5.690369347816916
Ni 6.480121680336121 5.9145364934103535 2.750548038082166
Ni 8.058924969960877 7.320422075462563 3.722868466861242
Ni 4.349498086387606 6.679421342898478 2.111972650007828
Ni 3.9000244228796404 8.911633864789739 2.2969593591669453
Ni 5.323451336812154 10.28183778900382 3.4583362811323104
Ni 6.294595095673929 8.303343951378086 2.2711069954427723
Ni 7.398092480299037 9.52957385745786 4.061210137607865
