48
Energy = -213.17977567 eV
Ni 10.24541712343209 5.726691523771878 6.839338565413452
Ni 8.20380294434997 6.576602371177135 5.707842625537246
Ni 8.14889892904882 5.972109098229219 10.479451301522854
Ni 2.6663604729248984 7.910336284514197 5.840021322336087
Ni 9.450315967320735 7.794730455780602 9.570304581904782
Ni 10.181918567041224 5.495882976255151 9.246214531811823
Ni 7.055557346857072 8.22677309405886 7.126191353884427
Ni 6.922973989936034 4.366779975493109 9.120114291758181
Ni 5.873844648089369 9.794196569764996 8.543883583252734
Ni 11.434912967333945 7.557437246943556 5.838238851438231
Ni 3.7353742339227534 5.741492385383217 9.227916913143979
Ni 4.885023387355335 4.135912499508016 7.811092393542755
Ni 4.584929567168158 8.266196246848926 7.115115644857452
Ni 7.068364331522321 8.520716488613537 4.653248394021351
Ni 10.744512692443488 9.836923468013362 6.1247295094168726
Ni 3.753577319418455 6.3306115696940335 4.44967631936645
Ni 6.9463917257549905 4.943937448577799 4.254139575970414
Ni 4.6675738671615905 8.589876830787665 4.671721738933515
Ni 8.193023069224145 6.284824117757145 8.12221658008241
Ni 9.471236908509463 8.389800810302859 4.675957680359011
Ni 5.814351173706049 6.942473477663002 3.333052259426952
Ni 5.797875790339437 6.657556676636065 5.695043385731552
Ni 4.642290756334052 7.9939947326158425 9.566313788505287
Ni 2.6559714200964573 7.610776046196425 8.256991348939888
Ni 8.947364699895344 4.282559502416162 5.446478712374571
Ni 9.526223343395728 8.118182463655568 7.123891039027761
Ni 11.419972084199205 7.265005412446811 8.26472754095055
Ni 8.316903325111738 9.707831093003852 8.612815954920189
Ni 3.672697413178838 5.952285600276207 6.828910353646608
Ni 9.578683268001475 11.359461498944148 7.52612946134163
Ni 3.4899347657232194 9.841878213738555 8.479530906859173
Ni 8.330408459923598 10.02828856047411 6.054749376772739
Ni 10.735570084700251 9.547341681826248 8.512744438980544
Ni 7.043950803622573 7.919083686792156 9.602044145164426
Ni 3.503042642286468 10.131667117134967 6.150404211507169
Ni 8.189641578104416 6.8325764142448735 3.3493912603812808
Ni 5.7706639259127295 6.081208877736675 10.495655682980807
Ni 7.187206459391965 11.479238582445939 7.530017883219421
Ni 8.93289666673089 3.9864843831533068 7.823521716030135
Ni 8.898726266585191 3.7499762693897796 10.17681058619097
Ni 4.893197133234856 4.427368862576596 5.448443954031192
Ni 10.214442732565045 6.084408270790825 4.4453008554407205
Ni 5.885901122282753 10.092374339534848 6.112285899246698
Ni 4.894186055804023 3.924022203719396 10.161588430978117
Ni 5.785094765043969 6.360875434361526 8.12632082424195
Ni 6.932565897678059 4.6421487601144085 6.686816651925685
Ni 8.950229543688426 4.610615050013623 3.1098133515493407
Ni 4.916946975250549 4.778405335345408 3.1225588023676423
