49
Energy = -219.72249336 eV
Ni 4.571679977071093 9.160786428470244 9.191049721338995
Ni 7.077957582791784 4.013297729098935 9.180416286550894
Ni 6.360158992443199 6.24713630717266 8.651062066857124
Ni 5.4457749128762964 5.2208397464919845 10.521111820002016
Ni 6.118144285585426 10.910076979575914 8.324032926756608
Ni 5.769075916042475 5.578649565735155 6.357241365135732
Ni 6.480761153206634 3.312562648929134 6.889836993004082
Ni 4.255221992343212 3.884014985262946 6.040864475885503
Ni 4.065745252690475 6.713706458623545 9.186991003756624
Ni 4.788899623695201 4.47717638719684 8.321269122528681
Ni 3.4330986347616883 6.025469933389089 6.892041449626337
Ni 5.038835350207149 7.769034259036979 7.216058226950426
Ni 6.577659568692376 9.499135461180717 6.355177546878094
Ni 2.8657388108581276 8.23800286985883 7.745456063003074
Ni 3.6291602501568363 8.072407941329567 5.391149892913876
Ni 6.199580195287086 4.1167084705777475 4.620597567392117
Ni 4.280309412017262 5.849073674953023 4.620292067207182
Ni 5.106918746469471 9.856710580968958 4.619975836979907
Ni 5.866439417841116 11.663783396440799 6.039202389574335
Ni 4.270490478306918 10.024595075244966 6.896366355551372
Ni 7.549581609984892 10.65647562676593 4.619137642633367
Ni 5.912198838874186 7.594460904019199 4.791325711408479
Ni 7.300965747092997 7.307260190897524 6.705291931026002
Ni 7.74865071421438 5.94554029180159 4.807777643635701
Ni 6.855002617291394 8.657410050007561 8.65108989846661
Ni 5.892364306697261 7.598986190508327 10.608168920227975
Ni 6.427446067697051 9.959461308192804 10.525697035230467
Ni 8.12339826947596 11.292881039182348 6.893231769898681
Ni 10.601617852569365 7.928299097876928 4.6182701319192425
Ni 9.796432258387739 10.097883694232126 5.388901885040231
Ni 8.844807300720596 9.025180832265772 7.215737327224767
Ni 10.262587287933012 8.75131057969762 9.185303297749309
Ni 11.175788601688607 8.573847416013246 6.893015667561205
Ni 8.260670994334431 8.37990666701916 10.608294219617097
Ni 8.39915871860158 10.416414657062234 9.191410454446881
Ni 11.008001088104624 6.527396513880777 8.32279644500836
Ni 10.314611283337154 10.688009110640182 7.7421549272488255
Ni 8.691678774115152 7.015956019207949 8.652269338065288
Ni 10.083661053594332 5.391252035940318 4.623724376838159
Ni 9.563518964852223 6.829978653060447 6.356901145317889
Ni 10.033525417726754 6.739164082106895 10.525402029870092
Ni 10.344703988269222 4.585190474770648 6.8952456625217255
Ni 11.78654065681343 6.363125182575762 6.037299157224013
Ni 8.026680373147112 5.118655278802053 7.214590937852949
Ni 9.447427359104736 4.7939977697242915 9.186176448734477
Ni 8.483745324333604 3.721810473881714 5.404336442511343
Ni 8.730084039796997 2.985366713044116 7.750523240475878
Ni 8.24382136644327 8.356265731573243 4.78763330281162
Ni 7.7563308954631625 5.931997139777266 10.604752605634978
