42
Energy = -184.71486203 eV
Ni 3.7939070886532984 5.731788679401184 8.489957358103972
Ni 5.91602406143797 4.484891619193474 0.18576232088651465
Ni 3.594892333899032 3.4159082484349446 0.4892356299910571
Ni 5.685876097429494 6.821087955221073 0.8340758195779949
Ni 2.092934383273911 5.10964336520702 1.5251008731685671
Ni 7.6052194268226945 3.1386814564203083 1.2905921744269628
Ni 3.3289299813142286 7.179697683492688 1.7120377188971712
Ni 4.493579086653848 5.1991588493351575 1.93537416694907
Ni 5.44835125630502 2.9594685422627895 1.9485207552190236
Ni 6.820339802879136 5.098407728468129 2.3993641829937795
Ni 1.6104411724816063 2.6013499010443843 1.5664902722841103
Ni 3.6978603783346293 1.3039890661197577 2.1255433013540936
Ni 3.3113661043431426 3.479946910055001 2.8519389665264403
Ni 5.975957057670799 0.8844403469388544 2.7785863940409175
Ni 1.01409582662985 4.097716063202292 3.3819617367305206
Ni 1.2190515001964395 6.648885279709618 3.269701315241109
Ni 5.476721256148946 6.900429465423321 3.2338046552564568
Ni 3.1746165976725718 5.838181859293449 3.8978386402802463
Ni 3.4913156823680054 8.196995593034869 3.769306704968297
Ni 5.108311586525713 4.603933518938538 4.314556881046972
Ni 7.122583604001538 3.0866873763505027 3.6457509501580976
Ni 4.097930782876572 0.21185083936509233 4.386690717633354
Ni 0.7020883677836776 2.805370475732636 5.485018325562148
Ni 6.703976308955604 1.0247236157491595 4.945162106525913
Ni 2.0925291035342455 1.681165002430863 3.830943857599447
Ni 2.726340874027658 3.726722765556545 5.011364789507535
Ni 4.803467858902688 2.2988955845321444 4.364513303386984
Ni 2.8669558764860916 1.5827647583236848 6.086066612398415
Ni 4.825360653038501 6.955868748016979 5.445451627933206
Ni 2.2511450336675076 7.39130429414933 5.5122074426399505
Ni 7.077985842100041 5.542334844874392 4.782634835943893
Ni 2.0714868825819974 3.596837322511566 7.28935846895374
Ni 5.190352458237449 1.268485273107045 6.661627257637936
Ni 1.0594629009205907 5.3034815480223685 5.424398827323378
Ni 6.697212614611715 3.285296600164777 5.903937779112206
Ni 4.381000452230614 6.9596363387502205 7.801889599128019
Ni 4.437052417252556 3.450791275228222 6.484280558929815
Ni 3.2038994454829646 5.5468851598676645 6.487374766108844
Ni 3.7170836936058484 2.2144111264325232 8.340216920342929
Ni 5.81795504238435 5.3113957235419615 6.84494184082353
Ni 5.939287638698668 3.126461262728729 8.185386765071357
Ni 4.0826807483092775 4.661657214097572 8.489957358103972
