47
Energy = -207.46147613 eV
Ni 4.565768318203347 7.126980896506763 8.747918835470843
Ni 3.4619094605837826 4.702618224339534 3.4883673348282884
Ni 2.90784231489997 2.743191780343181 4.990609018283773
Ni 6.236379292739198 3.599156936965928 7.987129292413979
Ni 5.550285211727224 6.280467186234957 6.892219870031605
Ni 6.026821175112918 5.3680325564924365 9.70029393628905
Ni 8.27606316325305 9.112884686562651 8.023057788461312
Ni 5.7384328499207555 8.058188771419866 5.131111231506595
Ni 4.364059886000083 4.4949889408958175 5.8570185339140215
Ni 1.774578123999697 7.419843920962247 5.2614598273804845
Ni 7.274277075269766 3.8933926131687553 3.3351646982496517
Ni 1.312859024790706 3.5726197997900595 3.4379821273214657
Ni 3.8024170281377754 8.278387965662782 6.653593770657414
Ni 0.7535034967309866 5.893283307401372 3.5781651242536427
Ni 7.539181491494758 6.080401175159623 5.590544980641985
Ni 1.9900225889587027 5.067250253023601 1.7419671981231148
Ni 7.858581428511612 3.6911423271210797 9.602126789859879
Ni 7.616185633870375 5.572845164397603 7.978323885083752
Ni 7.939198601744988 8.36611443469064 5.863625306513616
Ni 2.8986489350295543 6.147391606969124 7.097957097450429
Ni 3.327847262567793 2.5644426053978506 2.6261104202318224
Ni 8.251071919346854 5.887111342011374 10.40440382363169
Ni 8.994170240155054 4.4196720724818 4.935566932410938
Ni 6.023715503924455 8.654220135833093 7.38981666390447
Ni 9.701535687068038 5.764643974445729 6.78662719384537
Ni 6.5986318020715755 5.845178479532244 1.9288017446305639
Ni 3.5804921155173006 8.816522435093722 4.296258896897274
Ni 8.621473642583538 3.617034455627463 7.216720920003033
Ni 9.801167851131845 4.837413212752958 8.936431706553188
Ni 2.6896217504646227 7.035220494482469 2.948979398550568
Ni 4.757693574155126 2.400824247070867 6.618058018134915
Ni 4.260801057261322 4.733922387863181 8.34545326525605
Ni 5.164658896194463 2.9120902923228806 4.2233509892487575
Ni 1.89148555401314 4.943829077774491 5.323169123061196
Ni 9.289972575324107 7.151717002674256 8.71122888382186
Ni 6.942311572379062 7.480485072206472 9.16112016621824
Ni 2.602240426051557 3.6118236507538484 7.158938658930674
Ni 3.876460080473557 6.604366044997148 4.975890366997759
Ni 4.221600719057516 5.8505866410625655 1.5252724002239375
Ni 7.438492146920509 7.361077286877452 3.6202334497785245
Ni 6.753084603371488 3.81834263937945 5.723969313965363
Ni 10.080342796786493 8.102132812317413 6.731287271190799
Ni 5.266778134032209 3.8520382170946577 2.0871664686471303
Ni 8.806823635117047 5.609445735822017 2.8678521515622224
Ni 5.088295271455386 7.500813409500108 2.9247308173536504
Ni 5.753872641037382 5.472722446116055 4.0744552896057185
Ni 9.547890845172585 6.902688685013799 4.719016423223467
