45
Energy = -197.74835795 eV
Ni 3.4738067619813684 8.221897910320457 3.5288397828321654
Ni 4.130335557490124 1.901761175399752 7.473580010768452
Ni 8.05493514940664 3.1442734157978 7.2111745222819446
Ni 2.4904265158710177 1.0560326704063219 5.735291335973803
Ni 2.420356753383633 5.362693007602119 2.216125994914001
Ni 0.6034279410520017 4.828730802411783 5.6158850603605295
Ni 6.550767231462271 5.280852396415181 7.14994703159526
Ni 3.0743853701925064 7.601833943548669 2.5910645729731203
Ni 4.020999741851332 3.6331809262001857 2.373270330193088
Ni 2.168192225517423 6.493101901316696 0.22380620683863617
Ni 7.592175378777133 5.063709075742428 3.051191543046657
Ni 5.210610702314506 8.221897910320457 3.437592498724121
Ni 7.009806842445911 1.8391867432864097 4.653282246182371
Ni 0.9027650151820563 2.731160694237269 4.535299976282321
Ni 6.031767814774028 3.219194845103606 6.246611280178458
Ni 5.823528154002935 3.7814019277587825 3.8917997910665973
Ni 4.320397641525933 6.083485473096101 0.9271440919409943
Ni 4.173851623228376 4.363945657047589 7.66582091305397
Ni 2.586066514190968 5.7869906605948245 6.481355263543745
Ni 5.248232933290844 1.4799400621437653 3.0118798314865054
Ni 0.3324465830732218 4.771808038143587 3.2672808397301116
Ni 4.882402890564554 0.75295834892739 5.29057202058722
Ni 7.1974468016536886 2.7045660436986814 2.3523974455624836
Ni 1.254651140967676 0.8026031016580085 2.9999388511972347
Ni 6.432086988851661 6.463791523558356 4.7543251660825545
Ni 6.46121984959439 1.162686912472284 7.03074429116839
Ni 3.7774807153111887 7.279011450745455 4.986918473462482
Ni 2.98096995539227 2.022722785000116 3.6837326143234552
Ni 3.197535521660851 1.4432252252198747 1.466748001980409
Ni 0.6268445868127988 4.807794073514988 0.8393852509543677
Ni 6.008398660674409 3.083972442978504 8.517534932767834
Ni 5.238978627838205 2.440297187236117 0.814669984310119
Ni 2.126358602004682 3.325955980797217 6.697295865321682
Ni 1.6233232967454558 6.573273198871274 4.309176239185572
Ni 2.6536021752064003 4.44583377865865 4.3497215211621905
Ni 6.010228429923317 4.547906549147306 1.4055933919724144
Ni 7.767290709163274 4.4083020041049545 5.23782333508042
Ni 6.3543910136397646 6.7839617071232885 2.0926498408634986
Ni 4.5933052442646956 5.804890518707126 3.261081570540685
Ni 0.7273607565720441 6.905292672937555 2.110596468737328
Ni 4.721123463408085 6.759495376672771 7.123993961415072
Ni 3.9772446871588425 2.908116346891937 5.450204247082637
Ni 3.015989457630123 3.9538397996104138 0.33063795408536983
Ni 1.5062877914765194 3.0362018224963374 2.122333470053102
Ni 4.695570166743572 5.12696032826212 5.5330559624091435
