45
Energy = -198.52853204 eV
Ni 2.7075447442961744 4.794011129775402 2.709545334844558
Ni 4.410278526417712 4.091060434843127 6.452204948853996
Ni 5.7146125897670945 1.2005443685323667 4.619786357914362
Ni 4.7943414967746625 5.669606270598986 8.091512518827177
Ni 6.088656181644469 3.541738210701317 4.738812447347003
Ni 3.398264558796124 7.93621836761267 4.878449424393894
Ni 3.979240440072548 1.6963672413014945 1.2099948249962398
Ni 3.8325634419200796 3.240657226981203 4.084032659614357
Ni 6.69408254426954 4.883541638747725 6.726739019760231
Ni 7.606672880720764 4.236278112740413 2.928424686193043
Ni 7.037483773170395 6.458717534876118 2.2302755051140157
Ni 0.8560178659996032 6.319340485502533 2.3859655367622734
Ni 5.724555507560084 2.7355140427716167 2.3719063258735997
Ni 3.8755052852082224 5.583558504802633 4.668351483666331
Ni 2.5495640084724585 5.733036247304084 0.6305973643641654
Ni 1.3461220547211075 8.32232386310159 3.6889880150767618
Ni 2.366394182196305 3.145027000904255 0.1159640869400227
Ni 7.656594892192769 1.9490264575767393 3.4784920150798015
Ni 5.979359058405041 2.243288330298565 6.788464846640147
Ni 2.936832378994891 6.354922603139801 6.739590852750733
Ni 2.1069946890049356 4.21292050081666 5.759894716668615
Ni 5.290114524072889 6.781310343573038 6.039682231099027
Ni 8.01098812649905 3.11549811333621 7.497879875792984
Ni 3.7896332451913377 1.6956917263025577 5.925242864047056
Ni 5.692057137149334 0.45482989291535936 2.3918306961122897
Ni 4.022875757633054 2.4952291804650018 8.143792203173637
Ni 2.690405469707231 4.402420281269623 8.071640759622067
Ni 5.283477751548187 7.30629534889787 3.6033187413622354
Ni 4.82518336718486 6.449936761320782 1.2098449703315222
Ni 6.901818219511775 5.817847473017818 4.570126721892968
Ni 3.086079273299167 7.134732144640278 2.6227129707440984
Ni 1.8683037391558268 2.338198739021343 7.14293292379973
Ni 1.3923196748716848 7.991084086934559 6.049080971206935
Ni 2.073038809752463 2.5361234443063894 2.3785449801585288
Ni 0.7610103214647295 4.105824613665877 3.7703928850821185
Ni 3.6387292301483707 1.0131476986522467 3.4894688100575637
Ni 4.257060275516816 4.060769434606121 0.9395117414413355
Ni 8.311926601110857 3.786867487600263 5.187226351508056
Ni 1.798463222132603 2.1143853342899352 4.691025721828937
Ni 5.953271625243887 3.713098052052818 8.670675985996207
Ni 5.250463232814485 4.976934443419479 2.92685298281619
Ni 1.5478612700701742 6.204727836898832 4.626189561471069
Ni 6.488811686025498 4.611771447829219 0.8826983638116727
Ni 0.754353505527965 4.243492576762337 1.3565223877404722
Ni 7.871247848685904 1.5232599802134474 5.735986342142444
