43
Energy = -186.733658 eV
Ni 8.936980110274432 6.586342324824639 2.3803398935277227
Ni 8.68037901465924 5.759353350870274 4.503107643986871
Ni 8.5322505259142 3.5843396359269875 5.2710291401642975
Ni 8.256453666943374 4.161218566479786 2.8998636582931803
Ni 9.568432904113067 7.572188168996799 5.517673449786793
Ni 6.788425573496764 6.0585165820094735 3.0421968033650058
Ni 8.965632504578727 5.449033764675083 6.796701998124475
Ni 7.3445891347735675 1.8177644734360583 6.217952454538788
Ni 7.09331813673711 3.945389388195444 7.203899898709461
Ni 7.6049166855563 5.319233540747104 0.8897885337550552
Ni 6.785846345211032 2.594781560874526 3.935519288368086
Ni 8.96675828495195 7.664948112307945 7.778387995869888
Ni 5.463804612482492 6.229400075749573 1.1445475114513701
Ni 7.692201454787981 8.003551973525532 4.014676547953972
Ni 6.020588946212 3.9976490463330117 2.116260588680858
Ni 7.199033870354321 6.867011720009148 6.12986628821226
Ni 7.322185695382581 5.959319427847238 8.46459217913698
Ni 5.832644970288465 2.1871712738717384 8.056993450634867
Ni 6.373510236607983 4.710660107469199 5.004423072706761
Ni 5.260253492184291 2.657373919947498 5.81266078176425
Ni 7.930184957639635 9.161812231767737 6.147054661483145
Ni 8.297541223061858 10.003040058156742 8.260897565948225
Ni 5.461726282272657 7.934335097464656 2.9623597293952293
Ni 4.494798422540752 5.520991717805472 3.1570906164213697
Ni 5.5232069913127 4.428715414394841 9.041925893712515
Ni 6.8170592959902505 8.259996850824901 8.303790298276159
Ni 5.319661012204534 5.72260005898369 7.0909433569529705
Ni 4.466839692287153 3.1788034551812054 3.6891390066414123
Ni 3.9421951980689776 3.4893556683962146 7.538137978131357
Ni 5.844870713505643 9.088687605369703 5.0411161202372785
Ni 5.188241033157533 6.84530638151738 9.236423271053118
Ni 2.8911640703707753 2.6639405091997523 5.528306808631982
Ni 5.026384174912544 6.869974401830703 5.002621793477879
Ni 3.9101915598148493 4.737268737203292 5.341988653967027
Ni 6.1240855874874525 10.220069315965937 7.218656946907836
Ni 3.356467993490263 5.499593218930952 8.588350215737044
Ni 4.912495820060511 9.298403869467613 9.091104885879183
Ni 4.840233498663274 8.214001078353482 6.982137108795509
Ni 1.9943625006610421 4.521223596213517 6.746798832397894
Ni 3.093641991785554 6.673706707672771 6.4887600976545015
Ni 3.1210422250062733 7.8828592808253 8.562548613133258
Ni 1.3189566920288973 6.418911599381989 7.994205391861747
Ni 9.568432904113067 5.069177082739736 6.99545440695053
