42
Energy = -183.90109065 eV
Ni 7.590808732818049 0.9924146389306109 4.7952146936651
Ni 6.856727572784371 2.41939611631973 3.1215620474719707
Ni 6.13527733845992 3.835817390025381 1.354040603807915
Ni 5.624581719535153 2.3373893029424297 5.117705830499818
Ni 6.755353709757678 6.105514484183811 1.3517530400403115
Ni 8.09896418175864 3.309190985822738 4.958238224858026
Ni 4.907695203757986 3.847152920526328 3.3468517765838257
Ni 7.426764846049278 4.707288109662734 3.1455166260365472
Ni 7.276674127310485 2.1015851309620506 6.82278484206175
Ni 3.2224112059549577 5.577317091040065 3.7436451476273938
Ni 4.490112524700453 5.557027665662916 1.7001762908292946
Ni 3.8162624884524274 3.847819493132611 5.465138824191956
Ni 6.152990213353077 4.648561955927926 5.379703890845793
Ni 5.583460578635329 7.942579541461932 2.2003783737610183
Ni 5.561753289989143 6.169795840514996 3.640086424813635
Ni 5.312566490718733 3.3599141153083987 7.287810695661105
Ni 7.854127234178349 4.39482033516815 7.106490182618753
Ni 8.320460568600447 5.752329395404357 5.1585278100622975
Ni 7.725318108527048 7.098349073177986 3.286855374104895
Ni 1.9903042535129127 5.313128162746716 5.861329241537356
Ni 6.999223764967964 3.107416789313721 8.932972807710831
Ni 5.098897638603005 4.455573114628962 9.427303934828176
Ni 5.841812820791916 5.782497354776518 7.570075137086425
Ni 4.22738861975164 6.2137314126302545 5.803132158616038
Ni 6.787373470953658 4.072736390883941 11.044377942694702
Ni 8.475036783748672 8.205197414800411 5.32057952979154
Ni 6.621188745572002 9.058783871590537 3.9459929256391084
Ni 6.408204195801541 7.229848035428029 5.630798795246749
Ni 7.49131156978237 5.433084212085132 9.254557278329454
Ni 8.101846010666485 6.772587800794926 7.330148235591992
Ni 4.36559308955014 8.139987190476715 4.351043050538728
Ni 3.49977150917878 4.87683073188657 7.675597280262061
Ni 2.210979160840726 7.433482042029443 4.958421308868792
Ni 4.213868246625038 6.672890066590982 9.129509309116447
Ni 5.863115104104948 6.216882391528625 10.787651788945332
Ni 4.835894956772759 8.098893598722958 7.336403679672838
Ni 7.624203140955814 10.45542712436415 5.476599930686048
Ni 6.484032475767097 7.598420695394222 8.976377801883512
Ni 7.134581691015599 8.963957515641232 7.205622193226637
Ni 5.417773008534108 9.78569301930644 5.797076067562412
Ni 2.6621408284925665 7.135637231127029 7.3299301883807715
Ni 3.1694427780979004 9.2035059798629 6.129360051092667
