48
Energy = -210.97804955 eV
Ni 7.016644548680881 4.740918109606828 3.096766049610972
Ni 3.5354198306722844 4.923581629611739 1.3455392986350643
Ni 5.119595883813863 3.446281497768894 2.4164016258071523
Ni 8.78446072436397 1.9864432337868896 5.072274938178833
Ni 6.835640606849228 2.4370237131477994 3.7047477481083737
Ni 7.8364541698162995 4.067848234881958 5.1431901618940365
Ni 2.9636324912179357 3.9225305820799226 3.4392505349137155
Ni 6.45427822141032 7.0257288638115 2.9605181546721235
Ni 4.265737328568219 7.262465111475619 1.8533374653434729
Ni 4.596172415072485 5.577554751433387 3.4106128700328844
Ni 2.251138051833662 6.27239472360253 2.7463730856027864
Ni 10.442812568645039 7.115685034334162 5.421915555770541
Ni 6.612499583076626 2.144919819423193 6.01578961112958
Ni 5.795659820688978 5.488552882067748 1.2259585456223752
Ni 9.87790006011178 4.930012693758308 5.913149443370882
Ni 5.149829002218223 8.935802739194111 3.3202942611153623
Ni 2.8341584301948504 3.588726695651797 5.768538533995137
Ni 2.9144365818046345 8.383172973824328 3.5252134045604704
Ni 8.386960632326648 6.41009138396601 4.453954378457256
Ni 4.540783332134882 2.861857426042631 7.148755274827871
Ni 6.499506101181764 2.096202955599159 8.336727601408485
Ni 8.539475399564584 3.0876645342161906 7.17789007420991
Ni 2.6302270065327495 5.750940905504999 4.951571907812591
Ni 5.069911562161091 3.598212064333274 4.853852974023959
Ni 8.277393425361025 5.538195612337065 7.431518592231867
Ni 6.2569017450657185 5.809258605877739 5.128528017775315
Ni 4.3037645612716835 5.271279702327273 6.503354834973623
Ni 10.193568551573508 6.853721984280737 7.725329037281205
Ni 2.599609765012479 8.766584652491034 5.823974652365449
Ni 6.36388422731709 4.32665658679311 7.172454033849145
Ni 4.4063017954434045 7.417178173673541 5.068360789181552
Ni 7.750179138239032 3.9002274773108216 9.233678464492547
Ni 6.734343505195127 8.235351129147412 4.971191561281765
Ni 1.1162849923720335 7.398952580677285 4.654866620883801
Ni 2.5463649645159974 6.757862024710781 7.110007386275161
Ni 8.423037263474782 7.736732539336626 6.439083236042617
Ni 5.282586571025821 3.942692929954446 9.203579005518405
Ni 9.058367881119787 5.873636200901417 9.628937547665116
Ni 6.6317493527358975 5.901229897685553 9.3030419385464
Ni 10.01782307096807 7.956975801323312 9.731657373439722
Ni 4.852270184972055 9.695393244898066 5.519871352152374
Ni 4.2841952861288775 8.377612329922234 7.372689799695509
Ni 7.941395895631298 7.804320151490038 8.753302411762194
Ni 6.156159096144747 6.8809646063996475 7.1657483648096205
Ni 4.311736887772629 6.057943999555784 8.705281463402374
Ni 6.569580180169697 9.152690572549682 7.221240091359774
Ni 3.0515254945713073 7.889218182639133 9.223472927548393
Ni 5.569911052186327 8.052977695803825 9.25847623957167
