41
Energy = -178.46555112 eV
Ni 3.153171647855359 2.9720070474314393 9.747525241048285
Ni 5.357179690633335 3.647640811570462 9.535695312213205
Ni 6.320781960415251 2.7121937341262154 7.576574821891477
Ni 7.521220528186075 4.4180412825741655 8.898409289860783
Ni 3.9080478102212286 3.5734662095045184 7.66034418384271
Ni 3.4693965911059212 5.218568428365664 9.362959190947121
Ni 5.669978701343996 5.889480029406207 8.992441071869957
Ni 5.830070438417034 4.83897661962912 6.920784968113305
Ni 9.638369371600405 5.438347429137925 8.077167736693385
Ni 2.926081383160125 4.24453913766913 5.612130570593826
Ni 6.316548210618914 8.063240013794973 9.093271478220142
Ni 7.311125616052686 2.4917538997089768 5.395794335505203
Ni 7.680611618320608 6.532490079808144 7.725600885105923
Ni 3.582390945127767 5.938030600309877 7.135197518228376
Ni 5.021604669454173 3.1248143849408945 5.54160242375003
Ni 8.208927043151625 4.147682188941515 6.694109296854542
Ni 9.405141637715452 6.0049369106113355 5.806591605496166
Ni 5.678830665948239 7.255694387318332 6.747238581821685
Ni 8.678729917952296 4.224278226803595 4.307573001126485
Ni 4.012269954011191 4.054308177006029 3.5125119915355696
Ni 9.576654382157969 7.878359219205313 7.215034898072604
Ni 8.637045787084102 6.646890050996488 3.5653867781360713
Ni 4.6947830469617395 5.843719224114566 4.91731461577652
Ni 6.357542068295943 3.8821642670019085 3.7718641514769136
Ni 7.810872683024647 4.929823963307305 2.219740710300153
Ni 4.013006016539834 7.570533555461823 8.763832686958807
Ni 1.7682301190609357 4.789408048530812 3.6656487838660783
Ni 7.0769703119011025 5.685281090821405 5.134892947687627
Ni 5.7757932269343755 9.18456540671717 5.518320044678948
Ni 10.080593549400337 8.0361056375512 4.8810748073406955
Ni 7.464046137203992 9.072375409122666 7.403542671123012
Ni 2.4522751183552507 6.564251671370271 5.101177409526356
Ni 5.567690739040508 5.664203234217228 2.501516910293522
Ni 3.564459668809643 8.230100737700308 6.456712131232756
Ni 7.1534707944662825 7.141090228841336 1.6820897256410248
Ni 3.3260411754726036 6.300056019927041 2.8659253365247723
Ni 4.062024273412801 8.14249468595545 4.191501119725601
Ni 7.875897726185787 7.925141754526063 5.487291025516559
Ni 5.103242902547691 9.510137084006415 7.7587942278975754
Ni 6.3009224022724455 7.554928573180884 3.8109326657230573
Ni 4.877157539524264 7.887078608730268 1.9730809177268733
