42
Energy = -184.16514195 eV
Ni 8.748988775021067 4.30614272281118 3.3762649706323673
Ni 8.79171058237221 3.210923453041845 5.491169014601765
Ni 9.127686387228469 6.524169606078939 3.005592869037525
Ni 9.763738591970819 5.504881596411749 5.2596242555495225
Ni 7.996011765749132 2.0987352265438073 3.506203014277427
Ni 8.932556356834146 7.251271218409617 6.905552816179437
Ni 7.128890422085924 1.291096770074051 5.470539806436857
Ni 6.819240709380245 3.504800726763693 2.131125181474837
Ni 9.527415151384762 7.953006708012356 4.716046683837858
Ni 6.755854256754445 4.120597167125216 4.669496592468921
Ni 6.862534299837608 3.024212389316155 6.909701907516394
Ni 7.15898021695263 6.673292346924562 8.421381189562997
Ni 6.908620042654456 5.767095275815658 2.797476151782469
Ni 8.259507729526007 4.956619572941304 7.029144229514585
Ni 7.628341591102292 8.90232028403347 8.075715047878704
Ni 5.602360869562032 2.302309191421458 3.8953307918439375
Ni 7.726229557639259 8.983567638813126 5.701317755471327
Ni 7.277773035056902 8.015302050802896 3.512661894451912
Ni 4.917739657080713 1.8873793506626053 6.141168829434503
Ni 7.638432266044812 6.395757151742872 5.107288044775617
Ni 6.696510815722354 4.407672760393094 8.80366666708188
Ni 4.921374582180728 4.485812513728196 3.051293900815922
Ni 5.930367944012441 5.288091355744996 6.584612592703798
Ni 5.969627472851046 10.02965325930933 6.866604153552917
Ni 4.868203569484793 5.960302586358367 8.56932766954253
Ni 5.477432808955167 8.979928184144129 4.7120266739827406
Ni 5.9779012107842355 7.621562086709728 6.555893054378675
Ni 5.294479382513339 8.323692330280943 8.641367600825328
Ni 5.309412458754 6.467859260859381 4.427542947369169
Ni 4.7127111261356225 3.6229790942442324 7.79432194112304
Ni 2.812671492649191 2.7773303533923968 6.782516162034869
Ni 4.2821422106650315 3.9947142061681298 5.3094848595602935
Ni 3.6058279944021074 6.387845811042077 6.263706963055061
Ni 3.9845699840458515 8.905126642718628 6.67326189935427
Ni 2.7841159208319777 4.914628345141418 7.980849407790073
Ni 3.0041671595443526 7.377054303605657 8.300564204019132
Ni 3.3534372959355645 7.94772191312145 4.5065636598048995
Ni 3.1301382096130093 5.6396336299389 3.9024175134998877
Ni 1.970322111655071 4.663971425025477 5.728508223446151
Ni 1.8212836213521824 8.347448638222074 6.33011992649806
Ni 1.1194424962096314 6.334974668032065 7.1551624888704906
Ni 1.2639980175557861 6.711266334165325 4.800136594053445
