42
Energy = -181.05600615 eV
Ni 6.098085257651278 11.329654188218825 8.015088248534482
Ni 6.610920542803711 10.510766366228466 10.20714743294586
Ni 7.192164673510227 8.8955017314202 11.864194313381065
Ni 8.411153585847735 10.831405402437165 12.300528729347834
Ni 9.174757120859384 9.506342489582192 10.488834909809187
Ni 10.806618737750496 11.209107491549737 10.108224804874943
Ni 10.512836136853112 9.816958265639933 8.27599364392261
Ni 12.726277485202292 10.461356457123557 8.678999766523136
Ni 10.648999686099675 10.710541094576003 4.351006694770739
Ni 9.460350505594233 10.968782937613193 6.426579786517227
Ni 8.232841798014384 10.500924103225707 8.482316669435045
Ni 4.598162035212021 9.863098387791547 9.04284917682695
Ni 7.232175734830356 9.595555748687044 14.133431549142063
Ni 9.155161405755837 8.651668371618419 13.140179860629258
Ni 10.755607127584389 10.010688510979197 12.140323863429872
Ni 11.654243268780823 8.976553810505518 10.16674067614855
Ni 13.32843335047211 8.063496997892587 8.88374620885675
Ni 13.003508515295568 8.96330903381268 6.82845045212449
Ni 10.694419650853781 8.331039636996945 3.793163836542091
Ni 8.771433979928153 9.274927014065572 4.786415525054875
Ni 6.272352116903177 8.950041575178473 7.759854709535587
Ni 7.250841327931959 10.328872241847403 6.20597831790735
Ni 7.170988258099748 7.915906874704938 5.7862715222541095
Ni 6.05708501122809 6.9087439972061535 11.456250818199191
Ni 7.119976647933505 6.717487894134398 7.8183705808091934
Ni 7.277595699584314 7.216054291107986 13.575588690913259
Ni 5.29296273677893 8.468289074486204 13.32794473673294
Ni 8.466244880089903 6.9578124480707935 11.500015599166906
Ni 10.67575405775203 7.597723143836587 11.72061706777665
Ni 9.515441799836255 7.095189983246822 5.626066656336143
Ni 8.751838264824462 8.420252896101942 7.437760475874799
Ni 11.315674842880274 7.415829019455669 7.719447952738277
Ni 9.693753587669608 7.425671282458428 9.444278716248945
Ni 7.413759248831024 8.109637120044058 9.650601741761525
Ni 10.734430712173907 9.031093654263788 6.062401072302925
Ni 11.828510128032715 6.596941197465313 9.911507137149508
Ni 5.200317900481703 7.465238928560433 9.247595619160856
Ni 4.923086870388584 8.963286351871457 11.098144933559647
Ni 5.89201494561126 10.693313103060696 12.483793071195228
Ni 12.034580440072725 7.2332822826232945 5.44280231448891
Ni 12.633632648905058 9.458306311197779 4.598650648951033
Ni 11.86951037445604 11.017851388477839 6.470344567484797
