49
Energy = -217.61586132 eV
Ni 9.340025251036996 4.19526937283081 3.8673154632454008
Ni 9.65360782437115 6.051750261366526 2.561671884667786
Ni 7.446208330515834 5.028028651831382 2.355450320050238
Ni 10.264834144993657 6.096193017245294 5.02314278430949
Ni 7.1825266547748 3.7340509002642728 4.4953847591609195
Ni 8.6489153133385 4.557015885299396 6.183379238283032
Ni 5.73952218524964 3.404984802666866 2.6502633963424853
Ni 7.658492078931575 7.437634360001391 2.5581392471823414
Ni 5.791506445814659 1.828167678950963 4.437447206526663
Ni 8.03099876618342 6.137156767470055 4.456010846609513
Ni 9.698351586639749 8.023524411704187 3.757029438687236
Ni 5.533408757922838 6.595453018676088 1.7591407475889302
Ni 6.541713668209147 2.956601928735456 6.709628381355175
Ni 3.99004049014885 4.87325438340017 2.4663617101156996
Ni 9.91971758498423 6.2621375737855764 7.349764399655315
Ni 6.2959148811984775 5.226651466982809 6.246001426079226
Ni 5.751945438935626 5.780670604519165 3.870574999471579
Ni 3.407241244001761 2.731779640313139 3.425653873153179
Ni 4.7494397064853455 3.8355580323886946 4.827401489325174
Ni 7.67780379483841 8.603889582636095 4.704827771657929
Ni 5.662429792615504 8.388711304339886 3.392497574703596
Ni 7.957012228704182 5.411460531803321 8.281780973832868
Ni 9.709668021485449 8.252276679258669 6.119282579904506
Ni 4.377853404733507 1.8190303430260963 6.2659311233527015
Ni 5.07188809822905 2.2186216476410334 8.468342958658189
Ni 4.359218329761626 4.062538127300611 7.18244367256724
Ni 7.766063870243662 7.052785940003657 6.628808980123618
Ni 3.710220486400754 6.977114871226804 3.502022238241243
Ni 7.925865085947446 9.657153177438591 6.777726830085696
Ni 2.40442718613887 4.981050507963489 4.1854957971217654
Ni 8.545470617431375 7.950178944756738 8.509301651348569
Ni 2.569117620967061 3.1618880093117716 5.6765655840068945
Ni 5.9367233485687 4.43412183165658 8.860020094346988
Ni 3.6986474981737936 9.076947552034223 4.524711032417446
Ni 5.779946151355215 9.785083685405267 5.564178379951731
Ni 3.941201886047951 5.89551990499588 5.700879870659571
Ni 4.884766902714315 6.471574167743018 7.773106118212417
Ni 2.712792182119833 2.768536409323364 8.041791015731638
Ni 4.036595221037489 3.5569175398874453 10.058148629954614
Ni 5.671305586676264 7.488757210973441 5.562598107275597
Ni 6.521193197190489 6.915512807132553 9.363989346927363
Ni 6.1489272123082594 8.614217881047196 7.7454446843034
Ni 2.217116447725775 7.314578325247668 5.401145949781384
Ni 1.846579852826177 5.199024251100122 6.581123654778117
Ni 4.519667744294375 5.931937299141666 10.134280410208657
Ni 2.9240049943931403 5.040419934632032 8.709110415871304
Ni 3.965979604928453 8.607011900029415 6.758364827438345
Ni 4.306929052261524 8.15474876244349 9.205667503259942
Ni 2.5529144910390786 7.120979116110649 7.79451597911292
