46
Energy = -203.89113207 eV
Ni 2.8577076490535678 3.339019687392427 0.5209821468498013
Ni 4.708957395206994 4.684230841942313 1.1594413274877111
Ni 4.9842651454375675 2.1932137169062558 0.8602455639393022
Ni 2.510692220212983 5.753348149278128 1.1653359269270502
Ni 6.828887326049155 3.7058148424085693 1.2719439403609043
Ni 0.7521694610140295 2.015216755107164 1.2094973308319616
Ni 0.6239478863511221 4.37412308130762 0.7444441908755904
Ni 2.821663781981066 1.238761255690439 1.9273527874935645
Ni 4.1181514172438405 2.954029185682003 2.8099730250142394
Ni 3.339856565519252 5.224321811339126 3.249409642181881
Ni 6.74565195136334 5.984485989509026 1.9747193643055867
Ni 5.603955921880309 4.707091724846804 3.4884311474255547
Ni 1.8082317197160067 3.5552231553736955 2.563510526477327
Ni 6.462332225167766 2.3235615342258886 3.1039145427009593
Ni 2.465645916526086 7.320273542307127 3.3086780755241856
Ni 4.958514535753218 0.5947398410770454 2.692700295435916
Ni 0.7451963060774183 5.588603465622584 2.906087506272536
Ni 1.08789353809677 1.6833083341737398 3.70111142929111
Ni 7.14249509846195 6.461795884103016 4.423398343503761
Ni 6.37057958826185 8.092537389958423 2.862414434599019
Ni 4.487640971302491 6.931045503630123 1.8868428693655144
Ni 8.810607665718925 3.444648976024641 2.684651019403152
Ni 7.872483106289451 4.254331154603536 3.3417925157748343
Ni 4.801874508574283 7.027215766419253 4.174346388511712
Ni 3.3271674227872903 1.090423917867763 4.310272561718621
Ni 6.522191983093785 4.543082563135343 5.65702740960521
Ni 0.4036828015387329 3.731612728364762 4.831426512454638
Ni 5.88492774461304 0.7729787275535495 4.942299545229251
Ni 7.591985793057369 2.5469802537764825 5.178393581062587
Ni 8.810607665718925 4.716573285908406 5.413278445513935
Ni 1.7364529375337554 5.728202161370343 5.013406355342048
Ni 4.984103186200994 2.849180105979188 5.0368256234735425
Ni 1.7620680906008472 1.8948762652892637 6.117409973174681
Ni 7.623740606767607 6.08088412037279 6.97913636141136
Ni 4.1637188879243165 5.104557504611521 5.5183698905893
Ni 2.7095889609154913 3.4125336195752283 4.765577962495874
Ni 3.1937353555134 7.336888215945452 5.855251755336191
Ni 1.357128206785575 6.5708529582245365 7.141523410957879
Ni 7.856549157435903 3.7058488781506553 7.36838008429308
Ni 5.994005111808439 2.2970355453462536 7.052289955658766
Ni 4.045064456850589 1.048026220157204 6.518913127681673
Ni 1.639704502224958 4.2486509960512 6.837408549707258
Ni 3.480522007636827 5.687709984343074 7.631769532446793
Ni 5.630015264698066 4.67601786757231 7.769867704409339
Ni 5.481252311733521 6.793184794154162 6.451340673646479
Ni 3.7626699005431417 3.2758662558503406 7.141515201766737
