43
Energy = -189.08202036 eV
Ni 6.554109057610974 8.083222507692094 2.6750816638264023
Ni 7.643763267545327 5.867501398967645 2.766228453433716
Ni 6.136130353786611 3.9964893899119858 2.5794049968777983
Ni 8.428554623935456 3.6385103775044376 3.2894820089695425
Ni 4.428411610645671 4.62429136280475 4.121562475389622
Ni 2.9243502769059524 6.098965436268865 2.9224051262360837
Ni 4.103976495055129 8.355495262112182 2.9950388876277434
Ni 1.9353502145118606 7.746166192449444 4.295928244260047
Ni 4.970229463273879 2.3290806376131985 4.132123667636499
Ni 2.1947606563243762 3.8885153179741483 3.4711986314650716
Ni 5.23086271831505 6.219944085071235 2.520806819502854
Ni 8.176332780817763 7.730592864130018 4.377189218690819
Ni 8.746723077417656 5.403197378279827 4.864070336261412
Ni 6.97730733806527 1.8077044151610038 3.0292997662250616
Ni 0.7375092565396597 5.66772347250461 3.743430931086922
Ni 5.915317093902531 8.683761721053527 4.83380276710447
Ni 8.981921371190143 1.4586524545928135 4.112829599108854
Ni 6.384259986563951 6.287464165602198 4.660232074103512
Ni 6.6807101208990005 3.928377458080022 4.881395796057101
Ni 3.057570944246676 3.0059199236203997 5.382127023857716
Ni 3.5901764461074355 9.199975945782072 5.269382836416838
Ni 4.157405074837603 7.018285636127825 4.795460416500399
Ni 0.8347770798384743 4.033252234667412 5.6518010990303145
Ni 2.54653446244537 5.4274089659408284 5.412633011615922
Ni 7.007500652025161 1.7123166787069886 5.423389403789034
Ni 2.520625778871788 7.495743157594396 6.645517802601401
Ni 4.874336137534637 5.382764158516346 6.396072526129511
Ni 7.228822424845384 7.763201097507064 6.607060351335934
Ni 8.947506223516552 3.1681339606329733 5.625909870318838
Ni 9.477937683086656 7.050726807117074 6.285452686982112
Ni 7.24594513463654 5.405680039115921 6.75507184360659
Ni 5.157290273253545 2.9232538106919703 6.459816825489612
Ni 0.4365988884905495 6.534862969874465 5.8329312888612765
Ni 3.2270059806868714 3.9861999411216122 7.475679476343791
Ni 3.7412216473781474 6.1941698430267325 8.27920398854941
Ni 9.36909443397542 4.784381699276133 7.2662170869962495
Ni 7.3636126048849535 3.1369959622185286 7.367856321083085
Ni 1.5227587780746192 5.55622937342131 7.609763825445969
Ni 4.867858105935294 7.897750535629556 6.896018425906344
Ni 8.49735480678956 6.824042033370423 8.370793516134105
Ni 5.418441841653988 4.279716208683031 8.404030441049056
Ni 7.640536868111271 4.775380033346565 9.052436984623489
Ni 6.093406804426323 6.602851925195645 8.438760322429424
