40
Energy = -175.27858775 eV
Ni 3.50552949723978 2.6295000501911674 0.5264915691659022
Ni 4.649706614114646 4.723602837462812 7.974485472164598
Ni 6.748677659785221 4.860201946752289 1.084561659951115
Ni 5.784732709242006 2.7667337505079153 0.6255803167125169
Ni 5.541897067181828 6.763598405748826 1.8760039936918231
Ni 2.509747250062061 4.708975631915591 0.8783271200943109
Ni 1.6746939545814477 2.8781065402289183 2.0518511210484007
Ni 3.1019890479259873 6.566328295554945 2.0499793249903013
Ni 2.8180983280980554 0.7297022556238749 1.8408280113326072
Ni 4.616999179460441 4.504859008451607 2.0462244762259254
Ni 1.1252792395571185 5.303826374345143 2.7676310918809266
Ni 4.1379134135386675 8.288054190678945 3.3444664159221476
Ni 6.67912256103567 3.030290716876698 2.7467082218434444
Ni 5.599279025444807 0.8272817371925626 1.9928158514938514
Ni 4.148118380443853 2.3132224985683214 2.8342355770875973
Ni 6.7884194832746445 5.324788744398506 3.4380743376788194
Ni 6.244688344412543 7.557995263698383 4.150872570481223
Ni 2.1280947592925594 1.6177832562187893 4.028879166749814
Ni 4.4702759040399895 6.042189783683441 3.8711835879116507
Ni 2.7885603464803346 4.083195934647634 3.7681135843991287
Ni 1.0770675299204677 5.220391597494797 5.236041958427686
Ni 0.4818796664443011 3.3046778132687242 4.05071112879077
Ni 5.157062947097261 3.8624808621727182 4.399816741777595
Ni 4.048697518154019 0.16579697955215777 3.8148323433003353
Ni 6.02003630861996 1.4238361260566794 4.305137382215022
Ni 4.8177303405595175 0.10642318901906546 6.053898303064054
Ni 7.21947619189488 3.5463817069150836 5.192455610362139
Ni 2.3545670214850642 6.896586137432909 4.305383314002886
Ni 3.950452409958511 2.1521928876798584 5.4077284398789995
Ni 6.039239931614568 5.759300291797569 5.7107872025897555
Ni 1.02322345976785 4.788464406685336 7.527982089581917
Ni 3.5167613442043417 4.965168414580997 5.82669919333157
Ni 6.265247469539766 1.8185319900293748 6.585302666808823
Ni 4.293354092463593 7.502290419182324 5.687764134041338
Ni 1.9049051693245083 3.1247796928939016 6.02564949530385
Ni 5.366707880063116 3.883636298917343 6.94780298333287
Ni 4.123648640938932 1.9202169261850448 7.647588870004445
Ni 2.299110354789329 6.645997416621231 6.776778568609373
Ni 3.175682242854537 4.055320113874362 7.915017401287266
Ni 4.542971847283429 6.0769346390835794 7.606584836312519
