41
Energy = -180.54550068 eV
Ni 5.087886802446893 6.783041480658189 9.43442011470759
Ni 3.53700045551427 5.9696571030402374 7.804255596803833
Ni 2.823296644833983 3.664019907201796 8.314771122170535
Ni 4.884160750075377 4.471763109506704 8.958393498805945
Ni 4.697587363153931 8.042898032159753 7.505379567775262
Ni 2.4458775142977496 7.62111626192188 6.425282859069235
Ni 2.1163748807155547 4.775672655712127 6.458657093125887
Ni 6.563684181721918 8.824752339395191 6.211979116431025
Ni 7.062181619566762 7.62780723097692 8.277231444103009
Ni 6.96164494096032 5.376618344456417 9.40872614349584
Ni 3.8989374407128516 6.286624886333719 5.314481077399992
Ni 4.6992569034760425 2.2873655180056787 8.103904457102605
Ni 5.918354270730957 6.052903505308437 7.129181447191283
Ni 4.765090813561072 4.161548604147469 6.218510498525998
Ni 4.321543393359974 8.66197861573138 5.293327361753282
Ni 1.4970470141995482 6.06996040429782 4.675231211852152
Ni 6.627907010673895 3.607824806368082 7.679967287032809
Ni 2.528799705789307 8.009171427474813 3.9720047362755007
Ni 3.248961669759519 2.4748796396299233 6.175715499590845
Ni 6.259018019763398 6.991750910689446 4.789893208681896
Ni 8.314231542340512 5.19168869562824 7.600411160660103
Ni 8.212797031182248 7.064868884342199 6.237601832897473
Ni 6.036677948963448 9.289686314579606 3.8257820645080667
Ni 8.137119890850492 8.507301982620676 4.36823684111353
Ni 4.677343032166527 7.517346916624026 3.1130947812233067
Ni 3.0418420753302366 5.925761492315891 2.8825585596104086
Ni 2.9193138346276983 4.121110879035806 4.423804495796953
Ni 5.839273599266759 2.063586031954984 6.060296948564478
Ni 7.1856264352955215 4.872072880948636 5.408581146909136
Ni 6.9496209704092955 7.311261644210729 2.560506250468618
Ni 9.66793203719691 5.1336755377837076 5.761792238791104
Ni 5.20930543388397 4.85721580063089 3.876599149118273
Ni 8.325804908066397 3.030758629436344 6.125347474302101
Ni 8.662155790921851 6.278197275481811 3.989168723892284
Ni 5.215718984430858 5.636687576941965 1.697766802886326
Ni 4.5844458535441035 2.510206335541186 4.083085029208294
Ni 3.6237044618032654 3.7761396921793198 2.2107944918739655
Ni 6.932137813443013 2.8896857923181476 4.149680799850027
Ni 7.258399755391167 4.9492523892050375 2.706751492419597
Ni 9.010996640143524 3.8981513768888876 3.9043853399721513
Ni 5.850567335309982 3.207403183059339 2.09272409846114
