44
Energy = -194.07341207 eV
Ni 7.237928979488751 6.014189283835547 7.952411924191811
Ni 5.492478342542224 6.613083917757303 9.512084875781671
Ni 5.668642334709004 2.9351825591357454 7.54469926002607
Ni 7.917152612266546 3.6869988168389134 7.8240905175977975
Ni 4.413948768821148 5.0021503514663195 10.773310600799709
Ni 3.817700592011602 3.685299199553148 8.932212339899209
Ni 7.317262442506467 1.8370420966930818 6.3908274457721115
Ni 6.183894012229804 4.337306918321481 9.352127190201664
Ni 8.787209871531248 7.735986258574413 7.273988388282169
Ni 9.228940892749911 5.377031544728649 6.836056237636115
Ni 4.908683756916648 1.4851099492625532 5.8919504060557575
Ni 6.612395656065944 8.24503298501783 8.236944408654114
Ni 4.194473930893879 7.923592516667294 8.00968063237282
Ni 3.5686933984042386 3.3019371659784595 6.596759008914658
Ni 5.546827281025367 7.1847667743518695 6.174298507356987
Ni 10.736435914446693 6.99598076694761 6.152100699259875
Ni 6.605677250821168 4.67361268891455 6.031514138426684
Ni 3.1567567631547147 6.048606322498981 9.056558146244063
Ni 8.615829269656095 3.554002377045083 5.4320476495538355
Ni 6.2661596074712635 2.873369840109231 4.60046296880529
Ni 1.9913505034736554 4.606487457404422 7.616009439468782
Ni 9.249455455594893 8.238811060077058 4.813155457623603
Ni 2.9639477908307166 6.480872077695202 6.579465985297756
Ni 9.653120309194321 5.6553164484124006 4.5245993896330345
Ni 7.272470574540154 9.118745799274308 6.117374015160859
Ni 7.754592761800597 6.672907285269927 5.417631742665953
Ni 5.2336584260372865 9.762733995684458 7.083552434140611
Ni 4.815494157838186 5.319939071392487 7.59054485022991
Ni 4.447429592257014 5.0559012242492765 5.128988728013857
Ni 3.846559943603264 2.9113714675930926 4.269205855278571
Ni 5.277025434066176 4.233892352830446 2.946597695120078
Ni 5.929588396019092 6.409967594485361 3.8450213212406474
Ni 3.7258006457633033 8.555642888244133 5.638092242099842
Ni 7.576419735663747 4.6831246189708615 3.692588467756962
Ni 2.1526111979628455 4.6733156795154125 5.199551631889155
Ni 8.275956587984433 6.8569595262869445 2.9596270615933284
Ni 6.994190956809162 8.550663467756982 3.9269469575495632
Ni 5.442639740985383 10.055577241571617 4.811301139225418
Ni 3.0955950730385973 6.720707020896183 4.182748070994647
Ni 6.690931500252874 5.576035038864732 1.6697990333659307
Ni 2.953679312046047 4.683140378175711 2.969733417824513
Ni 6.286390832017305 7.855415809335863 1.8028987475681257
Ni 4.619720546877917 8.356307989601307 3.4378870173160037
Ni 4.385599992456984 6.367203317541742 2.1138750979380956
