42
Energy = -183.26017856 eV
Ni 3.6099852024854657 5.863248329853675 0.9552471054232378
Ni 4.392257893843229 3.7177400073813693 1.8981222176455164
Ni 4.366337594321454 7.910889071103243 1.7131432531336015
Ni 5.7132080596652886 5.9530151686071315 1.9211660196507512
Ni 2.1160837685697103 4.553361087130137 2.036758468813014
Ni 7.985914273952388 6.04499011489059 2.8332064681409452
Ni 2.6372496894717687 2.884375126346309 3.5270823260870645
Ni 2.599366974520374 6.74776371853279 2.965282039780952
Ni 6.550548634519544 8.092807721939973 2.6755014525902965
Ni 4.099358491051239 5.103206367994146 3.653365031171267
Ni 4.8315510847333005 2.7659831704025493 4.177068972410642
Ni 8.084128066771397 4.649876674287849 4.841758485852308
Ni 4.389641888252798 7.846120043416738 4.022830771261573
Ni 6.418042785392405 4.1784354193524775 3.2527227765637186
Ni 9.79592878470114 6.088148859907115 4.599118241587947
Ni 1.7181417353453776 4.943838064513651 4.291724391955999
Ni 8.163122574647284 7.778528625093282 4.491253581863071
Ni 6.200645382344992 9.021318035940153 4.850062244233316
Ni 3.2719190192132337 3.7658739961140966 5.6703908970244505
Ni 6.20433540190981 6.436625113455852 4.272551695631924
Ni 7.0072137810037445 2.5689828388997245 4.964670712803999
Ni 3.22933315533575 6.353119532906753 5.418404945586747
Ni 5.584902751402521 4.704305117914556 5.67142162576501
Ni 9.57395571240233 7.531612782386317 6.383238222302359
Ni 7.356603998726387 3.778802620202124 6.947628852706314
Ni 7.472282192033198 8.611024130636727 6.733947928403499
Ni 7.386450359943658 6.301277778136838 6.3760263705900675
Ni 9.324630487068534 5.1802065396535575 6.963230225174028
Ni 5.226129993101496 7.3932124961770285 6.364899689682956
Ni 5.212077963903522 2.5814855320086325 6.579219150070118
Ni 3.419420593793006 3.2127234582248376 8.060559683069757
Ni 3.9896919330761587 5.287152297275065 7.29613694042688
Ni 6.020146232142411 6.009103965167292 8.365822777231436
Ni 8.46207815144861 7.051995758496271 8.33959286491522
Ni 5.650701532810171 3.6962325257964674 8.617130407184622
Ni 7.901738840059775 4.786567319610353 8.968993252726088
Ni 6.267517838916738 8.243726924768398 8.686700344975158
Ni 4.019074819898774 7.334207406928399 8.407352072119041
Ni 3.966114894170228 5.099629239748355 9.592410436200673
Ni 7.385840668949453 6.806086383780127 10.329263353092337
Ni 6.099273829983196 4.876848800745162 10.608236619994086
Ni 5.077113550013912 7.025612420169311 10.456817670053756
