45
Energy = -198.70417214 eV
Ni 3.970870962231929 6.38969058695857 9.831516318981087
Ni 5.600611921065185 7.580424418783445 8.553880408060264
Ni 6.305011437105166 5.85659916425645 10.104146182652872
Ni 4.380624954736848 4.2556838027882735 10.50272469323074
Ni 3.8609130651122676 9.466659403251299 4.735220141430117
Ni 7.98086776837987 6.962846997664005 8.676415514962038
Ni 4.9939057314325135 8.06025506614639 6.25968901393939
Ni 7.154092527292183 8.65899858679779 6.990717160913399
Ni 3.501501364286942 6.698252105262992 7.607111429514888
Ni 3.061634487481314 4.47951353100963 8.43400070559932
Ni 6.16793034617152 9.377741338409185 4.649681248445558
Ni 2.783418432359945 7.428665405427059 5.514806224311962
Ni 5.306543664116499 4.97460554796477 8.2478314883143
Ni 6.68353196885362 6.349940559714726 6.89007692740418
Ni 8.43887159470624 9.068680606564772 5.0007612340736145
Ni 8.382301365823656 4.8454206108848386 9.708298003344755
Ni 5.017048941151683 8.95432285241826 2.5684034366026074
Ni 2.505033287115296 8.344118256879652 3.297955818267822
Ni 6.560265684338071 3.5191512947990757 10.474147807160932
Ni 2.4545966708665174 5.0073161869505505 6.058421408944435
Ni 4.933847804951714 2.7492861403677376 8.800954998839979
Ni 8.89044907451448 7.139717593722913 6.376832817689663
Ni 2.6474575440240047 5.9013137524320936 3.7189380987255083
Ni 4.15102283132203 3.3289207740745375 6.61396209704965
Ni 4.609254870888456 7.178200631789052 3.9368795119921365
Ni 4.622557979089291 5.671593758336409 5.7996536003416255
Ni 7.4412016227272355 8.360333794104717 2.842751451376647
Ni 6.954026849808666 7.149495475315266 4.715545667992669
Ni 9.316641946774899 7.165119742407389 4.016747187154216
Ni 6.399806633791284 4.1405596524345825 6.180140938211709
Ni 8.595684384643896 4.9598935706196565 7.352399142658575
Ni 5.9050631944472896 6.7793283753651545 1.975730154020043
Ni 3.582536837827046 7.115683723377964 1.7169640621836995
Ni 7.2752325360257855 3.3080473130237467 8.298203965901322
Ni 5.935582151304585 5.054630130400231 3.8741533723490575
Ni 6.111774262614728 1.8389326130875692 6.964583101316969
Ni 3.7972927761534976 3.8960242032579933 4.321259435918916
Ni 8.325906168716978 5.1567971208212775 5.024788462928842
Ni 4.278291432944032 4.972370596169573 2.2028414296790575
Ni 7.93220498887912 5.847201320503338 2.760113721537513
Ni 8.21746925011094 2.8824622742460524 5.962616101197742
Ni 6.53322556941584 4.462679267533819 1.555404759609586
Ni 5.668788841150823 2.4350918498128977 4.822207485079996
Ni 5.2316671098514655 2.8861376733293373 2.6375763819326172
Ni 7.5127365845208685 3.412837155010364 3.595813107664591
