45
Energy = -199.53531583 eV
Ni 4.967807630522145 9.801493984436075 3.641924416869477
Ni 6.848838765279509 9.414003761455222 5.011185259918758
Ni 6.49352555470754 7.964974318379995 3.086139550060679
Ni 4.683489988975322 10.187713300953888 5.943599138820379
Ni 8.627864177520683 9.02959178099746 6.448094620468752
Ni 6.210284793690155 9.297974332947426 7.432129583296197
Ni 4.064971710419091 7.818077637151983 2.820473364430725
Ni 3.001436566439466 8.902489443199107 4.907497866987239
Ni 8.349643809886865 7.4797351708604385 4.529363718009902
Ni 5.023963081143942 7.885952061665055 5.096436857232557
Ni 6.931471134062497 7.353400056581709 6.470296461683288
Ni 7.959655663304739 8.124347267266524 8.49973686623925
Ni 5.4878976125608405 6.510437715861419 1.5496247211087812
Ni 4.014063164887122 8.172727073255738 7.1786208502831395
Ni 7.631342717052154 5.79414273320356 2.6698407713198336
Ni 9.160273428846907 6.741171161748314 6.722471439442169
Ni 1.9508355258468668 7.272127887379323 3.632315488038529
Ni 5.703462508602847 7.113435589232607 8.521241953336515
Ni 8.827773523899667 5.1097118013628595 4.837766829417622
Ni 3.1757762416063393 5.658993345350284 2.152705446682524
Ni 6.394414718718236 6.016423363276162 4.489938810292677
Ni 3.9318268255853956 5.906874115616275 4.269845984049948
Ni 5.380998135912992 4.54797827606003 2.6618039969696117
Ni 9.446736223491305 4.507735477605965 7.231064514213822
Ni 7.252414900744543 4.980840599133814 6.522433889203312
Ni 5.250626457906965 3.997515652538209 4.982641087654269
Ni 1.6385508000909397 5.112977128723381 4.264866559814109
Ni 4.998475490533757 5.850581868038809 6.516598902473721
Ni 2.5330968524603814 6.756014633397534 5.960582717073751
Ni 7.780974011283548 5.817179426910778 8.614641216057558
Ni 3.434645505483125 5.8347707813772995 8.108623609460428
Ni 7.247287653395313 3.573834219256213 3.903868987202359
Ni 5.592997743970613 4.754408489489841 8.736795657775895
Ni 5.186333256046088 2.265013758681317 3.3786265258856303
Ni 7.706897354003701 3.4627149291272827 8.456040642115257
Ni 3.0396159474179196 4.407558778852564 6.06576840107719
Ni 3.3076218929022163 3.646462082562854 3.6608069860141756
Ni 8.194112192256041 2.905434518501287 6.024492039092937
Ni 5.824172373777518 3.159732641467913 7.016011006829683
Ni 3.891265749505528 2.1972114399002893 5.559124938729987
Ni 3.7642216070747985 3.2996136888296475 7.972464347801057
Ni 6.297471059388021 1.627031742143613 5.326146100662946
Ni 5.713257282242649 2.3650769957705817 9.215872423076307
Ni 7.200861834149517 1.3052353169843869 7.540864543948531
Ni 4.837859588373481 1.0895030866753739 7.383489714886147
