49
Energy = -217.82818018 eV
Ni 8.9839238631646 8.208886649445272 5.0583557876474305
Ni 9.658877384455435 5.965754660957451 5.340309202972802
Ni 9.68433110814871 4.854892306978555 3.235782575760036
Ni 8.222025680389178 10.44789176246855 4.74852572138771
Ni 9.075428468811609 4.770602633810668 7.347422154021818
Ni 8.017432838102756 6.46835222531263 3.6379643809110958
Ni 9.103333593808742 3.607048768018914 5.168821996175031
Ni 8.579123159445693 7.106412273104317 7.129157253559562
Ni 7.380864172515468 8.772513877206498 3.417880466848459
Ni 7.659105676951355 9.323904163320988 6.7108703340001945
Ni 8.096378999017354 6.062288486998551 9.226513326564739
Ni 8.294588647874614 2.481789344218325 7.065157206611973
Ni 8.063024713697732 5.3939874706780655 1.5420804455623287
Ni 7.447202136681618 4.141571779204601 3.4199913781184446
Ni 7.148512351830451 8.23469301631521 8.706135719278635
Ni 7.43223099165405 5.196539869617036 5.72026756282893
Ni 6.570650723010354 7.188366817001335 1.8983244068805598
Ni 5.554878135966674 5.7346865963965845 4.147292618624682
Ni 6.650719434244614 7.4730199302620495 5.47410449868504
Ni 5.944397572140636 9.753178258558535 5.076777044955372
Ni 7.08713671897163 4.000472405958957 8.335932075835261
Ni 6.543109900033845 7.3519250129855225 10.713057542747265
Ni 6.804885642533872 2.806660578734416 5.287216926712479
Ni 6.3521059201856644 6.282357164446134 7.64909898376817
Ni 5.145337736350483 8.062982432884628 3.599097826335644
Ni 5.727083856498118 4.956086069220467 1.8955649187475234
Ni 4.235638903152267 6.797488439047068 1.8941761377380741
Ni 5.940844203910219 5.3159457924923235 9.94423431851909
Ni 5.226016362311235 3.3349811687613338 3.579433244515157
Ni 3.699225450392007 4.447305443999645 5.087270827579544
Ni 5.438348515530548 4.277827086715142 6.5862511910271815
Ni 5.907682833145562 2.111963383389077 7.397003699671877
Ni 3.4732829421963967 4.793463773878628 2.74248025782064
Ni 4.760804332973244 7.351771449157877 9.074233689049354
Ni 5.425392184946605 8.699879951470155 7.163068398828216
Ni 4.320010979727796 6.565702652335628 6.405124641188923
Ni 3.78233445258876 8.685845585870151 5.379927143153565
Ni 3.23563930817773 6.730518187921169 4.093167003608842
Ni 5.1586831617472795 3.1626401916736193 9.39227794968285
Ni 4.423485625916717 2.197149322291802 5.493688092757604
Ni 2.864722625726077 2.7597643801515193 3.6823864794306367
Ni 4.174777807554499 5.0554953849552495 8.447797739039816
Ni 1.590113059693649 5.03839639930818 4.604657214810558
Ni 2.5120647770035376 6.634086158270934 8.442614293776025
Ni 3.612213510206985 2.928161570618799 7.618801520036318
Ni 2.0272642269521564 7.083540220820048 6.086398497709556
Ni 3.1719439285937323 8.614578521464297 7.621984225681237
Ni 2.3049613987502506 4.874945292357661 6.942936908785174
Ni 2.05482536263138 2.8533686032200003 5.853241778808419
