49
Energy = -215.6279126 eV
Ni 8.599750534565258 5.587427219944512 3.6774647172410697
Ni 8.64640934608261 10.315845587278364 4.651151439727784
Ni 8.654924276351949 8.117002129460314 3.5741754869548656
Ni 7.230693968926133 4.9641807659584805 5.706561181830936
Ni 6.570582624782496 6.671363380922897 4.291740335970073
Ni 8.439353425523262 3.3598219567786027 4.605001855090573
Ni 10.629386927108857 6.8048736364492415 4.392237400998298
Ni 10.177408600534367 8.826312605355785 5.548176914831639
Ni 4.823195775968335 7.809562882236844 5.298653465514977
Ni 8.649440972870666 7.012353744955836 5.543056733631128
Ni 6.956416690832005 8.837002263878178 5.148764768693949
Ni 10.793522330555845 6.92396177137115 6.93425023381571
Ni 10.133000334047342 2.6572082892484743 5.9600479536014435
Ni 6.67309069741259 7.174610800860874 6.915410502339946
Ni 9.957299577632895 4.889693416249484 5.558126093447862
Ni 5.020328512524077 5.630503757857322 6.321772062903007
Ni 5.362407756468809 9.603355051814972 6.73756298482725
Ni 9.798459894945 10.898846231671998 6.639225936302228
Ni 7.552816098913681 10.482506617890238 6.79068612242036
Ni 4.391545340551448 7.579684059761113 7.576455953046714
Ni 8.819326959458753 8.202722324122051 7.557680866153966
Ni 8.378123793251744 12.284511919875117 8.190058595925555
Ni 8.314024870017867 3.4085942024421714 7.150793559942363
Ni 8.804395285508052 5.641113020659956 7.433176344711921
Ni 10.923335426716838 9.247163272895776 7.895339923841251
Ni 10.801952464240477 11.655789707256222 8.59149913953475
Ni 6.543538180794782 4.886993551609339 8.027887184834336
Ni 4.300331786027118 9.509347725328684 8.895999531460498
Ni 4.512919371138058 5.647852852854713 8.86146587386996
Ni 3.1122487807082795 7.517881456516095 9.49661482083008
Ni 8.92880777994894 10.20098407572095 8.905755858320319
Ni 9.59951153087994 11.990374316082493 10.576522460026268
Ni 10.167384022631248 6.0533215094805035 9.212197098215482
Ni 7.646943725614069 6.8145304633003105 9.125431518269872
Ni 6.787830296284915 9.015783130492085 8.61734354098412
Ni 10.933366210026751 9.965595777088282 10.250634027859823
Ni 5.979498990633346 11.195775363895212 8.403376679602344
Ni 11.719463292038675 7.749491454838047 9.414081633893536
Ni 8.381450252076661 4.416997585386228 9.411804685541792
Ni 6.404591076220063 5.4541774974563335 10.450684860943225
Ni 9.497445965234283 8.121601777436764 10.027231523684932
Ni 5.382093115556187 7.557235741129011 9.89982206090742
Ni 7.367883647521612 11.507125570212946 10.204555194585051
Ni 7.329338592112337 8.005487282892696 11.172911286913669
Ni 8.722441419363454 6.071877891890586 11.11235633129754
Ni 8.775514183157163 9.896279282316677 11.393919776639652
Ni 5.796366515670438 9.881289021339338 10.640773046756111
Ni 7.9481026546278395 11.905015383589914 12.348370233642628
Ni 6.8519615923867 9.839196138390117 12.651415664064432
