43
Energy = -189.56761529 eV
Ni 2.2647332254840427 6.4562861313838456 4.77186498308334
Ni 3.5474139199552766 8.199089690935425 5.923751267805729
Ni 3.1405393963586263 8.454288216252845 3.5780244619191324
Ni 2.3726648726609803 6.848334657656203 7.6744276802292
Ni 5.471282057390413 9.52057900677704 6.762357921750274
Ni 3.1651597166081054 6.352024922555576 2.4449523854337447
Ni 3.9236865831078003 5.777044715726001 6.437134392636989
Ni 4.585748330870452 7.713176391397173 8.029486338622862
Ni 2.181702943660415 4.291102474428502 5.773553433192914
Ni 3.707974517325768 4.560063249369979 3.9515533906889306
Ni 2.3798287380716108 4.513032514860728 8.072212310744026
Ni 5.875736369910319 7.347482272757432 6.022495842957486
Ni 4.131864702009568 5.561227930090068 9.021110294160957
Ni 5.390025459467335 9.042128386764093 4.390649687446949
Ni 4.5848542924662965 6.726756872479836 4.255018145866363
Ni 7.115440386452359 8.065609239457729 7.865297800373355
Ni 2.541586123318379 2.4089561497022514 7.213411974053382
Ni 5.141754043970593 7.848024302169377 2.3196595806788127
Ni 6.108153960411689 5.892444073155928 7.829508434377932
Ni 5.407974997728836 5.335717041380693 2.504166039874654
Ni 7.51433402151003 8.91927603863597 5.608167797233381
Ni 4.069608574274168 2.8203825465664862 5.416649598924266
Ni 5.899430539252252 4.913315016832707 5.392987975442178
Ni 7.948417616240825 6.099010105209664 6.11351851754086
Ni 4.957686437711087 3.790517595206344 7.361927121870324
Ni 7.422722158332411 8.63437672561915 3.1013900314192475
Ni 7.0227810262060855 6.7285367733167645 1.525748916433155
Ni 9.294158401702258 7.7152177358100005 6.983337737595251
Ni 4.566043243152964 1.354734475560501 7.299099629656317
Ni 7.031586442129636 6.59124718392927 3.9498326148821126
Ni 5.875374206069811 3.30884138870569 3.776328399209936
Ni 8.375491327751574 5.967322747425088 8.429803122813455
Ni 6.322210510223761 2.373164303295485 6.016944548885756
Ni 3.95565917250695 2.988979058519137 9.187306899605247
Ni 7.5011748959944775 3.9423562944828454 7.455883884933727
Ni 6.12238512073466 4.271519860912229 9.47545073215681
Ni 9.177429775639023 7.7076634340910495 4.612381180357468
Ni 9.077841488148586 6.728566836124452 2.530992318983479
Ni 6.318450642559034 2.1678174390615763 8.503693243199377
Ni 9.615301567606965 4.676676928702884 6.703932649755531
Ni 7.966029244192887 3.757326405019458 5.066680346186518
Ni 7.70310026367356 4.695532792159499 2.8663363903470525
Ni 9.49902329511075 5.385260105793198 4.416100031473983
