45
Energy = -199.46536056 eV
Ni 7.4433772219221925 8.033085016130483 8.726056509419642
Ni 8.404474640586555 5.922225313332787 8.122688174984626
Ni 7.295479064543532 6.111598597771061 10.244671498895604
Ni 9.254059194619195 6.4579536857500335 5.94758261290808
Ni 5.655860880878487 7.726781821899516 10.342090626853897
Ni 8.594202906980401 3.478808468602846 7.9460929828182225
Ni 8.786081259164416 8.66602638391709 6.678711603997312
Ni 6.764907095600574 9.764013356161477 7.323480189650047
Ni 9.547096922764325 4.182308486527347 5.782906726174611
Ni 5.036361628606078 8.445430179660558 8.217492602943816
Ni 6.971689426934561 7.284129487342293 6.409161067222812
Ni 5.8970834483296475 6.22148696289136 8.277217121842074
Ni 6.646005424812123 4.21035378187166 9.059805183346421
Ni 8.076357977937066 2.351116614606105 5.950580039223123
Ni 4.799828151522946 5.4569921092145135 10.123408092820263
Ni 9.649276862347843 5.506739217902098 3.7334123675763022
Ni 9.004306995349886 8.125238267605072 4.240625241206191
Ni 6.323867267691952 2.5143744687899834 7.527899275966613
Ni 3.436097212964448 7.4892249181672605 9.576507716541412
Ni 7.30657692463698 4.739661637131755 6.438384563903762
Ni 7.118132086454648 9.348895407800269 5.061293346543018
Ni 4.795542524268026 9.216446154529997 6.059360686258784
Ni 8.464912155577572 6.962046392109018 2.1370770691545706
Ni 4.3346865632048255 3.445684629485866 8.81245003104309
Ni 2.8590944879146405 7.945696107062828 7.176209574553427
Ni 7.602148036533149 6.328455768302845 4.2120333566418795
Ni 4.171446229002205 2.156052418195451 6.607811347320705
Ni 7.798583710423881 3.8814796625896775 4.165852477436313
Ni 6.90798504370143 8.574433523431889 2.7867579826311673
Ni 4.940558466851099 4.409962944442854 6.870129859027369
Ni 5.9190016582752945 2.8872789040025397 5.1623479465174835
Ni 5.562902811865437 7.627678403622561 4.391601530564743
Ni 5.094789433804932 9.842277668130208 3.8116025855007756
Ni 3.3561665970121175 5.703102801538311 8.166766048480063
Ni 7.7620358349203995 4.75224619410553 2.093403589900918
Ni 5.648134419010071 5.281210337887568 4.818824407374264
Ni 4.631507216353936 6.801320910978004 6.383146757624247
Ni 6.025932264972387 6.267926695381888 2.384822248642005
Ni 2.6193762832291205 3.8292176432922496 6.975492364306412
Ni 5.507661619302281 3.9792628606843023 2.9670477843685816
Ni 3.2318026174732513 7.967133686412207 4.687397301137505
Ni 3.739936547025642 3.8257772614085086 4.785533113472956
Ni 4.422637070151129 8.02802331351785 2.454073863779886
Ni 2.6918675592460053 5.833493128946172 5.69486942272385
Ni 3.851799715971248 5.9055317045498725 3.515334261861127
