43
Energy = -189.26672312 eV
Ni 3.4628798583807727 3.385301793752937 9.242634322110474
Ni 5.3884277007939385 4.602599256901524 8.627307975413839
Ni 5.588624131408404 2.2892636373444613 8.972621745204417
Ni 3.173885913621757 5.51961743706857 8.182329650314834
Ni 4.430421927016878 3.0495394335203345 7.101350354726362
Ni 2.1513688286468766 3.612988399376937 7.291125670408655
Ni 7.344927066317147 5.945082892305851 8.501905042582633
Ni 5.123506343563915 6.934810455874382 8.267871496815253
Ni 6.673098441896348 2.1938921555657815 6.78265448534978
Ni 7.5475624669452195 3.5096805293105287 8.612143134160677
Ni 9.248992537801193 7.269392777094856 8.316614067005837
Ni 4.551979117990137 5.450418287044109 6.290406247816963
Ni 7.098013610929462 8.327458271341706 8.249603910722403
Ni 3.2687507766303185 7.508164455302328 6.846133554127739
Ni 9.447424380842 4.854350256577893 8.402402623099341
Ni 7.699252412409788 2.403688229612981 4.620518585305287
Ni 2.1579860975347467 5.581174964112937 5.954656372476663
Ni 6.754629093647497 4.53710690438395 6.53922659894147
Ni 3.140103984603236 3.5568124252946474 5.1706144722041305
Ni 5.46079751539888 3.2223847185747974 4.960106266331591
Ni 8.791431675820599 3.4027865176604326 6.567240161724617
Ni 3.585450496229412 5.528746137346657 3.974616620032409
Ni 6.608105273810619 6.967971488218886 6.35488697591867
Ni 8.852871858727797 5.917251167274776 6.429234713541147
Ni 5.198886301523397 8.947128108683497 6.903378945475197
Ni 4.178661576248488 3.4871272768030654 3.0180240711853656
Ni 8.291224550442296 4.615641358095554 4.566284178066973
Ni 4.724744301449441 7.570200442171491 4.883052165238011
Ni 7.216781651628711 10.18201581323658 6.796081065808421
Ni 3.398021138863998 9.451697955145786 5.415546849462864
Ni 6.0460436954265 5.56060598016347 4.366676776905945
Ni 8.566469990918446 8.311811595414374 6.29438496727061
Ni 6.508991062524167 3.6106174972862015 2.8768104348839856
Ni 2.3687711251365706 7.49817532386992 4.578121982333086
Ni 8.773359902102646 3.4599647184084654 2.6534358742182946
Ni 5.368342831727206 10.75666732706418 5.394555970627209
Ni 8.061789422187449 6.991171286955712 4.378145035783984
Ni 6.7830661513124015 8.969021856570022 4.81377845514722
Ni 3.8518936214813615 7.46891954513316 2.641873774338067
Ni 7.640992235191749 5.617161552689243 2.462362411711538
Ni 5.172595068629317 5.5265475475945305 2.176951005570983
Ni 4.851921629541569 9.448209132844175 3.4878153072211604
Ni 6.2495228845677895 7.546404860392368 2.909383282653342
