46
Energy = -202.94126303 eV
Ni 1.3597287824556579 6.203515851934148 8.016293777167265
Ni 8.72451172496534 5.198600349246042 3.5634493677184005
Ni 4.3079128955640975 2.8025058778171994 4.008546804063691
Ni 1.601622552847315 3.9215384996166494 6.984236719097407
Ni 4.592793850354752 7.432524035675946 2.918423790523004
Ni 3.315263189556229 5.546044095445461 6.953067290612996
Ni 6.171302477249916 8.68831485651644 4.183453685849682
Ni 6.2359806798429185 3.7803671254816384 7.580884872891188
Ni 6.425814826397459 1.635830501327171 3.975974386621761
Ni 3.916150419750815 3.3347274277311523 7.5831967777712155
Ni 3.8113769867871055 8.903926881372358 4.684737479608104
Ni 1.0698215630169632 5.840052032077626 5.684442475768552
Ni 8.473414216630712 6.381228514470747 7.571900792258293
Ni 4.700275483359376 6.916608247075377 5.442987901594841
Ni 7.252132504555827 1.7722049488415486 1.8094482365635065
Ni 7.5321178177691195 5.1169929842655915 5.760361572853109
Ni 3.50843787524778 9.596246730413904 6.953861852770924
Ni 6.58701726484235 3.9266694285073074 3.8454972879179135
Ni 7.508431120131828 7.571798299724436 5.777202686509974
Ni 6.0021065638077316 5.694597786414741 1.7084007175415679
Ni 7.155847991661278 5.226833223302514 9.152202954451258
Ni 4.189826877463065 7.55074377300293 7.977547770751467
Ni 6.094963835300126 6.321945120607523 7.317855269445349
Ni 8.297268740318684 6.3027129394446675 1.5588106946554086
Ni 5.442800085859887 3.3004921923033326 1.9760041609504988
Ni 5.103403200249122 4.546827653107699 5.626145566724042
Ni 2.724092472905565 6.674916230574265 4.164225136812169
Ni 7.747110361418295 4.028389079689712 1.7261021026511607
Ni 2.879096876520159 2.2394194243617296 5.815532785918697
Ni 2.0986667477067926 8.429860013676741 8.488675590558874
Ni 8.586553438548002 4.030476831848703 7.58221702056768
Ni 4.725646820363168 5.226056226874221 8.901456812540086
Ni 5.28736936407163 2.158521251808683 6.044101406927858
Ni 8.41511079927609 7.60878549597725 3.5888326950068916
Ni 6.5175462252822065 6.3018268642929955 3.903257056197009
Ni 2.489850279795992 4.4234608684034225 9.119025515017624
Ni 4.396228686456579 5.097605639644771 3.333509566888446
Ni 6.6966044116784005 7.9619807347109575 1.9645008672475666
Ni 7.563435858550915 2.715818946132372 5.807985619843122
Ni 9.532718615755817 6.4142638998083505 5.44101285954801
Ni 2.7479813154127304 4.384749409259371 4.8952151889670565
Ni 2.3790736197851614 7.688117542903557 6.2693392654990365
Ni 5.655063546732687 8.745134191799211 6.537326017208383
Ni 8.583372308795237 2.7250565014929076 3.594416497185698
Ni 2.953064279261617 6.599951857085886 9.731533461076678
Ni 9.570890300258192 3.961559468493149 5.406599496217573
