43
Energy = -190.51612114 eV
Ni 8.337202246907841 7.587062830029912 4.782614345227577
Ni 8.526083443855839 8.82742068282812 6.697855919299511
Ni 8.815683591175818 5.339219228123275 4.488509539146768
Ni 10.079709279397415 4.120305999832707 6.040974467066867
Ni 7.035590272472972 8.7683379343619 3.149845070839702
Ni 9.309958509667434 6.39807109613449 6.813589222249613
Ni 7.428070646524686 6.455694564461287 2.912472407475614
Ni 8.114926934690558 7.658176418050236 8.644589402669059
Ni 6.494034834992624 9.085509793673259 5.384064510932149
Ni 6.97151504995264 6.857932943228429 6.602360964095693
Ni 7.5965022399508255 4.129604741280066 2.7640158286680525
Ni 8.236598589095307 3.0279134716767127 4.721227330695185
Ni 6.38343510454307 4.831154355608528 4.82333918821647
Ni 6.3633276311726545 8.993367159578863 7.69868185576957
Ni 4.653573770934341 8.973988818970716 3.783681788522595
Ni 8.75313655049914 2.3536145850007335 6.973884418775016
Ni 5.679587038794648 7.061170634075218 4.482098164689036
Ni 9.410447467701463 4.235857326196699 8.330274371591086
Ni 7.871352164005635 4.535767067708774 6.590590018502304
Ni 5.486158586132678 7.458255252285643 1.9928957474483782
Ni 5.432813244563429 5.10922797976738 2.677421185973006
Ni 7.456275836245222 5.452241528995218 8.744931154187267
Ni 4.336603672841961 9.518052357008818 6.24513844101249
Ni 5.542342708457566 4.9369330253138966 7.102881711052416
Ni 5.722529222966664 2.9392913580531217 3.7613517556347875
Ni 3.6623590836159883 6.640124160274299 3.122094005859135
Ni 4.615132152987441 7.2995206054234645 6.8238338133655105
Ni 5.778473316086509 7.005988126938502 8.906739793328306
Ni 7.067655873318266 3.2020266315588555 8.459991910232436
Ni 3.975881504490063 5.51558028607145 5.326800499108913
Ni 3.034379301201015 7.81733641894586 5.093540133569266
Ni 4.265101411216246 8.842458312979838 8.687505917738571
Ni 6.45282145574065 2.6177949079831433 6.181590326361428
Ni 4.272540581554558 3.187169379128394 5.669771560412132
Ni 1.8217024987511086 5.866046662929789 4.3041935380549345
Ni 5.158052073509935 4.692753417446952 9.331571608243289
Ni 3.3305945443547076 4.3805200223437515 7.67559382305943
Ni 2.474872401005815 8.33730150582687 7.348388052909234
Ni 3.477517708378068 4.127516095793219 3.5804100633986784
Ni 4.855502015798595 2.663102611633669 7.948723011178792
Ni 3.46983280482252 6.499706499481191 8.706434954584166
Ni 2.1245893506519398 6.151284019439978 6.674022843298704
Ni 2.079820409650395 3.985565367678008 5.664166106943104
