42
Energy = -184.64883754 eV
Ni 5.827460299766443 5.12718409861453 1.087800359494547
Ni 3.424439700635862 5.943211904368756 1.1212883331212502
Ni 2.435755053776973 1.918395766961918 0.49812505475936464
Ni 4.091411390374138 3.575218930426949 1.1029816411866031
Ni 1.6177126930664218 4.101983935364564 1.3245057074664008
Ni 5.285815935324753 7.116004093522486 2.202672915529514
Ni 6.336209736711295 2.9204176950659555 1.9043897744887779
Ni 7.695551414989378 4.7123574718038235 2.740431044848164
Ni 4.4314130084866 1.2363631980703864 1.7619627418149917
Ni 5.47955838374951 5.0961170837981395 3.3834672740066227
Ni 1.21274862996249 5.951939522758204 2.808724868899389
Ni 0.47936480631629463 1.97161142482342 2.042660190940424
Ni 3.1843118232721492 4.760832009222453 3.039464119998232
Ni 2.2092109187721145 0.2610338897931503 2.369548720876627
Ni 3.1938314777417447 7.10736357995891 3.2772456126643337
Ni 2.5731932291682 2.4620771261394476 2.7086026952320648
Ni 4.718192496608181 2.8420335645694794 3.516083691636429
Ni 0.7458910808036483 3.7611153856164403 3.6591554240357187
Ni 6.148449569388589 1.0114706834391316 3.4176883137960896
Ni 6.961909100256405 3.1440934971723173 4.367114487918575
Ni 7.21309865218466 6.816998310134915 3.671046318091958
Ni 1.4146536042547326 1.4043355194080163 4.439288622378208
Ni 5.1444551292006695 7.645636128496589 4.528516720148227
Ni 3.7766614432175696 0.7765133923579401 4.139365099395148
Ni 3.8084408425401883 5.694619373639139 5.20616471354051
Ni 5.538579376169825 1.4924359383787624 5.667499400464349
Ni 4.928077602688325 3.683957789504797 5.682510081457293
Ni 2.908567518031219 7.786692774029346 5.535748878712048
Ni 6.182506263258358 5.693529629881517 5.544626607681785
Ni 1.515426071371325 5.443332123407904 5.2585160060137595
Ni 8.265741107484848 5.0258097967660635 5.093808433281501
Ni 7.179062036327421 7.707851724375851 5.881314733474754
Ni 2.7631606714476185 3.3938227418307934 4.875325392043466
Ni 0.8684669696389988 3.096207508074201 6.063654700232707
Ni 6.934650641175821 3.692265616197903 6.804020717329129
Ni 3.132539338132606 1.6485507128756631 6.302274887578524
Ni 4.958088392461057 7.305917603589736 6.877621333815207
Ni 4.859372276590194 2.6239611752060314 7.7155981378438465
Ni 2.849138936528439 6.271813653946052 7.311768645829636
Ni 4.944193064741392 5.048023980030597 7.612670578651719
Ni 7.1389428204616605 6.007269060051669 7.568249702917467
Ni 2.86098077774588 3.956864871152593 7.123731601229187
