42
Energy = -184.21720436 eV
Ni 9.755034089529598 9.844467933972748 4.83478786178094
Ni 7.74420714147474 8.97626921092746 3.9450689505653576
Ni 8.57122698157024 5.196858597527489 5.053968363192527
Ni 7.017516530646358 7.022670845762963 5.089554602743516
Ni 9.39306857094132 7.394761590076007 4.699424297477705
Ni 7.567522427180102 10.8987645005974 5.371274451073104
Ni 4.680787351495166 7.07521846560504 6.317189935057463
Ni 5.521041182317141 11.280462081710661 6.479712142740684
Ni 9.58352160699271 11.849741237062748 6.112414886249339
Ni 10.648624845238924 8.26783336290988 6.4808829484707
Ni 6.576480241514565 5.2379432902469 6.5580921877630045
Ni 10.70701460256566 5.673873370298418 6.52298515558578
Ni 8.684066705949927 4.179430057111429 7.113356306585238
Ni 8.236932514136516 8.901428209071463 6.333359615207488
Ni 5.939159285555268 9.07497044445489 5.541903686227576
Ni 6.554475194279476 9.804739158089523 7.883051398350215
Ni 8.764508701481734 6.644809623573943 6.914594526749794
Ni 6.601333624692488 7.456806920750371 7.4437655834734695
Ni 3.981507927370404 9.461292144430043 6.65450424897033
Ni 4.662583110259988 8.314981615153808 8.538319138629328
Ni 11.80411095193601 9.242625498506243 8.292949904403411
Ni 4.5619830920616256 10.7041829769868 8.61866028632618
Ni 7.777013393092733 11.770089774979898 7.608815476013738
Ni 8.772838114915073 2.9237621395868043 9.06371921419971
Ni 10.685757135468734 7.175754182345286 8.520984864147932
Ni 11.481081138973765 10.494459582932576 6.313514570774072
Ni 5.178869843970793 5.827963507008138 8.40079815932357
Ni 7.728960136823394 5.768149590203059 8.856206363046828
Ni 8.393199413763023 8.258941908675707 8.705239720215026
Ni 6.663844440730318 3.774344253033718 8.46917971226181
Ni 9.692348224269846 10.225350154579209 7.821584100676486
Ni 10.006235980254093 5.002707210901876 8.836988712610193
Ni 6.296376204582744 7.311180681285023 9.977580152868269
Ni 5.962455835387167 9.614337132507812 10.215252575371764
Ni 10.136504312304526 9.047265263067509 9.991632777480419
Ni 7.4414513018820125 6.404057242217671 11.81083688744208
Ni 8.491667024708908 4.569328598425777 10.68271540685189
Ni 8.01633109874126 8.664705180905562 11.141511261231607
Ni 8.133970692399558 10.46833254783602 9.598485024813547
Ni 5.919234650427577 8.223299145771685 12.10094508525093
Ni 9.339455346438681 6.785567962665144 10.434634496956361
Ni 6.123659185525766 4.984232960095902 10.447515114690365
