42
Energy = -184.39261928 eV
Ni 3.0354013612053716 7.470950834922251 9.248607282291829
Ni 4.522036779392352 5.857556653938883 10.14794551723768
Ni 3.7126090272131744 9.021190421043158 7.58321054562901
Ni 2.106203198950321 7.271438737483849 7.084559998420199
Ni 5.27389610985072 7.435255362947487 8.539837512151983
Ni 6.7607027122690635 5.742914017903675 9.399701651655409
Ni 3.563024961958857 5.5361047015594504 8.00650364674109
Ni 5.164410139634586 3.960555728331185 8.875403042136123
Ni 2.8900171076206504 8.809148327064602 5.379021569993955
Ni 1.406576591344499 7.026930779142004 4.835402755110582
Ni 7.5255776961568195 7.256732900567276 7.694569307384664
Ni 5.964369146142516 8.924236727072053 6.777076190252256
Ni 4.331589695665387 7.161529508040421 6.2800459515525535
Ni 7.435712832158151 3.4715148018059794 9.321457269478376
Ni 2.73475050427984 5.3264868850789275 5.759329511842004
Ni 5.916549374215612 5.470412986049924 7.19531689176171
Ni 4.309412876439233 3.7013705871032534 6.63767244334458
Ni 5.130163036485571 8.657884842556811 4.505835782799341
Ni 6.704191112359854 10.31118998452622 5.02419168777544
Ni 3.5534305263119492 6.951019489493836 3.944900221851586
Ni 8.303218752611517 4.978353763948248 7.713245555254891
Ni 8.860685127773621 2.68776435929259 7.5924008353312
Ni 5.062904842318771 5.241867285044859 4.911239887857246
Ni 6.590291545821237 3.0970352140629434 7.134631073216625
Ni 9.037812920370481 6.460026663488182 5.972557259932416
Ni 7.435051930888633 4.639442787316699 5.405462594855668
Ni 8.21278449954967 8.742319850154088 5.930518648464235
Ni 3.528485541893689 3.5035738817066786 4.36672870264831
Ni 2.0516275135608675 5.161677203171101 3.4975747695434745
Ni 6.675389437309366 6.9880531457851545 5.4340845815868155
Ni 4.256362907502737 5.0202165121545645 2.654973270197508
Ni 5.806211195673373 2.8922215767945207 4.858424678219847
Ni 7.389344696799733 8.484116873342462 3.693344699440507
Ni 5.820644703500843 6.768626687659782 3.1274441799340416
Ni 9.691334186361091 4.1098592673509255 5.899259417837705
Ni 10.295221906042066 5.614685597050026 4.17724513171027
Ni 8.083020619463339 2.3707647850118265 5.372789042826859
Ni 6.542664136128235 4.443699179046499 3.1219789668889306
Ni 4.981955877494934 2.770110575104131 2.659830206970205
Ni 8.803329845178748 3.8271272541008923 3.6575689689395694
Ni 9.62636014790072 7.911568758037032 4.196582991129961
Ni 8.117845410951086 6.173986956601247 3.593502214689397
