49
Energy = -217.67369909 eV
Ni 7.502446819472027 9.556844899832848 8.649773478980002
Ni 9.470167128986128 8.971945286119444 7.624822997922104
Ni 5.430365719964176 9.514812960309904 7.574575592504982
Ni 5.9959033485428765 7.848684617604969 9.354723556202343
Ni 8.251861616221317 7.241242084271457 8.85039104219738
Ni 7.670832342839461 9.880452487880557 6.121220361921716
Ni 8.956081482161757 4.925825662511565 8.708545002635121
Ni 5.465583458059017 8.893265256292668 5.239599567836491
Ni 7.014609950567007 7.938279725479107 6.95351875301221
Ni 3.4004737033104595 9.157656482730621 6.460318786373647
Ni 10.19903577061151 6.7347132326211545 7.5879911456568845
Ni 6.7963920046472905 5.4566742826944274 9.626063487668866
Ni 3.913891853998342 7.738186959038821 8.214015532236603
Ni 4.4531109706711245 6.097221527041416 9.827354743268952
Ni 8.057898132967088 5.793271943341011 6.726657604747238
Ni 6.997553864457964 3.850083948463171 7.811788183855342
Ni 9.063675071309737 7.772862226241157 5.701536125581766
Ni 3.3681580873229127 9.31868974948483 4.147974912978338
Ni 6.3772947458937885 6.5465531697893695 5.1124416178360885
Ni 5.753506561892424 6.142132346670548 7.721393285623623
Ni 4.168793111629334 6.858151935336438 5.902557640170336
Ni 1.355963662897756 9.211976660393972 5.398571829442599
Ni 10.978106206090377 4.547896422777154 7.533766998856943
Ni 1.981522914108008 7.2691343343208015 6.8044838456841426
Ni 7.472664785968565 8.419556296672265 4.141673280564136
Ni 9.07175798916622 3.614975541765384 6.595211766435134
Ni 10.105616068121568 5.497014443940049 5.54952554823744
Ni 4.852162298302073 4.0268654241494755 8.805452802301799
Ni 3.2661401300450152 5.467190710928834 7.7845320334659345
Ni 2.2531399047884237 7.302559572444728 4.455052470959834
Ni 4.970630178316956 4.458192001482565 6.40866150097959
Ni 8.440825894858223 6.126240255354728 4.040245099582972
Ni 7.011448589412439 4.200395207703364 5.240997318861869
Ni 4.527749128526429 7.3560792007156435 3.52577132182427
Ni 2.5176628264292433 5.181375298961312 5.5488026053995405
Ni 6.608998397434743 6.783450603270626 2.682712837672174
Ni 4.834647240516349 4.974595475625008 4.146107151057217
Ni 7.334065541833146 2.0672990715926236 6.142164073799415
Ni 5.336476915858167 2.2022368406956487 7.409397421816503
Ni 3.2105387269067944 3.0951585448718695 6.598626123421747
Ni 5.13826369848682 2.469203756592865 5.100307885140291
Ni 9.018450640358827 3.812011378518795 4.169861024054866
Ni 2.836000296238847 5.548635653323937 3.117316019864889
Ni 7.042252443786108 4.502439342962489 2.8839469222743106
Ni 3.1147391890555145 3.357275008888811 4.17010839899665
Ni 4.8919157975708005 5.370831215813054 1.8816724546819792
Ni 7.143000849578198 2.29400895135051 3.7763904959691197
Ni 5.145951300870815 3.0618214006002664 2.7867948057752985
Ni 3.1647299294950737 3.6684949290863074 1.8091816812824937
