47
Energy = -206.93014085 eV
Ni 2.7509341849959257 1.9947390357740615 10.105898460880596
Ni 5.227429543214595 2.3920778787400074 0.21391492402502382
Ni 5.7736485372527815 4.66858678587894 0.2604287155956831
Ni 4.250062645255114 0.21973566411846845 0.5738615655496603
Ni 3.545576384186154 4.116831921661735 0.7686193390038754
Ni 7.344361581939219 3.2049911908896576 1.4822691346970178
Ni 4.276206934035883 6.453048373578702 1.0130516934725178
Ni 6.485298646073638 5.8137599981858505 2.1237385535479647
Ni 2.0271748552346334 0.38116482610473895 1.6528128994079487
Ni 3.629170993841795 2.026528997866498 1.9374815307957485
Ni 5.958655963109525 1.1184091336818258 2.1058467809892156
Ni 1.5542084823405242 2.9794433221373797 1.804321074385417
Ni 5.377154032215905 3.5666476378112573 2.441125252331372
Ni 2.1150192559530137 5.428864872578867 2.008326920728845
Ni 7.458669740661693 4.345405759488536 3.6440883142428286
Ni 4.280051251637468 5.538239122650496 3.041463351840583
Ni 5.314767707719433 7.695578694008416 3.025214602602509
Ni 4.0422110632592645 10.02169766326234 2.91824619978444
Ni 2.9260505344740544 3.718093490399205 3.6614851521227245
Ni 6.924322508790852 2.1854071908799555 4.062783462264684
Ni 2.895698572108967 7.510195652558164 2.9493027035864965
Ni 2.112695240561926 1.4979046595649985 3.7925540545134795
Ni 4.61980763927809 1.8418920614243068 3.983593636925228
Ni 1.8724773322099708 5.828359078913405 4.332456247389028
Ni 2.0978568432421163 7.9416358158146325 5.423080983913135
Ni 2.0106233374083926 9.437926926392128 3.7900885394420825
Ni 1.2764884650108652 3.8090069744761297 5.45391669241643
Ni 1.6572411988527007 8.16638086905079 7.688774305960287
Ni 5.952623153427973 10.240071507344682 4.336721468383349
Ni 3.9529197420599096 9.109069957951945 4.381655838098732
Ni 5.176988575154989 4.044944390339506 4.810458761825442
Ni 5.666664190081166 1.7178822444525736 6.069402853874074
Ni 6.394909316582448 6.1873941839581414 4.595129901512646
Ni 3.1776506818378416 2.437367610707423 5.722600936394744
Ni 1.5084459499422453 5.945016441372974 6.797899734535514
Ni 7.030884348252152 3.8998635548349205 6.023736587483261
Ni 3.826942161856758 1.3089847144032531 7.573299800272743
Ni 4.081683753132372 6.79024900540201 4.956562030885266
Ni 3.6771907659150673 0.1465049918485452 5.345723795851437
Ni 3.31703368978287 4.82839825364106 6.00877357373105
Ni 3.498237463703763 9.43792692639213 6.633173743180175
Ni 4.823449950532616 3.485595796113243 7.329334523728398
Ni 5.562139532633326 8.156533395842134 5.945277443304156
Ni 5.462919778196914 5.707891221992311 6.719577486230829
Ni 2.348184055016156 3.379668953205355 7.682960868549339
Ni 3.7065785582871054 7.243535272027801 7.238743695846342
Ni 3.5368595173959316 5.267326394363896 8.31992710769796
