40
Energy = -174.89685155 eV
Ni 6.853963061718712 4.874863397094508 1.0465456912122728
Ni 3.4858210432935026 2.7657447218801225 1.2660471342365736
Ni 2.225639954773703 4.750470187305201 1.735221234978462
Ni 8.037917616706093 3.2563198486407408 2.173695908521543
Ni 5.748569417697595 2.7830555315648184 1.6828334276285422
Ni 3.688194345656448 7.045619048151317 2.1435317308948663
Ni 1.3370738226010679 6.705455457873185 2.812496268600813
Ni 4.5712203175818065 4.909345690351724 1.6831269349285787
Ni 6.129054226950864 6.7238421272952875 2.263807916375467
Ni 1.983778281157917 2.6081812709778345 2.9711036244113176
Ni 0.30522476557845946 2.39503747965206 4.585960831555254
Ni 8.177870535154671 5.65699914959358 2.9880843949563927
Ni 4.25908176868271 1.202572283536517 3.1677933266238436
Ni 3.1330268368160303 5.488230744056553 3.7504115408278422
Ni 8.493885629958333 3.668871785419526 4.379776329893957
Ni 2.6145342141638483 1.5899088778143815 5.036277333715852
Ni 6.557762681739636 2.177324668498821 3.8064853826482015
Ni 6.222635531316478 4.47780332337719 3.3811555390016177
Ni 7.255737433532845 7.480236844187419 4.362174735507603
Ni 5.076191077620346 6.629391439838337 4.301957645177255
Ni 2.883626646308318 7.775898066111105 4.2917415081513415
Ni 2.2582739842014554 3.879967935860439 5.162685835891886
Ni 1.2283533301839538 6.179951809298978 5.170773840440943
Ni 1.0859353087654184 2.537812745809981 6.786551046849936
Ni 8.83223923042702 4.368559351538243 5.853124750550225
Ni 4.899405686745081 1.963843404514608 5.475937227275745
Ni 5.65031025800913 6.7408921651484 6.58771943072056
Ni 8.83223923042702 4.507607944448671 6.6036777345758315
Ni 4.147402070518716 3.367682473026464 3.5790223494055997
Ni 7.162999134696875 5.416741310555992 5.265695539726653
Ni 0.650066873446559 4.519065994527417 3.527068420316052
Ni 8.004055517832933 6.81288577594732 6.852520905006652
Ni 6.949176352808371 3.11796688656293 5.972799065158369
Ni 4.841359153275889 4.427241629515853 5.606210734098809
Ni 3.3932393728849575 6.310923878106156 6.06993695645057
Ni 3.3318991174648325 2.9370905330177686 7.045812345135311
Ni 1.8654551729863034 4.882581098855696 7.2152096166940805
Ni 4.280145106113957 5.00913033658407 7.82626064670252
Ni 6.701721542889808 4.899267072638072 7.579646396139448
Ni 5.490779329069117 2.8953300531430175 7.728833061334205
