43
Energy = -188.79998206 eV
Ni 7.389252409619791 3.1664336177831447 8.80893374615279
Ni 7.445065575628265 1.040073036093108 7.872837323061222
Ni 9.116755598905774 4.59229788509348 8.043327267339114
Ni 7.041080861856927 5.535728935120515 8.752404528468558
Ni 8.58928181155916 6.866074761948973 7.571138637452211
Ni 5.208381725962633 4.098018594558817 9.331550402064378
Ni 8.401990238075244 2.8112129329447546 6.576640031654265
Ni 6.611569889537574 7.945388363005019 8.463426619088656
Ni 8.112107177839647 9.058719400320221 6.9451129265954705
Ni 6.0683042348680365 3.9880168576142605 7.100257835153532
Ni 5.0797641130397775 6.487797587202408 9.56446018455372
Ni 6.344599735426783 1.746634194664847 6.0011727500573535
Ni 7.94322122085617 5.086912883804521 6.1021365356958865
Ni 3.2836415603542686 3.3391112758060424 8.081262827412752
Ni 7.334569454843112 3.242350220113004 4.436902599237994
Ni 9.479136221920351 4.028428016090532 4.830461942759963
Ni 8.140181506224266 7.339122476045449 5.299855942944174
Ni 6.1489001929939295 6.503020540524569 6.684856385049925
Ni 4.116148258789945 5.458769347977316 7.6665418958197105
Ni 5.84922044415746 8.856889309836454 6.348404678419445
Ni 5.279421401470435 2.0165711116470337 8.129985882036632
Ni 4.257656082103976 2.9359133693256942 6.030949116638839
Ni 5.238850237263618 2.241432103119229 4.0105514901107995
Ni 7.450557905846291 9.509014726392923 4.696964406240579
Ni 5.6659319924503935 4.876614914333324 4.911384482519133
Ni 7.752995168077539 5.528767867126341 3.739328071275393
Ni 7.741839378489215 7.863168227954714 2.954713126278051
Ni 4.290524374734135 7.7935153757915385 7.7525825427877795
Ni 5.945581948395916 7.310824895416287 4.3165021843890905
Ni 5.850097184783556 4.107580747769629 2.71976607269943
Ni 3.5052427481343713 8.867319461623808 5.820770769955697
Ni 2.609328923363595 4.622389720445079 6.069491895638232
Ni 4.0208878115953475 6.546124146430306 5.458526386160293
Ni 3.6592709560397005 4.036800941879974 4.009897069807511
Ni 5.136102674214324 9.580758538008293 4.189453799259477
Ni 6.769343630588809 9.971049815223507 2.528043636255242
Ni 6.485741860087265 6.176248273842356 1.8739109672208272
Ni 4.395278076484415 6.024448316416909 2.958193266390126
Ni 2.230092719168329 6.897562309090973 6.811538182306154
Ni 1.460263213631047 8.063291517688551 4.940441281415747
Ni 2.228863695848688 5.988523737221743 4.130403763384223
Ni 5.311694437667346 8.169583855040841 2.223275093808348
Ni 3.3849925615298075 8.055227006090961 3.615372668867716
