47
Energy = -206.92641871 eV
Ni 8.670936591738297 7.475943410145703 9.54042456131189
Ni 6.5917204667285425 6.228118341100892 10.181270821441867
Ni 8.235748455333226 9.285063144961823 8.035899494646873
Ni 4.447338169015022 6.855321186306954 9.244516370850224
Ni 8.050643908603227 5.508280074784858 8.493638492347642
Ni 6.523621714617265 7.687842718808634 8.24165420147404
Ni 6.8982716118482585 3.842037738045304 9.660788362842027
Ni 4.301202319247918 8.852029387877362 8.041358535241375
Ni 10.283932823569973 5.967551033338688 8.452140404892184
Ni 6.178246622663199 10.022854592837382 7.362021837555938
Ni 4.767680137817753 4.619004020707709 10.155373663696086
Ni 2.593786920708872 7.160633182519309 7.772697237940063
Ni 7.023406079048067 6.036082779341971 6.256200306810322
Ni 5.709550009763164 5.268583888411078 8.041666707141756
Ni 8.951916564050642 7.284378340082402 7.153716722763052
Ni 3.380077510103842 4.901276671843977 8.261515209249001
Ni 9.237695804079243 4.995328194795626 6.412552747149739
Ni 7.300305784577983 3.645274951294709 7.2990672515026
Ni 5.114367894591014 3.068588009124451 8.190883920344577
Ni 4.717856465251778 6.944960939521988 6.67907689026064
Ni 7.252906830296786 8.474272735219257 5.9364813861367525
Ni 2.6610830421223475 9.06417556566398 6.34059708541501
Ni 4.0676391606116775 10.862758300553958 6.844847465733933
Ni 4.967827523452725 9.122379632993985 5.527285780978814
Ni 3.562573333158812 3.3313837016278827 6.441548379487587
Ni 1.2702035935597313 7.2652754697102475 5.758354346043187
Ni 8.773816507234475 6.913580470101636 4.8561945141048195
Ni 5.751254914351404 2.6970338454166654 5.785154746602691
Ni 8.020430907503284 3.3037156162561803 5.150511499128514
Ni 5.708156991155899 7.113115202375897 4.415802723260014
Ni 3.3533356617933716 7.494913482229211 4.773328839735828
Ni 2.688565156720894 5.495894548407029 6.11175340201223
Ni 9.57756666265524 4.7722394195498365 4.023809775304746
Ni 5.074423389788258 4.894582785598068 5.348481715030167
Ni 7.2371094236850695 5.197566946083019 4.016534440023746
Ni 7.496139664168087 8.357191956640197 3.551361820395196
Ni 1.8390624605737511 3.7274517796807283 4.884055304415551
Ni 4.019705447576784 3.1725308222576745 4.101398942152136
Ni 8.717435542465562 6.507084440612589 2.5371545671321054
Ni 6.316344783065986 3.0469802951465277 3.4826845615830218
Ni 8.624116169697507 2.95778403468097 2.8854748231252425
Ni 4.157193887483061 7.12449404859168 2.602365520206722
Ni 6.441840120502167 6.77957247337532 2.1606954065766737
Ni 3.030532767494148 5.3879990884044275 3.7766365398602075
Ni 9.703099180260411 4.607220338200872 1.6601157177212096
Ni 5.125290053576575 4.975465643201796 2.829929079746922
Ni 7.3244923770139145 4.5706298360766855 1.784780074863474
