46
Energy = -203.90211492 eV
Ni 1.925365466347899 5.8769271526045666 4.457063709435189
Ni 4.963601381228028 4.602863250183036 1.0844415698892182
Ni 4.073339678703547 2.9128342313587416 2.3996741783412667
Ni 3.5937598350286373 5.193149621231677 2.836660734782007
Ni 2.0884295435059053 4.523891730611686 6.3909585769729915
Ni 2.6178290868533347 3.5533344511969505 4.231254068334501
Ni 3.0172658204729585 7.121158898566097 6.377295526146733
Ni 5.208493942316091 6.838510671297329 2.0303474782446544
Ni 3.66477912579903 7.344659292971001 3.8179324543503594
Ni 5.056500058478333 3.1532073812592194 4.4699597389996715
Ni 6.513691807317488 3.396942493182083 2.508316872547245
Ni 7.08874097467012 5.419244639963613 1.296087487895697
Ni 4.026489673965594 5.205021000267235 5.2888805849970755
Ni 7.437278848867392 3.415472841166608 4.783431722774159
Ni 5.7336640080266825 8.67809257041983 3.5959221774720667
Ni 5.895530113904955 5.30435350269292 3.6397104965196374
Ni 2.319125649688474 3.1007741017048653 8.254276165739872
Ni 2.7385935646628847 5.515941268698736 8.41631802761075
Ni 3.4554988239258435 2.4585021280374413 6.140364241422609
Ni 4.031252171936916 9.111399755522958 5.293373079861764
Ni 5.474853457142778 7.125584866896588 5.267204795237841
Ni 7.415727181068096 7.084404458143434 2.875690869155205
Ni 6.318070184783694 9.5697866151966 5.872906132074829
Ni 5.9648111583747845 2.367560214576189 6.502631132347809
Ni 4.2986758147160415 4.024689544039732 7.574363115703929
Ni 4.821447033030341 8.636088800898268 7.426951969959405
Ni 7.936130419343727 8.3624212852433 4.743307988676349
Ni 8.410490517341582 4.828039050863256 3.166270001027184
Ni 4.926753056244545 6.2965804287304925 7.469431368615316
Ni 6.162841335002432 4.734821855407945 6.2282628719232385
Ni 7.0454622318682585 7.470802589864187 6.935725722131665
Ni 4.397519355837164 1.823027990911741 8.249963459929184
Ni 3.736568681543164 7.456804146253172 9.136905118476962
Ni 9.597671709800819 6.753561763052767 3.9564397447152153
Ni 7.6564494511054555 6.043438006535811 5.08493235798198
Ni 6.884171852891062 9.45878328389349 8.29561055234423
Ni 4.994028747840492 5.297912769944021 9.547213065160278
Ni 8.636132003735764 9.298316479598382 6.813108415732963
Ni 6.233940435579478 3.3490810425241375 8.65079775307938
Ni 7.190572700112635 5.482823875447673 8.398912758605848
Ni 8.041421164439765 3.636222701010596 7.095150805459894
Ni 6.121361908801531 7.443079520213163 9.221821351035949
Ni 9.383890317697746 7.105499665233329 6.319147583572311
Ni 9.461662702972573 4.7493810887697085 5.472873114252178
Ni 8.542667145689123 7.569455533337107 8.633454497153703
Ni 9.431738781306361 5.400171699445302 7.848859550449367
