49
Energy = -218.53224696 eV
Ni 5.146750872506089 4.359428394770058 9.390737732677884
Ni 2.6812849421152363 4.647861849708257 0.3082162709587723
Ni 3.4900152926886703 6.8885253666234805 0.45929142703692744
Ni 6.681776869765302 5.383277947028025 1.5331106195646356
Ni 5.634593098688778 7.500324593622049 1.3147127712544608
Ni 3.892906881047223 2.828312640600405 1.3062080886428955
Ni 2.0139643581270144 5.960690325580419 2.2486259522598884
Ni 6.277679708197665 2.9951409475330797 1.6774977249896854
Ni 1.4221730731252484 3.5618305140251607 2.0201983759135125
Ni 5.670324602216468 6.455123341587325 3.3916501602824436
Ni 3.6828645058409113 7.636528025189702 2.733016368938385
Ni 4.2549372005064505 5.259774263116414 1.8772206366881798
Ni 7.842201744776302 6.965615652400964 3.456319704500775
Ni 7.78778770634777 4.538625520603251 3.3796611123500035
Ni 2.539057543534511 1.374795596152816 2.655713156550729
Ni 4.875485230961338 1.745227642120685 3.293286150363556
Ni 5.9257086683438445 8.69268411173313 3.4429556076379493
Ni 3.1434889092624383 3.4441153197690193 3.4439273175883045
Ni 7.185057324891138 2.1662624495537046 3.8036210829099475
Ni 1.252744115823212 4.851076581461886 4.2368151031129955
Ni 1.927196292707731 7.164159673028475 4.4316033279118745
Ni 5.498193802718593 4.078169059880624 3.5312873835638703
Ni 9.01012019603939 3.435778585569853 5.0606302331988875
Ni 1.1060337844693695 2.464061563041694 4.188690038508423
Ni 3.5571072280263754 5.609117174061717 4.1949159311019155
Ni 1.3751931957762433 5.786050468606968 6.483745322450234
Ni 4.305591063581275 3.596492641463016 5.481898846463256
Ni 8.101987949412214 5.663536168648862 5.4812430627897815
Ni 6.737352047582706 3.573159357857035 5.585996317457787
Ni 3.1843626286372504 1.5493071549887234 5.059081844315892
Ni 2.5945106106827747 7.939202959269598 6.558893712162631
Ni 2.067602307104522 3.509986742648982 6.10411939025252
Ni 5.560192056567339 1.497386405741253 5.635799675584787
Ni 6.738071478653218 7.703321946449486 5.57039679860834
Ni 4.3519807399514505 7.802968517209141 5.031291630675748
Ni 7.918898518699124 1.6681712220776708 6.161904300888387
Ni 5.706920091410584 5.6741353578763105 5.528177064848555
Ni 3.622192152675831 5.789305780454721 6.5542615887547395
Ni 8.173512961700565 3.9733834296778867 7.298321138977788
Ni 5.3272016885536635 4.29177260388891 7.442190296035018
Ni 2.775343273467432 6.698456588885004 8.50247537748588
Ni 3.913711197046418 2.223960121907661 7.324884386537078
Ni 6.907411452813769 6.12044213830793 7.57124368913482
Ni 6.357688688147231 2.2703790302491016 7.835579309188652
Ni 4.9526641259788535 7.504381214865492 7.377937764032402
Ni 2.8976256779541734 4.299905875563184 8.198824105148457
Ni 6.8233670955669234 4.313735513118597 9.21350196308337
Ni 4.873859467947785 5.7658045734436145 9.090614040928473
Ni 4.6922693214052416 3.2372107920812914 9.390737732677884
