43
Energy = -188.50021151 eV
Ni 5.406485120538917 8.397852166303778 1.60927485501853
Ni 3.64705198286519 1.1535008440768777 0.4036438114898299
Ni 3.023617243478705 8.39437745628271 2.5191866091434427
Ni 4.868118902618729 0.10205574616222234 4.109086845561318
Ni 5.91825136618777 2.340561105205113 0.739261442416532
Ni 4.3698596273231365 1.6944060420222156 2.453235788779049
Ni 6.728397932569974 1.524137758661716 2.965786153579892
Ni 2.031887275883842 2.1360528330702553 2.084371393085003
Ni 2.6877900870353497 1.4928528916260657 4.4780356778741925
Ni 3.7457597532058857 3.5360500778499224 0.8978883331289871
Ni 6.690420707364926 1.0429471520929448 5.377983157372313
Ni 7.665011417713778 3.710269384096447 1.8791164429696483
Ni 5.068196362248023 2.4254062931003113 4.598626309024679
Ni 5.625580438734706 3.6628672526996344 2.6833501202292513
Ni 4.281669969188486 1.15820032297124 6.311620147485415
Ni 5.768453967225897 4.945201618789878 0.7142841225823325
Ni 3.3568963040725555 3.4889753329694098 3.4206580412600864
Ni 7.235066113178263 3.4628101309789177 4.406537756313131
Ni 1.1503615553960227 3.4816398217424456 4.153454814733478
Ni 2.4850276490285235 7.081582384635493 2.382597757374398
Ni 4.9285721057397165 7.348551561565172 1.5934501065234905
Ni 4.027615172581005 6.958521923712115 8.095827480350914
Ni 3.65690391645782 8.394377456282712 6.136619008497384
Ni 1.7939237550436218 7.135134027766699 7.215577854485126
Ni 2.55863330481682 4.8010853358997245 7.797065979628254
Ni 5.641003211933475 6.948875731622792 6.151218852073248
Ni 3.4749537012178315 6.122918619208173 6.052789672520576
Ni 5.012092322003765 4.92007860460651 7.386502867578974
Ni 1.857407175729629 7.5267347446559 4.782050611288333
Ni 1.1281056781741072 5.179918967548386 5.896668536777447
Ni 4.387716365991691 7.250346878623136 4.04311645258867
Ni 3.9250738374324 2.8422511465009506 7.93114242281959
Ni 7.061348063750396 5.074769997092952 6.152229138094897
Ni 3.466443934381561 3.664871510176695 5.816295433599868
Ni 5.1950686160999595 4.945145683663819 4.721564262160839
Ni 1.5475199088724423 2.8171812001798315 6.497053020250697
Ni 6.485497400662684 5.902696555116321 2.93785175439349
Ni 2.568610541920984 5.471245444135339 4.108616795887659
Ni 6.016205966988227 2.9829652335694075 6.612789656302427
Ni 0.4603914946973134 5.898014713397277 3.549125523498709
Ni 1.8474873864541002 4.663469977954661 1.9285666803486954
Ni 3.4376113122151177 5.880346500326256 0.37033008370690224
Ni 4.193864194509273 5.443480625248553 2.461501370735102
