46
Energy = -203.28791583 eV
Ni 1.17242478184971 7.523257370864945 2.472838789037774
Ni 1.5639624971095953 2.3786814524795723 6.275562133373342
Ni 5.4557281722070785 0.03643172422165325 4.378250826511295
Ni 4.671441127090108 2.9737879385470705 0.6824122037154274
Ni 3.0876884965552405 6.868798552550517 6.265965479978985
Ni 3.8387491379523104 2.2793599166980543 7.657531314486394
Ni 6.589863836147683 3.094187532653919 1.9975676688006203
Ni 0.471850518459609 4.249320336300733 0.30026738181620977
Ni 6.706673867464056 1.6919120328095454 7.82391856769615
Ni 1.496480548482219 6.145734393524191 4.44708455156348
Ni 4.012096197488221 5.6112084612693405 4.609529267789434
Ni 7.3556075755864 0.47407986297298693 5.814757311690077
Ni 3.280703677235783 7.934214261533973 1.3829122771852098
Ni 5.088051412360968 7.803002596215919 5.020722735802462
Ni 5.774715201967953 3.7737157212142045 7.253016456541431
Ni 1.7948108658489097 6.230139278996111 0.5020039800548894
Ni 3.6798608216592332 4.802098752921141 7.608502461938555
Ni 5.3309265194434525 1.0164371375676078 2.06961613286908
Ni 4.7247323060443955 4.3288485977915 2.625159455385498
Ni 6.8857972470592355 1.849603073506904 3.888121166853098
Ni 2.635378687855567 4.051906293890276 1.0950970844156107
Ni 7.862778223322803 1.6937037485069906 4.79737341632665
Ni 1.6012432584884442 2.225856857649905 0.07978128201208952
Ni 4.414196058906332 5.727845255807879 0.7067147632020395
Ni 1.9277001593890977 1.6510523734585016 4.030243157749463
Ni 4.398456195477125 2.2208636868098135 3.7587264128258826
Ni 5.820384088902942 3.9855280318230744 4.784388329643608
Ni 2.5475528504791733 3.899194799191474 3.62960337778256
Ni 0.763471244558478 2.776246446725611 2.276602585146506
Ni 5.369648311086374 5.980817406405869 6.459078689416552
Ni 2.9983033331562714 1.7864990143627846 1.8537311890024992
Ni 1.8361449701460042 4.756195372876412 6.220630728143973
Ni 6.646162401208761 5.450386808286883 1.9137212580045633
Ni 3.6523798521393376 3.4077633127073033 5.691303806313134
Ni 3.4225391005280343 0.00478986613051897 3.3315222608254205
Ni 0.6531422334906346 5.1588953748641435 2.4570616386968016
Ni 7.862778223322802 4.1327513447383035 3.77323230907774
Ni 7.679710190975171 2.8146432592121 5.925772863529146
Ni 2.920570652856428 5.946145470626313 2.5198467396530786
Ni 0.41032980218943327 3.872262971174589 4.504257896143814
Ni 3.056602928968675 7.888155231760539 3.919370170268951
Ni 5.463636414581234 1.8003944299169556 5.938498013481778
Ni 3.3844602485421764 0.8446775818293119 5.657404834495977
Ni 5.012125431536275 7.013869568346224 2.709711456600159
Ni 7.543093896451503 5.112819177465785 6.080109939438784
Ni 6.563806813776007 6.11778455809491 4.1963428720174125
