49
Energy = -217.96799848 eV
Ni 5.487687833282466 6.084204401667431 0.8841132562310525
Ni 3.1843089176557235 5.031730203552075 0.1264646877752817
Ni 5.066604427359507 3.5705402282303726 0.5825041157704397
Ni 2.751694815876017 2.926223265902141 1.5846626554474508
Ni 4.5111473319470266 1.216020422076942 1.2944199173245108
Ni 3.3238464896254376 7.0594332040320165 1.5234699502959819
Ni 6.461537426862106 4.546838430413219 2.5064010181177
Ni 1.6164863176490136 5.115943864683932 2.0997279813293175
Ni 6.7222514802138145 2.2069479797279645 1.7438375943678228
Ni 5.53018860730545 8.334389220535602 1.9018581362728157
Ni 3.9513833157849167 4.8238726631128825 2.209728678107384
Ni 2.4399982008314844 3.5445768126124166 4.017534021221621
Ni 4.8252843592317385 2.8251906456211926 2.842812794925733
Ni 3.19026317788678 1.2197648466299789 3.401878730138997
Ni 1.3284249531504075 7.499843113803526 2.902421949460734
Ni 8.250060758139979 4.766910645562614 4.118890223905646
Ni 5.694094373157624 0.7060620043648 3.466276445148875
Ni 3.6663664807514142 8.441513944649698 3.5174935377952865
Ni 2.913552611006496 6.1766379604387165 3.744107867090006
Ni 7.378288828305824 6.7514319035254164 2.725537613115601
Ni 6.939298021168317 2.776904618486508 4.080189728470108
Ni 6.227890556746765 8.293450319222098 4.313949649638246
Ni 5.139824035465443 6.558803011414209 3.2150961724061484
Ni 4.595943537610363 4.573890178141984 4.523889246529158
Ni 6.414663960720323 5.8316800960205635 5.021353644760771
Ni 6.577450220404936 1.1827397903462604 5.877167897510358
Ni 8.288467680869664 7.170137945938204 4.907126090942342
Ni 0.8319145811188338 5.471616486976346 4.476460110027227
Ni 4.702692211391113 2.2100411265719107 5.014819681638318
Ni 4.420893544868534 7.294273907430103 5.518712733754911
Ni 1.9324274738165161 7.686753964556612 5.252132969816384
Ni 1.2965044402276265 3.7500835189198987 6.2493246653208185
Ni 4.328112834561575 0.007325342637084075 5.332657928115723
Ni 2.8011693773161666 5.557811032961609 5.909669113139787
Ni 8.231693081342167 3.0389180129945186 6.0269297208439685
Ni 2.5012979882428 1.6451299124814212 5.729002056965868
Ni 3.6727044017542325 3.5583930353781175 6.501312939301167
Ni 6.085780336077924 3.766007751877882 6.290838879076686
Ni 6.557168459675593 7.302505273532547 6.728853270213656
Ni 8.157576415592034 5.383107474571558 6.470542127202519
Ni 0.8438081305324364 6.131365923067311 6.866329700434243
Ni 6.745200483578309 2.354739004557214 7.978709506740093
Ni 4.581160571197807 1.480676406507087 7.28027493716719
Ni 2.953010529276498 7.236072840792759 7.46254212149543
Ni 2.4749767317349938 2.4643870535511105 8.079818778654861
Ni 4.82535366298915 5.679986748348491 7.257476629322141
Ni 6.78746601569992 4.809920573523129 8.244835182378699
Ni 2.58488727018907 4.882198391623677 8.15686887549179
Ni 4.721534310268034 3.5673460668870987 8.553316039259292
