43
Energy = -187.82106796 eV
Ni 4.725849987432793 3.3634668665194893 9.072481398232572
Ni 4.3004086491987525 1.1571801916090432 0.8949484746702177
Ni 6.551521757417333 2.042508800537562 1.0874885837167891
Ni 6.464626857247679 4.480614548347512 1.2504199074512747
Ni 2.668774020523724 3.09384255179925 1.262383551786748
Ni 3.940562702600745 5.183297910785466 1.4009066331351232
Ni 3.4801435143214157 7.627622651126771 1.6625548789726718
Ni 4.77145951632442 2.9372026997380147 2.2194600505442312
Ni 5.7855222857203605 6.725916685956965 1.977182149677702
Ni 5.6253558788349105 0.9715820836123757 3.101306311155923
Ni 3.2134006251243967 1.3981722475787537 3.011247109297266
Ni 7.74685342594888 5.301147210634844 3.2072239409159824
Ni 1.6626987794619734 5.8223523448551955 2.8843396265746555
Ni 7.0528169806229375 2.966760990678803 3.295212945576804
Ni 1.2014205758671115 2.735632924760321 3.0430243126307883
Ni 5.452895072656066 4.79896571440008 3.294148409428598
Ni 3.0356799050693435 4.081728680352063 3.5909504726482133
Ni 3.8340102829942566 6.414110194521559 3.4815576761863922
Ni 4.8452328668512035 8.528325820014581 3.5676549238723
Ni 2.435083438110854 8.105686192134554 3.8661503190553828
Ni 4.795792270233066 2.8204989063100143 4.684545020192313
Ni 8.711158173375061 3.8248614138261146 4.946829168038556
Ni 8.114331524509238 6.0862477014096825 5.604954119611217
Ni 6.208768337954569 8.54240196360546 5.766499066128211
Ni 6.3427617157207274 2.246448380262133 6.346128624024427
Ni 2.3090733409490674 1.9692125641552882 5.048766204440775
Ni 2.1745837537720605 6.149586590815965 5.281857018631582
Ni 6.282749568688048 6.8226874722030555 4.3385452215464575
Ni 4.538536005341081 5.385362985579756 5.385507733689113
Ni 4.308985858303124 0.5941405472444395 5.04377128712207
Ni 3.006537523630564 3.9331107159632843 6.082471335077183
Ni 4.065551151140603 7.657381868528146 5.706872677532329
Ni 6.577582430354476 4.345432828431731 5.25888940140545
Ni 0.953605564950996 4.071503314103573 4.94955941915589
Ni 7.59258412369844 4.356748488317866 7.226126121013524
Ni 3.9656842899544977 1.9883559313554509 6.9346545567261275
Ni 6.024885777155078 6.372959867640519 6.8585541033457025
Ni 3.5456341355490117 5.965361653954758 7.407031684562084
Ni 1.2739900373940662 5.04025294199115 7.2212974797697544
Ni 1.400038348001133 2.6179047994734104 7.12751575616853
Ni 3.0780000005779393 3.7738701601134603 8.433114328393062
Ni 5.188736908309281 4.0942872548168125 7.349191596236559
Ni 0.8775646044858255 3.736716906313397 9.072481398232572
