45
Energy = -198.76140698 eV
Ni 4.157528934076178 1.3999705777152514 6.27129327080227
Ni 1.2047968691336663 1.7190587689099326 3.5201108078732593
Ni 5.730957811405759 4.801052994268752 5.209972495297532
Ni 3.7096687494776712 3.5967348832276382 5.4766802714841365
Ni 2.3071497360884448 5.418037432513195 2.7683336751027214
Ni 1.745192981154901 3.486088613093149 8.051241539112155
Ni 2.7367479302911595 3.071402969992281 2.053858662321758
Ni 3.4724894766565515 4.922226995016286 0.7089716336854257
Ni 1.3660550655133015 6.5284710387464475 4.781912981812885
Ni 8.003492583699703 3.076978002462542 4.3037102569423045
Ni 4.417649161518554 4.358488370026035 3.119104850464263
Ni 3.5163058526681623 1.9511870935189035 3.9156947174674106
Ni 6.599893543129477 1.5259059936858197 5.918587369904528
Ni 7.1365771402251195 0.8170359211720756 3.6725884584323927
Ni 3.5844609207507996 1.6586966507495833 0.481965948179515
Ni 0.4695704687284391 3.586360090577424 2.0467197968873796
Ni 5.476126333013282 6.580602839801333 3.5238219262845427
Ni 4.88633449624053 7.261314588086379 8.051241539112155
Ni 4.157204724453312 5.271423815598822 7.220306888591027
Ni 2.9258102626141733 7.21144228923574 6.542489482720132
Ni 1.4986796571810967 7.55066217435214 2.5745678918794854
Ni 6.80238292646198 4.623741634291457 2.9501313478986404
Ni 1.8435234388489177 2.2127364113683767 5.848172838688118
Ni 1.2734777049823092 1.4631041192553231 1.1477671552261441
Ni 3.3706819959072 7.9389845430842065 4.155098270262663
Ni 5.203964134956157 3.348753174484446 1.1724053743400438
Ni 5.748935429377768 2.647098415654857 4.136929113536497
Ni 1.3799313547801748 3.9780305150662585 4.319768907957486
Ni 3.756742603116751 6.997870164807282 1.9507355739902932
Ni 7.626558603152558 3.710419243525336 6.506468196766214
Ni 3.143475379147355 3.1243058988160626 7.680069281655964
Ni 7.211765581991571 2.491156857297718 2.0692019943667805
Ni 2.566740103330115 0.12097348457353933 4.863213219186132
Ni 5.232715289374222 7.1968768796017555 5.772137804396494
Ni 0.020070320633522265 5.6712556857471235 3.0236958690263633
Ni 3.5662647457214205 5.786186883578259 4.794203830986168
Ni 5.464735326500286 3.2578102824529154 7.126177974923709
Ni 5.616757350117727 5.71184455353061 1.2630671799913566
Ni 4.973324902501496 0.17892760273945965 4.41398268312988
Ni 5.190960683145523 1.2018181636803267 2.223038754357371
Ni 7.84221003875888 5.488006907311476 4.955363114212192
Ni 2.9675235531935855 0.3064985547993183 2.4280286211141506
Ni 1.1254756250286186 5.664933220454209 0.8464861481853506
Ni 6.509454288577693 5.689523097082301 7.219975156587165
Ni 1.9284431393518173 4.864808821025763 6.4520209162447175
