45
Energy = -196.68973244 eV
Ni 3.7261770863114374 0.9854856599699217 1.8417807056087716
Ni 3.7193831023290507 2.719342653736778 3.242680435375597
Ni 6.5540656180954375 4.761508506419899 7.411464423377784
Ni 3.279615894797207 6.888557367239658 1.2743336634612468
Ni 0.05059918046258953 3.168321147013494 1.9793315549695185
Ni 6.405327612021741 7.557558268175918 4.5247691998287785
Ni 3.346655135788122 5.016453025818103 4.727262902139352
Ni 3.444922150470758 0.7060858095873968 4.489727964746336
Ni 4.806119393305777 3.1858299374301025 1.1007432102006645
Ni 3.4942974890094245 4.872287034891562 2.253114943346243
Ni 5.632345103766129 0.9074664532645673 5.558602284345245
Ni 2.339761646559468 2.944104164587652 1.2096559680224765
Ni 6.175196538340689 2.070736862047908 3.5563123965484906
Ni 2.0197927694851354 6.46572658673535 3.4057498412408265
Ni 0.8382475344595777 5.094093410247498 5.19309805138917
Ni 7.888919025625785 5.856618402604938 5.559427772064284
Ni 1.3243161853447771 0.9628430424718036 5.551104915530804
Ni 4.050972483622038 7.2668943126105905 5.585509627052139
Ni 3.443463873424994 4.83139874310873 8.874405985984335
Ni 2.406972541369536 5.850140262639163 6.727417326002511
Ni 1.5993328672618294 1.5617559778853711 3.153610322056432
Ni 8.23351659855147 8.13911888054663 6.08730375157852
Ni 4.591510107768232 6.706617733639658 3.313954716704617
Ni 5.441677786622189 4.347466394195378 3.415730258394681
Ni 1.3671459815853837 5.25697465644794 1.271005647682985
Ni 6.172124076789369 7.3156966049165915 6.853227313144386
Ni 4.808616746984207 3.0632867648153312 5.31457608694106
Ni 5.772995615348663 2.568428716666134 7.318668420284139
Ni 0.07214149136349729 2.852290958985349 4.584857468749605
Ni 8.670040302122425 7.409471493176638 3.941037750621188
Ni 5.31207034882496 8.855190301951566 3.307086015727107
Ni 4.481359269845393 6.127556317887723 7.7533678628855265
Ni 3.5895419198357743 1.5584799284855868 6.77417601993588
Ni 7.052929337787608 3.5981896474830024 1.9449258149768422
Ni 8.670040302122425 5.292853643185834 3.106000642195254
Ni 5.567261361463469 5.544929955850975 1.3487627552043786
Ni 1.335009158029028 3.706625572289468 7.041982222069997
Ni 3.7790687164810777 3.9917380666258353 7.199323281390565
Ni 2.4058851662966707 2.8885716173445912 5.263484015689284
Ni 5.482864866909875 5.460223417258218 5.502313113626699
Ni 6.077284119752276 1.291263972789196 1.4123709834760307
Ni 7.077764146022282 3.6592783863049436 5.171281776279812
Ni 7.248478041748922 5.696345303337543 3.2402467333173957
Ni 8.089188702603806 6.496914345541725 7.792986818353332
Ni 1.6515255792239467 3.9958026677220264 3.3177500134137903
