40
Energy = -173.5099703 eV
Ni 10.57208103398705 7.967033735410761 4.746905254632162
Ni 9.04535914350192 5.784654948439673 4.779402751514576
Ni 8.429099586624954 7.971355680591261 5.4688124932985325
Ni 6.28515807300811 8.943080893959701 4.987111115745131
Ni 6.5722221743458835 6.600037087428717 4.9831334944264425
Ni 9.256665908727033 10.019168208098222 4.812185553432549
Ni 7.231426103552519 4.331820176423253 5.5094129582131774
Ni 5.522628318723322 10.462205138885802 6.5740337658669254
Ni 4.740835197445289 5.292915363293461 4.845084208481178
Ni 10.209390803228832 6.672764824323283 6.667214436051142
Ni 7.949080554150742 6.1425279637871055 6.854068292704504
Ni 9.424031957842955 4.372604498121019 6.781401575450844
Ni 5.5886101810484075 5.333360934862441 6.940755262674423
Ni 8.621268913774438 8.071344686208308 8.33467101725291
Ni 4.472389078298102 8.976126192661768 8.083041065584943
Ni 6.437495815241655 8.006791727608233 7.253414752460992
Ni 7.827034876968207 9.865338710530636 6.638259080031525
Ni 10.23881237557939 9.150248313828717 6.864010591337215
Ni 11.079470405431362 7.591506061945001 8.537434275903715
Ni 7.186136244459972 11.3279593915198 5.06171990523922
Ni 4.535487925284869 7.360173875109705 6.133497137935062
Ni 9.01323157720054 10.651675344287911 8.356424793878645
Ni 7.230686503055945 12.00002760979637 7.464582765433188
Ni 6.862481014051072 6.225916210818855 8.843466906731093
Ni 6.514828512029805 10.135632303067334 8.691539028237214
Ni 5.374875492726376 4.416972870571033 9.145880954867419
Ni 9.939498654202042 7.942308873085778 10.511423545977332
Ni 7.375641439156227 4.014250242003496 7.931515281189777
Ni 4.562156145783724 6.663652609682185 8.601941591595274
Ni 9.373518363455657 5.8725988730825 8.964384037247715
Ni 7.832872431398221 11.706357933486734 10.001346513421078
Ni 7.872429053757833 6.994119771574095 10.766845680300142
Ni 5.66529575707964 6.0332049722211245 10.835239084099857
Ni 10.853957827094595 9.767763290288503 9.27063020870328
Ni 9.372282287983374 3.5513262815846884 9.02764561474259
Ni 8.054269161658528 9.355541230228859 10.297191807702166
Ni 7.592550106644306 4.557868454972275 10.262558366628378
Ni 6.004172338352336 8.190417875501234 9.803384298430466
Ni 10.176499696804585 12.020299419954947 9.771295968320741
Ni 9.799179130972323 10.352157585387816 11.292244728888019
