42
Energy = -183.66569549 eV
Ni 3.005361613567485 2.7928713094316326 4.718431368183315
Ni 1.9677978704505963 4.072841364100191 6.344234209687284
Ni 1.3306272568168238 5.921954656713479 7.66872722380017
Ni 2.768795209167462 5.152351263269083 4.372836249526786
Ni 3.9991200692078377 6.214068818615056 2.695824929981454
Ni 4.338658975120131 3.7198640662316724 6.466584870820481
Ni 3.1051940519395687 4.453215885246207 8.402744493888761
Ni 5.365334443278758 2.605679850871673 4.659932421056896
Ni 2.4157167345747994 7.995250303405121 7.127057341826336
Ni 4.28090839162325 3.866906989667964 3.0123760448137937
Ni 6.487540769169215 2.913625981130137 2.5926683440148084
Ni 5.392988356579592 3.6721255105302673 8.573456540625811
Ni 5.100594350066606 5.298573450067045 4.809333471415173
Ni 3.6850679848129264 7.5529579459465825 4.689161656287153
Ni 6.6041625392563255 2.8115518131683106 6.670119713536396
Ni 3.0088227827107508 6.740440946541974 9.09697619173441
Ni 6.1895757849274915 5.226267807933524 2.643646398631695
Ni 3.336803296008376 6.032284301965032 6.481190322984577
Ni 5.0177949987724295 5.977939377954343 8.14731087927169
Ni 5.799099807657808 7.465443053474948 3.4416776523205805
Ni 7.336655918373058 3.8368191320700786 4.585578789954691
Ni 5.56422940113161 7.300974131346876 6.1235185228095785
Ni 7.387464127890694 6.239468792530383 4.683674849535058
Ni 8.38619766897001 4.44915761910929 2.5358418133926985
Ni 3.9868278040164995 9.430956305190234 6.235420896144205
Ni 6.759172255471086 5.150527318688777 6.800880213957226
Ni 5.771427380600035 9.321232381857321 4.803184499282277
Ni 4.458823465131399 5.153806801435239 10.236336957703939
Ni 7.963516865126268 6.818391273744587 2.461919935637149
Ni 8.758369889093986 4.026755555151182 6.535993499700922
Ni 4.591604541906044 8.243656781388003 8.151313488581055
Ni 6.739928058161722 5.40865198551951 9.570082994750424
Ni 7.750470448685161 3.4713523960127777 8.633443576745275
Ni 7.129884934662514 7.314372009210611 7.926605093443092
Ni 10.16447989380136 5.991897007549496 2.525418595653129
Ni 7.803484445703089 8.384010721800779 5.759784293364419
Ni 6.247402275381939 9.477922349972609 7.125481673098121
Ni 9.474520804125596 5.037666407717747 4.556474184954196
Ni 8.75355876133148 5.540208019365079 8.454316677138731
Ni 7.670558095879534 8.915511549118987 3.476191686411716
Ni 9.005037912864665 6.480395252870292 6.415806549326533
Ni 9.416572987441988 7.434676633049647 4.252944581931386
