41
Energy = -179.30596115 eV
Ni 9.038660472010873 6.237784231871212 4.1482104946471505
Ni 9.02436239110441 5.643007544315663 6.472772802577961
Ni 9.384586342466603 3.502194001353741 7.131789188714422
Ni 9.557694133947242 3.8441846122981245 4.770132445984124
Ni 8.532982325975778 4.522046992542208 2.5490302206820843
Ni 7.087648196412117 6.646093075528604 5.508785328239234
Ni 7.590954039357911 8.329305228470163 3.904156619657101
Ni 8.11778098850044 4.9270761213089935 8.74260198749827
Ni 6.94016605678211 6.26035746693983 3.0213058700856252
Ni 7.558426497491803 7.111959283109613 7.701684627257701
Ni 7.69361669714823 2.4478807342376006 5.825683957155033
Ni 7.416832328842054 4.486540843420971 4.592028439177612
Ni 7.608459938874252 2.525723271163664 8.189174569948577
Ni 6.589574031137244 8.890304776253608 6.030413404417176
Ni 7.735416843194365 2.486318936937573 3.4461843164352994
Ni 6.8897487234116115 4.587747147356002 6.896837540655494
Ni 5.8058766629595535 8.2231280505832 2.2311428438742893
Ni 4.687659082671835 6.09693762578127 2.4172858200412697
Ni 5.673087626381622 9.786459626638536 3.989336922581947
Ni 5.189062981578016 7.450091462722002 4.365010481801722
Ni 5.8217011007641934 3.70765560735197 9.036134174089906
Ni 4.593150022786324 4.805292720295397 7.2808224588119845
Ni 6.010695245853333 4.121300184189295 2.654159539847213
Ni 5.87163443244085 6.019598391127025 8.897386447650018
Ni 3.588255271498152 8.640436368768835 3.260889792307343
Ni 5.159600080478873 5.157198214361633 4.929527409631348
Ni 5.230828909736717 7.27971973125233 7.020991545351785
Ni 5.563033036680031 2.560433031261861 6.919037657691028
Ni 5.605898606612815 2.7953395541933306 4.560907068046639
Ni 4.163791950401861 9.07325020748228 5.641297742325633
Ni 2.831310662056683 6.4169226670284125 3.6980822679936076
Ni 3.3294561038203367 6.418030169640175 5.961833799974828
Ni 3.5829559867078618 3.309578794821557 5.7605096714630095
Ni 3.65929401063464 2.907116164671003 8.270071406627366
Ni 3.6781114485993487 4.123139893424108 3.5018894075134472
Ni 2.8489797360331948 8.33668999751222 7.360463806857969
Ni 3.421759855451723 6.405189749341139 8.464407480538043
Ni 2.0239732010891585 8.152733540464748 5.095057819508722
Ni 1.8641252860966007 4.813473025652108 5.0659828391365895
Ni 2.249315379322316 4.538162362560527 7.371713959278689
Ni 1.2784398212726857 6.6184588400070465 6.932334998589174
