46
Energy = -203.68466786 eV
Ni 4.563420859341543 6.07953696628681 1.2337181005523619
Ni 4.948635683931434 4.055247157086022 2.427280126424457
Ni 6.8237410847067475 5.465884735808338 1.7127212804918963
Ni 5.873890435438282 7.895381739056351 1.973566561538392
Ni 2.8998130263749125 5.2555971018063525 2.665997146325321
Ni 3.678775415242456 7.532456953428973 2.980702941284681
Ni 7.218755929312192 3.347620598463754 2.780384477604525
Ni 8.899178567180996 5.039345347645035 2.850946199183348
Ni 3.1739137238453763 3.0679543199180226 3.7451997899894045
Ni 4.388766345880107 9.683469071865328 3.427743469020115
Ni 7.769452979499415 7.031204197697119 3.2243817659487597
Ni 5.338983727160387 2.0728061754901534 3.719591849509127
Ni 5.476318309946405 6.152681846831177 3.5085420242193077
Ni 1.4837263205592452 6.9313877654698155 3.569270790362019
Ni 3.7770568720413795 5.094251291972901 4.846459975272223
Ni 6.1043973599289165 8.448743405261707 4.2787891232476
Ni 6.079380330264355 4.144650689666123 4.633131062952813
Ni 7.561733271231134 1.7990108206598165 4.554553369810726
Ni 2.8087277056391167 8.564442275084815 4.8426842924103575
Ni 8.39413192835635 3.957065537161598 4.856393862300284
Ni 1.4426426539679071 4.662551382065207 4.44047138737967
Ni 9.197469496461794 6.15041586910532 5.003047282621391
Ni 3.477394306771558 1.0703283676348512 5.085496937577921
Ni 8.388838493170542 8.427195951552202 4.988648168951126
Ni 5.782126303288627 1.0098660188412223 5.822822896216793
Ni 1.5909293368227433 2.4566129600200948 5.370095765101608
Ni 6.922374689111876 6.389912909908095 5.435897215172437
Ni 4.6849419737092335 9.572169026520978 5.8643272346476
Ni 4.568800900000559 7.194073975868171 5.707224447661831
Ni 4.406509519136438 2.988182668791211 5.9746464046098255
Ni 2.1097167790333886 6.53526236265266 5.760838601025922
Ni 8.65846343229331 7.316449164480481 7.039246353674328
Ni 8.056364042282897 5.006986622487048 6.9758317466104
Ni 2.371407360044939 4.247627870974073 6.636900967489795
Ni 4.145912368005505 0.10013877122123852 7.161187744198193
Ni 5.358410566111581 5.092409537566423 6.747151548629159
Ni 6.945889297070299 2.970738721640477 6.552738036565753
Ni 2.8598609711197334 2.021312155007885 7.3699450656906205
Ni 6.651991537144815 8.510635908947602 6.604803708846761
Ni 4.708182175978447 8.088550924196447 7.887490958360563
Ni 3.4227835599928156 6.131136806178094 7.6012228101161625
Ni 6.628877208145631 6.624592052125499 8.03223098351241
Ni 3.9658122450103637 3.953691742891162 8.39172492334336
Ni 5.261921588192494 2.024598023809021 7.986390125284138
Ni 6.410323974010651 4.118798979112931 8.580966744095262
Ni 4.917494913175597 5.915262795676078 9.344833300102387
