44
Energy = -194.74720451 eV
Ni 7.840952171526639 6.2220718629271685 1.7003583834001237
Ni 9.994803235158166 4.678473580543155 4.712153366346864
Ni 9.178654442305886 6.676274400170611 3.794823068994249
Ni 8.315220094195713 4.368931538857582 3.133873893767975
Ni 5.603143874944544 7.109161224271155 2.10881033070402
Ni 6.0606571748236995 4.701450690121543 2.1652523633394165
Ni 7.668162813310368 8.275627745913349 2.8185918561252405
Ni 6.783284250168803 2.628567571516811 3.110964137733953
Ni 3.8580398649849763 5.478085682306959 2.7717994432789905
Ni 6.938788264416183 6.233509157549775 3.8786113216401863
Ni 4.402790576076432 3.09864142404038 2.9631143353607685
Ni 8.873410136969614 6.259796523200055 6.190393555506165
Ni 8.710832490860026 2.542093592367755 4.806784311631472
Ni 9.528218373387007 3.901079283233987 6.831306543823569
Ni 7.652647031427266 4.410024503156088 5.464405910352849
Ni 7.650131582702314 8.06650914575379 5.201986993901265
Ni 4.7011420438023475 6.761437522923043 4.527095838616431
Ni 3.491796283152886 7.867959048965288 2.903078803605609
Ni 6.361722395467088 2.234240191078234 5.291851415874495
Ni 5.6238883626426945 8.79604770271707 3.8800898111737405
Ni 7.604781840356291 2.633969429754129 7.27350031178004
Ni 5.462059426587696 4.4000563112209115 4.485039960847151
Ni 4.009263638856173 2.608670992432407 5.445340891269349
Ni 6.2317180759039825 6.206902084453456 6.22735701879584
Ni 2.3909499104091956 6.558504883358407 4.7647719800420925
Ni 2.599035675594017 4.108497341266768 4.191615810002558
Ni 5.412084800378648 1.69847558493341 7.371633622671928
Ni 3.5165358753442897 8.786663018651623 5.074906950377417
Ni 5.670761247617268 3.9735065785236583 6.868421025547125
Ni 5.657004610059866 8.713580056777289 6.275604281869406
Ni 3.680877586292384 4.921898357405513 6.041987190349114
Ni 4.011737546573729 7.110424144655674 6.859812439866679
Ni 7.687802041568265 4.979363365207002 7.886355261139703
Ni 7.392315012294764 7.592245528639603 7.6170243207531
Ni 1.8021470324739421 3.595832870602019 6.382883228368882
Ni 1.7683002116961142 8.081849576471846 6.545371856786537
Ni 3.57135649856629 3.0404506174760564 7.780523156428159
Ni 1.803710722459235 5.825368362655986 7.109168160410171
Ni 5.620847514825426 3.631338877008384 9.061368309558423
Ni 3.544803133145773 9.394767786751443 7.369197270654595
Ni 5.788828823327849 6.014393227877158 8.608757707790533
Ni 3.678125846913338 5.220493635088248 8.492679494182372
Ni 5.1792643625263475 8.21506614929737 8.573765927570639
Ni 2.739067689531876 7.452773123360598 8.698589362741124
