42
Energy = -185.13998935 eV
Ni 9.60489546576492 6.340692912627861 4.727027007459416
Ni 7.459694523453587 4.655829454252983 2.641621444809384
Ni 9.448097915100972 4.92333477532635 6.758878853254828
Ni 8.614527855368209 8.445293631171332 5.091481462345425
Ni 8.076876879161095 4.628624879410893 4.833053627022847
Ni 7.589526157645129 6.953932660384466 3.5428704825658754
Ni 9.856056128933083 7.328926772483451 6.829702384057967
Ni 8.118944879461099 2.8196286848558625 6.3004947879424815
Ni 7.4044219541777645 4.50815431318458 7.881465496981316
Ni 6.837503619413045 2.800878192750615 4.062357605561223
Ni 5.816464286849947 5.742404147042193 4.4592817253561225
Ni 5.883934185068794 6.195500717407889 1.9646620270944315
Ni 8.35817259324814 6.5686636166914685 8.522697752811306
Ni 6.2044121322538555 8.02590403879166 5.5777767584787865
Ni 7.198162169563675 10.293975470225723 5.686963042619206
Ni 7.002726638694309 9.345494890747602 3.6182893106355136
Ni 7.6408250476728785 6.39033512965398 6.308659241903477
Ni 5.2399630499529 7.943617104993106 3.3227618428810954
Ni 6.165453285064934 1.398400820205244 5.831804418732549
Ni 6.451183978641804 2.332869630468125 7.963069298904791
Ni 7.95923497231154 8.682233030613276 7.335122922661987
Ni 5.180075910185401 4.072919847386828 2.9087190647338046
Ni 4.752253542410102 9.645558279067536 5.119790009958489
Ni 5.8249277050146 9.762223775453203 7.409811796299894
Ni 3.7933272219854155 5.987897163015067 3.0701190649404992
Ni 5.965800127899496 3.837549399978868 6.033563220194182
Ni 4.4705812034329675 2.5199237202995146 4.564757405245384
Ni 4.27557242252935 2.4249558060806633 6.955725140268985
Ni 3.7560033747265686 4.745490825529576 5.374144037805492
Ni 6.140655258040678 7.570538495972114 8.297475314158106
Ni 6.33359705375288 5.713459614543134 9.591082111971048
Ni 3.8343580689672865 7.3285099934136655 5.02924526531818
Ni 5.211952461137932 6.028142064609197 6.776330041855748
Ni 4.141071545820108 8.203843922774698 7.163250789782583
Ni 2.811946938588857 3.8460644222352567 3.4605838625198393
Ni 2.340711831891323 2.9378645215166754 5.673490776869927
Ni 1.9294617477024376 5.948388445090027 4.5193302897562155
Ni 5.08330793683261 4.172014952433506 8.38951546343007
Ni 4.036120767018976 6.293270774647236 8.734095459017432
Ni 2.5531895844379333 6.4661382541004935 6.798135322454023
Ni 0.9922138842822369 4.735030396258625 6.234028116399832
Ni 2.920339724095264 4.3299060599581605 7.586711244539337
