48
Energy = -213.32654253 eV
Ni 3.1266265086425964 3.443125264879186 0.6851707585580676
Ni 2.4373287903192344 5.583936489654918 0.17203380948975094
Ni 5.157105722198426 2.1580350069401004 0.7630054955041804
Ni 0.7675222505516615 4.000779654071215 1.022293653692853
Ni 5.167192761516189 4.653484506457769 1.195696674091531
Ni 3.1785135120880397 7.458359973399766 1.4581275541057537
Ni 1.954868518643638 1.5698829608187448 1.481022212013704
Ni 8.857110007314851 4.030327905203378 2.917699051344272
Ni 1.1536871272841602 6.238162927746514 2.020996909978455
Ni 1.9462883332185217 3.430700542758874 2.8671943883827433
Ni 6.959037824652667 5.6824731002740245 2.657562016743487
Ni 6.6566998815255305 3.1960108186662652 2.2868390591456804
Ni 3.687874981198744 0.29935833458374583 2.439115989691228
Ni 9.472498431224063 2.280558149645877 2.7104476463541194
Ni 5.9528356969094025 0.8954736834808333 2.8079734631991355
Ni 2.62037780077981 7.364388702432116 3.7906386060508304
Ni 4.878284809751251 6.970393851164666 3.1618719117618883
Ni 4.105333295311457 2.5634540402569304 2.7039053387566243
Ni 3.2656730983857805 5.336566577808669 2.349512314273251
Ni 9.25300831551259 4.636207883087824 3.247514779347201
Ni 5.034548911488245 4.629467075383721 3.6507293270477756
Ni 1.9918929228119373 1.3353893480773735 3.9334077492947763
Ni 0.20548048205815353 6.961967548382741 4.058745840569845
Ni 7.202180155289429 4.210909091136554 4.456754672985191
Ni 8.64370591440044 5.931608291561332 4.525135795445676
Ni 5.647701434838463 2.4456947348918976 4.474014235745408
Ni 4.05736480212768 0.796819628588546 4.786865880181429
Ni 1.7625007971101383 5.21926525769851 4.301855683422664
Ni 6.454169621883195 0.47557089879754333 5.251088271521367
Ni 3.3402417292996165 3.3787466592784123 4.87890355776637
Ni 0.7494788894813528 3.099340397388394 4.956059670946898
Ni 1.7036396303653993 6.890195847026883 5.993488046355477
Ni 7.94240173053722 1.9543102259206921 3.9730458012952226
Ni 9.25300831551259 3.669606141841143 5.28585130153196
Ni 6.261873131474654 6.398796552342411 4.999791879923553
Ni 3.7601396345451135 5.748830500178489 5.4405568086977745
Ni 9.31522035103528 5.264510292711711 5.644202569794281
Ni 5.409348273921713 4.192803388304097 6.0078298651100095
Ni 7.2995750667282895 2.5806199297303367 6.287770947658432
Ni 4.411547022433538 7.8802115544004705 5.418874367285303
Ni 2.472396619730215 1.9803570700049373 6.397864823521563
Ni 4.968554715226158 1.9257177565385368 6.705654841480899
Ni 7.612150055224209 5.047927828282255 6.628558900552631
Ni 1.8401303793636987 4.438436680144273 6.6101424051693884
Ni 3.785828675118678 3.779079523492882 7.617707192202378
Ni 5.455642759968323 6.119815702672727 7.256831646861062
Ni 3.1738590237859983 6.1404954064452975 7.681872128297623
Ni 6.164183100051387 3.783129152793375 8.109077014197089
