40
Energy = -173.94517963 eV
Ni 9.129986415354503 5.493796879452134 7.51870147342689
Ni 7.894428323059832 3.575688333258463 8.537402024214046
Ni 9.960932808542513 7.1354344824788525 6.038495055275967
Ni 6.993242846399776 5.768779924944571 8.360699533525557
Ni 8.105147108110444 7.701859251149056 7.396851437409959
Ni 8.037024604405852 3.7715664930274464 6.243152118290306
Ni 9.974648405317925 4.841020841150158 5.44021934624962
Ni 5.649147224889152 3.8993841404456573 9.075489927467983
Ni 6.235172078892164 2.501655683742548 7.093312179690879
Ni 5.624752307861835 4.716245655421313 6.757198933923192
Ni 7.530338347816409 6.046322174511051 5.733876011849823
Ni 4.592850468971698 5.94746309480801 8.571853949735342
Ni 10.37846130049527 8.654409182381483 4.314593101378639
Ni 6.290600517855618 3.203107338835372 4.736843815004343
Ni 5.773407231580251 7.585743566623312 7.394227739271758
Ni 9.300679369734738 9.418471179285216 6.282547584220138
Ni 3.338661726677193 4.256103703289391 9.593116695136832
Ni 8.162500686117218 4.475805186421233 3.965321603205777
Ni 9.494856587036248 6.481872868560587 3.811473211719032
Ni 3.9076202239619873 3.2010036355903884 7.617976607895534
Ni 8.136342151906257 8.202221812386773 4.709010660230664
Ni 4.401558661192001 2.127657010558631 5.593984227189242
Ni 6.824695958591452 9.381768712603776 6.263203166237038
Ni 6.259251068664451 4.405332457564898 2.5537181634995423
Ni 3.2678073848423534 7.756793522968242 7.8921717692218065
Ni 5.429670136143846 5.372742389418326 4.476696586364815
Ni 2.5729050490422556 5.240497819058071 7.5897540946282245
Ni 4.090469387091966 6.536424324785406 6.104273919433703
Ni 7.225418450020941 6.526260361152026 3.2522971249826105
Ni 3.435802959826991 4.2608344110830645 5.5536192457153435
Ni 5.833726140946539 7.7498009078134 4.7919681711826225
Ni 4.3916331754553175 9.025992613403305 6.145038448282092
Ni 4.26077405488442 3.3853095987068693 3.508044477360151
Ni 4.173201414566351 4.7727479393705625 1.5936042781766986
Ni 1.0708112336871236 6.993681868192814 7.513906473202452
Ni 2.0743401643728907 8.464229815773223 5.992850900147523
Ni 4.971112952469421 6.739427673338048 2.6524851404542233
Ni 1.888385901448283 6.189456341225011 5.443552853816542
Ni 3.458953646211247 7.746487770417294 4.224799982073386
Ni 3.119350563946309 5.499102149074802 3.5544239040802164
