44
Energy = -194.27907097 eV
Ni 3.4608005304227376 4.442359545707038 1.5837607573712569
Ni 2.348966424271041 2.4528688035363353 2.5344336991038507
Ni 4.687840441015047 2.441911631772275 2.3207593270283513
Ni 5.702139411930877 4.5183684602583245 2.6123825601296664
Ni 1.436653507644314 4.537899162921626 2.849650399880248
Ni 4.766659669942677 6.4519712758257945 1.6459235928455178
Ni 6.484415986518175 6.751733298363002 3.213790299190218
Ni 2.5943828873151005 6.534629322525336 2.46731472227976
Ni 7.779337557608868 4.754846267569087 3.5919135398321265
Ni 3.7534237459919475 4.062056392395746 3.8660718121574305
Ni 5.9515388831375855 2.5830218975755503 4.3914944303332275
Ni 6.675802745939069 8.761779263469172 4.4888179291238
Ni 4.624493674248649 8.407182109051137 3.0649651341549844
Ni 1.8422739943938748 3.2127626366414908 4.839478471118539
Ni 8.542835548005085 7.029608735892734 4.211237796250561
Ni 3.6937168570825816 1.6338793243201246 4.284272296819877
Ni 2.4698479282307653 8.00974237503669 4.259453017120263
Ni 5.909375085158632 4.737696945241773 5.056336390077398
Ni 2.084874953927707 5.678151162525547 4.766150497769063
Ni 6.116482849801072 6.982500136218297 5.802058525696471
Ni 9.892212310890029 4.928693026512748 4.459093071254103
Ni 4.330436945480998 6.392566391182391 4.070243720385559
Ni 10.199067112121101 6.730503523028302 5.965230139647008
Ni 8.069302024953958 5.543675040918122 5.933232530664705
Ni 3.998112579237983 3.1556151224990856 6.0096663507929415
Ni 10.076436149980163 4.431916351884391 6.717027562767312
Ni 8.221515038057387 8.01657206683113 6.372318608151259
Ni 4.343370565256414 8.50329235715841 5.505071096606317
Ni 8.128884955423352 3.274301723364862 5.479395337674828
Ni 4.083431090857426 5.658230351372732 6.308248541870418
Ni 6.169507249761205 9.142430726979292 6.856951996929334
Ni 2.160411689866126 4.501223904145679 6.861048257885924
Ni 2.457241854299041 7.271114181782531 6.517368345082983
Ni 6.199984108205651 5.268065211802678 7.483388171927624
Ni 8.9806062840265 6.255314521419966 7.939369445861929
Ni 6.888944304905079 7.381915458725758 8.290058532574035
Ni 6.181889505945255 2.9719213749696882 6.853754545281053
Ni 4.567055899580697 7.530059729928988 7.724334668500864
Ni 8.138872521587306 3.9290860040629174 7.873106721418625
Ni 4.183188314743136 4.068086499989301 8.14510259162137
Ni 2.9352382468913496 6.051334570560942 8.531232940025504
Ni 5.167331126978421 5.912824509386454 9.433611947494214
Ni 7.507392583526168 5.502988304724908 9.601406630221042
Ni 6.196358244111637 3.595953689193531 9.222126436350827
