45
Energy = -197.48822059 eV
Ni 1.7183344868688215 0.35334453623690326 4.771475741023814
Ni 7.834655867408965 0.9491941778462272 5.153841442099608
Ni 3.813316400380659 1.0757840201288111 5.626258111075289
Ni 2.8307918576385798 7.183361003461313 3.4912485593535516
Ni 7.870873557679087 5.456064064174013 2.083070699468612
Ni 5.5410985556984285 0.15211394786776258 4.1277305138977844
Ni 5.92189719053528 0.6044973093895961 6.559296867871473
Ni 3.112398829781264 4.481516837836264 6.7297100743989615
Ni 6.066349658643215 4.546935271269073 6.1262198892500725
Ni 2.2411861878823363 6.6093614160279754 5.94892457891932
Ni 4.185377325490557 8.019610327644854 5.329101313434317
Ni 5.176037626568729 2.973142816019005 2.72606824647757
Ni 0.7910224460466617 4.485165024295083 5.992579170888523
Ni 7.870873557679087 3.4424641605822655 4.570844670545334
Ni 4.0738490146702855 3.485608997811462 4.780595041771991
Ni 5.239961087518283 7.171312756230487 3.1801162077117873
Ni 0.41443504402243647 6.225262335267365 4.2502790653351745
Ni 3.4833455620263574 1.0060230371459487 3.2771425340755447
Ni 5.3901839336508015 3.1217944966362388 0.4643618235250213
Ni 6.323804552969152 6.8587658976029 5.414265910922711
Ni 4.332220747122846 5.801024232292586 4.9701595167863974
Ni 5.263041920061809 0.8941411428828587 1.753353140664821
Ni 4.816657543108266 5.3547356590303155 7.732179639210828
Ni 2.4669257165578666 2.280480838593242 7.18817483271286
Ni 5.956149149979985 5.416111078974566 1.4288142689985082
Ni 3.824322709872092 6.709622915468673 1.1931232173068989
Ni 3.145652188488042 1.8224912399872994 1.011971138840616
Ni 1.1514008290583997 1.5245642418809435 2.7431616127121106
Ni 2.255790948882514 4.9465987657913635 4.298695230052865
Ni 1.9004549366630747 2.6149884208821055 5.010933492951944
Ni 4.598664674011845 6.336752007460723 7.12310228150139
Ni 4.113562234514347 5.0860744814411305 2.7592011231271134
Ni 0.3161078726754791 3.7720437263028344 3.4776667721047296
Ni 4.802978946054257 2.7392947907295913 7.050199286853375
Ni 5.95689900402127 2.2706676383154343 4.9079373151533146
Ni 3.286087704664932 4.16216264898066 0.6136286822021293
Ni 7.370557661320367 3.7145813957942333 2.1838327237464124
Ni 8.07672260126107 1.8152225691736759 4.656942541171059
Ni 0.8403566456460351 7.486954501090218 2.314777147595367
Ni 1.8535563344169899 5.471165846030527 1.9457602375648455
Ni 7.240842616714157 2.606973252278825 6.818711727775514
Ni 6.348010921068004 5.075009561121997 3.7907641792062425
Ni 2.7242364403282116 3.227444798016834 2.7833129366403044
Ni 1.0579029066563779 3.341848087965693 1.1560975303631542
Ni 7.187279871514851 1.5617238788365826 2.9944569730208492
