47
Energy = -207.21560845 eV
Ni 6.03423035385091 5.837387265498112 6.500484439501385
Ni 4.709082393621287 0.26665375971211064 5.737717508571941
Ni 7.092397465790851 4.418608125534802 4.964770959517265
Ni 1.1468323250008043 4.491788894483969 2.456609936904037
Ni 4.915388052273415 3.9333526639412186 7.300394376383783
Ni 5.290276758242116 6.069201352656824 0.5383865291882961
Ni 3.6916459538471194 5.447545588683698 5.845758134127712
Ni 3.160258751649371 3.1304578673054606 2.890991000458082
Ni 4.482396562307955 7.629356177139686 6.205784301719866
Ni 7.588412518581973 5.9712595878282055 0.6576807843266838
Ni 8.070871697459129 2.3259464626155943 5.176781762322278
Ni 2.1820450581737014 3.7455623141332333 4.965595335620167
Ni 2.352644901346183 1.234410425272011 4.540379391924222
Ni 1.031376460894242 5.929439820482675 4.488359537875182
Ni 1.035630774059713 8.410579638773205 3.158030956109921
Ni 2.4356333085464468 2.924278899163904 0.7931995435665418
Ni 4.060095570883544 6.068147060967142 8.014376017364897
Ni 3.5200870993871014 2.2670168531135717 6.321268248313517
Ni 7.336013671377597 5.110672965098689 2.8118816154333093
Ni 5.879557067844698 2.280601298557182 5.9014221439258865
Ni 4.587226915457431 1.4536875000999596 3.7771489308392203
Ni 3.104807533812332 5.400296459570929 3.48789337651589
Ni 2.9152655151645366 0.8724950304162213 2.1729173305436915
Ni 2.9977385137604573 5.321400168871403 1.0930204638790866
Ni 5.212759509416743 8.410579638773203 4.046379851648833
Ni 6.680923605128448 0.6267304929268065 4.2578187260753415
Ni 6.727855610947359 3.77142808355246 0.9191768457930417
Ni 1.6814427505342362 6.909983792123508 2.396159761189777
Ni 6.595169698353159 2.7816950372959806 3.1929700179417546
Ni 0.5560997038892229 4.800709343115441 6.460607333162923
Ni 7.10913855723266 0.4810114233355212 6.503951335497813
Ni 2.9439556121776467 7.520503668938634 4.437705503345999
Ni 4.486585402334554 3.9151798047967863 8.527047470965323
Ni 2.553865068485076 4.148099747101065 7.468566707308098
Ni 7.256516068388905 3.6967675662561827 7.131954197439375
Ni 4.883989187307045 2.206250377994671 1.5383755038683196
Ni 4.074403742667086 7.21561641727053 2.264349054661979
Ni 8.541523783756425 1.321861378710141 4.666917119456652
Ni 5.27280997179089 6.128372944407263 4.168624234723025
Ni 4.705435062886516 3.7915457971051163 4.576969526747169
Ni 0.9538239371769317 2.1698068071020096 2.6941731097043724
Ni 8.512378334702616 3.6802241824389883 4.425031504891728
Ni 1.0838712294693764 2.417820738369453 6.44997928493654
Ni 7.380598388958058 6.78005406948818 4.611812511908702
Ni 5.042624806612583 4.5812731477832696 2.2826549030752905
Ni 6.450971823313626 7.220096055733406 2.3570730529332984
Ni 2.040636135317428 6.706048065936289 6.642654578264565
