47
Energy = -207.96636647 eV
Ni 5.445127857152866 6.509779563629939 2.0891352940844086
Ni 7.810579045872476 6.693270959158635 2.038848501901057
Ni 6.840932789367849 4.64426573170817 1.5666385436404986
Ni 8.07607341133961 9.126184665923224 4.761237274330841
Ni 4.793582536152138 4.285511441977351 2.6527690465132547
Ni 3.173686657656549 6.091019537146266 2.379369970051123
Ni 8.656403368152835 4.708929237609107 3.1586674917153226
Ni 4.084912350751552 8.207407986716095 3.3751204314965766
Ni 6.48072232152852 8.054875804484237 3.4649774089526644
Ni 5.605002592149084 9.535984173772325 5.100569508481091
Ni 8.547526368435008 6.914188559033178 4.218568132521188
Ni 4.482924477952761 6.223121884116751 4.424973750061135
Ni 6.662089508361774 5.495160645404644 4.076818473163804
Ni 7.515574946814903 8.963550466808213 6.966251522173815
Ni 4.8705533872940325 3.959126438084656 4.995113565352686
Ni 9.550449648576349 7.6983206656097245 6.136070040337539
Ni 6.805476813145636 3.1237399970157975 3.3560831893384235
Ni 2.783858663805594 4.207678648553997 3.835021380472018
Ni 3.6943745963220125 8.136292254110973 5.732111143748341
Ni 2.2088722601242208 6.776393463068136 4.414373229284141
Ni 6.1864036901317165 7.424158089538317 5.732226169223411
Ni 7.157363416531545 3.6850989571035533 5.674380583444028
Ni 9.746944828780263 5.092906584052646 5.243023380745502
Ni 8.98649165056261 2.874402199492783 4.641808433228471
Ni 4.685108396088289 2.0207446484427525 3.9561481538204992
Ni 10.089003624327166 5.72368218373581 7.515381266499553
Ni 5.183961584690223 8.871872488893183 7.445171555864835
Ni 8.792835064818009 7.488239544538956 8.33146821484899
Ni 7.963430016028807 5.939360953330942 6.449320344617875
Ni 2.927889709009697 8.762650598498551 7.935560024880811
Ni 3.046664810061963 2.7833924874069713 5.83963915390131
Ni 1.7624778939671062 7.028736560908511 6.7511282690221295
Ni 2.9763674880105877 5.134913944674434 5.971119473973802
Ni 6.923484095680018 1.4715881527116113 4.944217573193821
Ni 5.707732665426548 5.3205358291598 6.654825551065387
Ni 6.523756747789011 7.129767960508222 8.186015043620127
Ni 5.248346905412545 2.177668577549589 6.424070745080266
Ni 8.968761140212507 3.6688373364293625 7.07922467481048
Ni 3.9539371082928216 6.557449677008837 7.611727102051417
Ni 8.013116353273473 5.2257425702334945 8.68981159245988
Ni 2.0483293205453252 7.029943287845996 9.15194109708523
Ni 6.586658171975003 3.4460649411499547 7.935740449867843
Ni 4.51206558491877 7.573829946600612 9.527183389014397
Ni 1.925015883467452 4.932878383997128 8.00079382547834
Ni 4.125701664980367 3.8801490179085243 7.773976085716694
Ni 5.6471701392734115 5.238129359864552 9.127546101397293
Ni 3.4547831221572975 5.294633048397651 9.696132278502182
