41
Energy = -179.33844673 eV
Ni 6.873399298494119 6.672441898591744 3.8287294825285754
Ni 8.030858708641862 8.488111304620517 4.836640571276951
Ni 9.0744450992114 6.319020719605736 4.687013000838982
Ni 6.762723167859152 10.416863791123715 5.078744435723949
Ni 10.798295711306844 5.975916089477454 6.193326528542766
Ni 5.022471992512818 10.76012764158515 6.5998503745182155
Ni 5.4317466037912565 5.644095101437915 5.337628051423716
Ni 10.297581737770294 8.190569591089496 5.575665394906576
Ni 7.454021646201878 4.576688231816903 4.757730891003757
Ni 6.680799359323226 4.683597631676606 7.089927369721534
Ni 5.593543410625416 8.107504844751581 5.247252449506459
Ni 4.365347633959883 8.856638214213552 7.682189383272129
Ni 6.6428582143951305 9.092086477304596 7.040241841416428
Ni 8.999355723046225 10.390870314326584 5.906546099758392
Ni 10.99981284436525 9.87792456196643 7.084128634238049
Ni 7.455361532470055 6.732457954241154 6.325638968387883
Ni 7.208750597332297 11.313239353530335 7.263295294504701
Ni 11.098299028816898 7.592337121030554 7.908358411469715
Ni 10.764252073727576 4.719443712269292 8.17323033084687
Ni 9.015287500989402 4.492521195094756 6.480383068096991
Ni 9.439500866210373 11.43433795393393 8.082323795509033
Ni 7.381470674143241 12.089273552922423 9.41086283721394
Ni 5.269356807698833 6.743716056736841 7.396920745150263
Ni 8.284521588167435 4.289599037268817 8.802370374250835
Ni 10.17008409461571 5.5945225783290455 10.251440502017305
Ni 8.993316394301576 8.61848750383278 7.425165408209932
Ni 6.049304773543423 5.473030014561981 9.205629732321743
Ni 9.112980789060504 6.26489803493703 7.987115528668663
Ni 7.2067530204928865 7.512614693639843 8.691513242466504
Ni 9.47080685055763 7.775768721528528 9.796338996930052
Ni 9.377616887015893 11.511340895729639 10.532457613215161
Ni 10.549424712136133 9.773906823163687 9.364400588791012
Ni 5.784586001332513 10.212887611128783 9.108354114499042
Ni 5.148959468393709 7.869356541609462 9.682340670370591
Ni 8.110424274070093 9.827782180140764 9.240414468843733
Ni 9.305982343703098 9.378838368217453 11.501591780204006
Ni 9.168146193120716 7.086435342791971 12.000626014756724
Ni 5.865832073349951 6.4129705336375515 11.39332534593251
Ni 7.917659209064202 5.953031287821349 10.443434872806026
Ni 7.21595375266146 8.27572537614006 10.973474051196717
Ni 7.239566642855616 10.63048044351031 11.244838035999441
