49
Energy = -218.44334899 eV
Ni 10.048128247702477 6.021384985939633 6.91565229347854
Ni 9.095177290276084 5.603647544919351 4.7960322360588
Ni 9.554397139029465 7.856997400143413 5.425215582893755
Ni 9.093477533975566 3.8768167576068744 6.626256103847268
Ni 8.614261584822902 7.217120608393736 2.9842476900167276
Ni 8.816172430942906 3.346945415943043 4.329678046617144
Ni 8.451529499750244 9.404323762131694 4.006794783324677
Ni 8.285706723212126 7.413520096924209 7.447785471828487
Ni 8.430189530210253 5.287146941132966 8.52884711178693
Ni 7.43993406185474 2.341092937368617 5.95951403272673
Ni 7.331280667821859 5.373966245831526 6.376406737568818
Ni 7.748012789425314 4.981249567486572 2.9240293927290426
Ni 7.62033799496856 9.325468948737953 6.2057592981819925
Ni 7.060767657381732 3.441382406615249 7.963861835178598
Ni 7.341509217629832 7.408698659462031 4.86152742742397
Ni 6.544666793087453 3.1212755807086303 3.8840626793227777
Ni 6.928032178704216 8.921705788600045 2.3170570559317625
Ni 5.901074720923582 1.028910588609158 4.864762034858516
Ni 6.854020550411214 9.078850220179584 8.42450371211702
Ni 6.689695270897899 6.84132032987848 9.170491468544215
Ni 6.576996339628076 4.656048272339873 9.954612734237562
Ni 5.921045964240643 7.35506729740763 6.825673009582053
Ni 5.469064188470794 5.296000321003326 7.8259193602682595
Ni 6.0881463196402095 9.660553396910984 4.37463534788384
Ni 4.847026389346303 3.3700317291005053 8.959550547625755
Ni 4.987243872565128 7.652983870724966 4.70232187099478
Ni 5.989586918704493 5.4344530616271545 4.4415029767203595
Ni 5.404607682835 3.682895971014387 6.041743898271598
Ni 5.461923635137012 1.709113886249301 7.239844432268823
Ni 4.505721149109514 8.610694325539288 2.7199932821166692
Ni 5.469160615672129 4.472124780025542 2.23826513225861
Ni 4.466907272504774 5.892888235233804 9.760253160030551
Ni 6.217737951876491 6.779414786934681 2.489406171360481
Ni 4.687386242451496 2.0233687673362852 3.1092730906162807
Ni 5.274435958938887 9.607210083836657 6.706196123198728
Ni 2.6605533311251395 6.960651115315775 8.57641427363682
Ni 4.074061137601069 5.750874598910458 5.859480341947529
Ni 3.868947608534013 1.998403096806226 5.391349806969661
Ni 4.699551325039953 8.104657859766585 8.692095660179834
Ni 3.9921298414018387 6.188973783545171 3.120475759877468
Ni 3.1453955855536604 4.789055584441199 7.995588404027111
Ni 3.7571777781616853 9.660729156897755 4.859978675819506
Ni 3.1994884081123796 2.438629324367496 7.59772408681983
Ni 1.8643480217735677 6.237614064396412 6.421426611260258
Ni 2.6264537280546976 7.608451379222666 4.45667872382205
Ni 3.4681215200656825 8.024726010703136 6.65018169152934
Ni 3.9706072518829245 3.987191118177769 4.017033217197282
Ni 2.5402932594749545 3.9115464108814564 5.912081901633808
Ni 2.047515255105224 5.373829360708047 4.17782114944618
