48
Energy = -212.90600594 eV
Ni 5.280953710952451 5.208805262088031 8.318622151079923
Ni 3.314251494415295 3.8781794983906397 8.383558379785606
Ni 1.2304891278526098 5.039320454802687 0.6694745842404908
Ni 5.531775451010046 2.726510649924274 0.5763136449948645
Ni 1.2198651431363248 2.6636415965465354 0.6959124361516982
Ni 3.286193769732272 6.079596652359762 1.2616904557790867
Ni 3.3920575027073507 1.7397216507635216 1.1293734623978504
Ni 7.031606790344422 4.472815231069432 1.4417055418747518
Ni 7.51143156129924 2.038334499041665 1.7889258657630676
Ni 5.599314714594657 6.632600649288736 1.9044298899779477
Ni 4.67555890355892 4.373263801146524 1.9727085611802255
Ni 5.399501799015399 0.7928337087092449 2.1060485291965167
Ni 2.5028115949290144 3.7817217161327767 2.215724258087787
Ni 0.20789604827884048 3.8935409226548696 2.613115870594828
Ni 1.409347192615898 6.182516956215663 2.758584512444544
Ni 1.4075438221705008 1.7275438665326173 2.9485088420364796
Ni 7.915369336724383 6.354413354227238 2.8583008315030596
Ni 2.987264580985727 8.313500983112997 2.6137342345278127
Ni 5.962379939534184 2.821831856109459 3.1920853341534032
Ni 8.139498042934813 3.8691378359336013 3.4963280122735574
Ni 6.177151252412756 5.147463843974746 3.577822407009836
Ni 3.7535428870377903 6.3053130626273255 3.6876452583909884
Ni 3.6959845200025514 1.9771161583827208 3.432138112004966
Ni 6.834421163322465 1.0232596558610032 4.1656240789568555
Ni 4.678691637749232 8.29111214094207 4.223842772673343
Ni 8.139498042934813 5.284489336073162 4.4879374817242415
Ni 1.894368499240612 4.536796102974329 4.267163721097901
Ni 4.257539194582748 4.019512134568458 4.331480781489444
Ni 5.972800718916111 7.388688934585003 4.266247344718754
Ni 0.43622202946568656 2.7852888441313244 4.857657319429863
Ni 6.654876001327745 3.4903648351636227 5.416151859725235
Ni 4.94855135563439 1.789824842739956 5.514689494413647
Ni 5.3924018778033265 5.569937862266505 5.688951980968332
Ni 3.952777979466479 7.435030608369088 5.931859383567924
Ni 1.6691302709952338 6.7328422681842435 5.171804846346718
Ni 7.719517800067097 5.793411797233191 5.230163814550228
Ni 2.4376010624767264 0.6989113030666779 5.027933070505117
Ni 2.7421778805516994 2.866423195804174 5.669718263911269
Ni 3.173941858566777 5.191239897993763 6.084902049959439
Ni 6.310523925090297 7.336520680044295 6.7406169962773586
Ni 0.9067272731498456 4.602835397032102 6.497558615406978
Ni 4.83296604318073 3.607531472872451 7.017658170985734
Ni 4.520391154142459 5.935298899014188 7.882230768887079
Ni 1.1219664518971484 2.2401121502791033 7.12134640489372
Ni 2.1636309940953486 6.458223070992534 7.614626827444693
Ni 6.789403013777571 5.008092358503042 7.3823274616684955
Ni 3.432852822523617 1.638954814483424 7.43334430035928
Ni 2.67645523824645 3.931227135602629 8.007064963404858
