48
Energy = -212.4279705 eV
Ni 1.655862207421546 3.8180246509824065 8.2804399340579
Ni 4.032110143441654 3.3493442824940263 0.2222946883969997
Ni 2.290748244972354 1.7461600776838553 0.41996916513489185
Ni 5.198288561434902 5.426685505498459 0.8351626773114046
Ni 5.923171763041494 3.1884841354890203 1.575845047103949
Ni 3.003288130794389 5.583275062473585 0.05503976447672948
Ni 0.38950390976892435 0.49667210939304335 1.2111457069141454
Ni 2.557676870623585 8.756981066436932 1.864642728525356
Ni 0.15707394196218805 2.9129851570863394 0.9899688219221755
Ni 4.505142126120716 1.2116298151552287 1.3556424398040299
Ni 2.340206182698896 3.9391315687669812 1.6499516709675153
Ni 0.6867069705920933 5.407211869519277 1.2932452592996564
Ni 5.164687787563492 7.056930508890312 2.7384407058594866
Ni 4.179623532260683 4.86926296202799 2.809196966310282
Ni 6.832225424427582 5.265479401499422 2.604689381293391
Ni 1.5251422097126024 1.893347999941696 2.6988345405652066
Ni 7.892973078313925 3.0296195221165525 2.975404332311611
Ni 2.768944315314682 6.568214377913345 2.1166890246669134
Ni 6.0915892378067396 1.2952631165712394 3.266638655767527
Ni 8.630598802752367 4.004519352754103 3.0580566330462413
Ni 1.399216415908983 0.057444270196543905 4.00014347014534
Ni 7.238360715623104 7.086942386644178 4.218124110425727
Ni 3.936945952191131 0.29491160117823156 3.7138393238779464
Ni 8.04754976323112 1.6830766117172014 2.84534141666268
Ni 1.0644793464758744 6.001443018890221 3.6579384788088483
Ni 3.8024516091608875 2.5265987716583442 3.056782852029801
Ni 5.840766682884779 3.495194870561413 3.8720836856804723
Ni 1.8920215341629485 3.9052087778962017 3.987270097435004
Ni 3.398766850394959 6.566057680458648 4.4240612990364845
Ni 5.549382367391076 5.6945393598004115 4.635033125105739
Ni 7.829289177804467 4.7128198082218615 4.755676447151946
Ni 0.3562041212594628 2.2140424042319107 4.8169562685240335
Ni 2.671868826799883 1.7368803527935777 5.086863148214307
Ni 3.7984342683473247 4.020375515531677 5.150453825183383
Ni 8.843189691160804 4.508643667215223 5.3755016832949325
Ni 5.237846345530525 7.684809464009277 5.703184841933754
Ni 7.420781224765189 2.3354126251600715 5.289591177743161
Ni 5.009050919783989 1.8068134655874084 5.442829146865775
Ni 5.928142873215994 3.9579102416803895 6.155013415409432
Ni 6.9824612970413495 6.158436031199742 6.493430351893224
Ni 1.9963574430122997 5.571347938536579 5.9217262321750725
Ni 1.7990883439362035 3.339038888547655 6.50071668945609
Ni 4.248254718586391 5.705306962608753 6.768373433527137
Ni 7.998235397373095 4.001436005400561 7.093478215938685
Ni 4.038274369923545 3.207102168736423 7.360606244662422
Ni 5.550798683455591 7.120901326198946 8.043544604391347
Ni 6.317058134440892 2.283512106604539 7.57431051036026
Ni 5.931779207893032 4.749183309765427 8.2804399340579
