45
Energy = -198.58710603 eV
Ni 5.551282243170335 9.397350563092546 9.879297615968545
Ni 2.35574016070316 6.74514909534251 5.174218815343812
Ni 5.158826358362338 9.529331472631485 7.6609883318091905
Ni 2.070657105988128 4.516234661518262 5.976932961180246
Ni 4.458890909591078 10.280695840984423 5.560219992029883
Ni 3.4542122510227395 8.27775880355931 6.548559099194045
Ni 3.324871434400799 6.0407157084643615 7.31011303573311
Ni 3.8243046246451664 7.897400509489318 8.963828946034324
Ni 7.288173339185548 8.605486837528861 8.280396827886708
Ni 3.7335594724461396 8.452748682840008 4.126567216199467
Ni 1.5075586594396777 5.114398463092583 3.758583260782335
Ni 2.855215058672896 4.016034509487969 8.285064337886283
Ni 5.937446293257533 7.1692292967659395 9.87529961529045
Ni 6.879266686886523 10.00662835988996 6.07710297888521
Ni 3.469113410833008 6.331701021497076 3.1035125124529377
Ni 3.578041723895237 4.153783809697653 4.146670917295183
Ni 5.770183249501217 7.342400970017066 3.256667477996122
Ni 4.9495041635475685 5.193102711693798 8.946891668136884
Ni 5.831411801328401 9.741632203726741 3.7298423513283288
Ni 5.592414118893801 8.219458181235597 5.477977466042475
Ni 4.6303152559789575 5.996517182664802 5.2060549781606325
Ni 5.426965401312229 7.113781054250428 7.5694323353329835
Ni 7.495151619890146 6.0673589409795 8.601065602540055
Ni 7.693612760222057 8.409388775638599 4.345754205803397
Ni 4.210069594649889 3.6331850203207465 6.431189353586454
Ni 7.033212329879096 5.664308993013556 4.62171226715256
Ni 6.1383273326005465 4.9567558724079275 6.812725833264951
Ni 5.4413349690495405 5.064702355353182 2.8586743947794995
Ni 7.470684198127692 7.1182322116655765 6.417757400521388
Ni 4.9233129350550096 2.902831240855554 8.531268311822538
Ni 7.102124580870337 3.7839942837629965 8.696870292294408
Ni 5.817552392757394 3.617430753893757 4.676146883415509
Ni 8.222440277302805 6.526845761251831 2.932927710684118
Ni 9.405942185846932 6.999626564282439 5.096935192435765
Ni 8.930601827359848 8.93941639504639 6.434206851936731
Ni 8.513480410533433 4.890481201049388 6.444468434690318
Ni 9.422827379277244 4.688848608660305 8.524577311221734
Ni 6.422887415345099 2.590191368643123 6.724294811608635
Ni 7.5624890971422625 4.083275980902921 2.9668362846618446
Ni 8.708440861404961 2.712411105163003 7.321789534430296
Ni 9.473069782456601 6.951603129599262 7.615035642038161
Ni 8.08418343113246 3.034209706282182 5.033215015301463
Ni 9.455802826312892 4.845475573710293 4.197221976359383
Ni 10.7697512240279 5.456505608657336 6.283804409943052
Ni 10.345842417097778 3.2626140089508726 5.773079140947168
