54
Energy = -241.34949582 eV
Ni 10.487845259933392 7.739972520258842 4.277646080403412
Ni 10.661541400647488 8.244416509588378 6.57114668437473
Ni 11.280185072060414 6.068888129614383 5.802187953900718
Ni 8.319900111073084 7.253649988251917 3.5970193174272422
Ni 10.026916767394173 6.252253806132881 7.888421386603128
Ni 8.63287482753313 8.18499720728953 7.681164005081358
Ni 8.719478752669053 9.152805718822913 5.305904042023847
Ni 9.749885577147237 5.365173431962166 4.076329136330716
Ni 8.288756555246339 6.672110509071764 9.42497694652332
Ni 9.624542749272212 4.46045155683126 6.373046501727936
Ni 7.491406027579151 9.31082031917661 3.144347285619623
Ni 8.956435375070535 6.710638108264473 5.790230312760494
Ni 7.170271386776358 9.947635387486217 7.240930458485147
Ni 8.816795755815775 4.284206966994824 8.670065018397018
Ni 7.177864411279753 8.905248241775833 9.420365151651161
Ni 6.368214305376375 9.978388363315526 5.069595585777071
Ni 6.77540988054241 5.7144487136116 4.894842023363665
Ni 6.339390955680799 7.103551442246596 10.724454325230543
Ni 7.734355959816265 5.099865777683379 2.7933942579165842
Ni 6.850666094695471 7.1778193932385035 1.841553921588014
Ni 6.107839730432635 7.207149790301541 8.23842187164026
Ni 7.532975075195788 5.535131888339517 7.238710439471736
Ni 5.556113117678378 10.50723608143519 8.837421720048669
Ni 6.896231679223127 7.891900659610732 6.037584244090151
Ni 8.295480601047277 3.5794991086056296 4.605214880144904
Ni 6.627393020756923 5.075109582263826 9.550919126519965
Ni 8.33890766450977 2.5728466576996483 6.794789507472355
Ni 4.723654702204621 8.464320804202682 9.633141592024165
Ni 6.881250159451516 1.678540209946667 4.999013658628644
Ni 6.147902056400348 3.547147090328644 3.6626063403202895
Ni 4.86652102934583 9.07724826809916 7.127201600236312
Ni 6.677037432659846 3.138315021975354 8.334964783409365
Ni 5.331613384772547 5.639973881086997 2.8959971814264014
Ni 5.12407763581737 5.129688699993326 7.487266054689089
Ni 4.804463092447347 6.95559437790478 5.94657148519691
Ni 5.832989772030297 7.802267653563554 3.8017813418372364
Ni 4.256352546424169 9.136498683227074 4.783814675578934
Ni 4.442272213768657 4.743920305994876 5.047520607529659
Ni 6.371591109591731 3.6130001635827687 6.082435737300917
Ni 4.450976349057598 5.991272096113015 9.822774041183633
Ni 3.590167548782168 7.117361724533355 8.011947527294769
Ni 4.733281607755087 3.6430608116442045 9.579521818699172
Ni 4.508717338628357 2.348083849469849 4.979407909897934
Ni 3.898682152276609 3.7158917437956522 2.980827278635817
Ni 4.469040645648969 2.8589853597643886 7.358245881413207
Ni 3.5103541509470766 6.858487868944692 3.9599901858876643
Ni 2.1612176261477893 8.826878389576294 3.879256347911842
Ni 2.6550316022915377 8.216353291593052 6.145237340230773
Ni 3.0101612796973094 4.652486783179698 8.261190360412316
Ni 2.6226986730225836 5.843929804523427 6.272081304868094
Ni 2.630866331726048 3.5000748023211643 6.101257711894812
Ni 2.3128817418031846 2.4177833893562535 4.074191163941941
Ni 2.173264660797887 4.789863055946261 4.138692900511181
Ni 1.2591269412976351 6.880695765082235 4.6857143309140445
