50
Energy = -222.16593905 eV
Ni 3.7314418955673014 4.023953128927135 0.32349017383942696
Ni 4.704106461346099 1.8570391879313062 0.6914289797598896
Ni 6.161608393612928 3.7724695445791965 0.6382670993050514
Ni 5.03074382547632 5.633825743949279 1.4769214399023034
Ni 7.417443229590155 5.892780903205099 1.7164922182405624
Ni 0.7080541995059307 3.225045277588163 2.280388403419177
Ni 2.628236591490979 2.276356065275643 1.6384883227928335
Ni 3.4857355768602885 7.371029179077475 1.5031038332329676
Ni 4.402499141044473 3.4394203979411944 2.5271186559486396
Ni 2.6289324517057917 5.126288202077295 2.20312306841175
Ni 8.299655043197104 3.5307465640664986 1.667378131569189
Ni 6.472167491737772 1.965066394248287 2.2343572763679544
Ni 5.829559220386804 7.720664347772082 2.417544370999064
Ni 1.8337426241084012 7.279703193776487 3.242353697437927
Ni 10.496298423388149 2.9318595723984617 4.456804760338675
Ni 6.519942252994264 4.2323283563024985 2.9872198548694366
Ni 8.771249196579111 4.898268095083624 3.5905152936639566
Ni 2.3876037070692036 3.4629639626858326 3.955747967390858
Ni 4.229479107207202 1.175108571056419 3.039842699766433
Ni 3.765888996211449 8.74964872916035 3.447276099658216
Ni 0.5654448479886074 5.195386102753761 3.4989309063000253
Ni 1.7550347493526106 1.31196861028871 3.761562956856036
Ni 4.269801431806937 6.490943450620837 3.5346490106293436
Ni 5.841725745809315 2.2611096810188687 4.502031399881884
Ni 8.167065915063398 2.551065951880801 3.8942530362359262
Ni 7.096064498600647 4.255242736584081 5.205916722107864
Ni 1.521404198658145 2.193089807874119 6.149315577523055
Ni 2.5072336244720845 5.645661669473915 4.757064568295529
Ni 9.315463155968432 4.99673015409694 4.937824490920715
Ni 6.895497484008356 6.394863635331948 4.083100469865369
Ni 9.315463155968432 3.645755695644195 5.683259087839187
Ni 5.335746704041188 7.851862045645646 5.0782983335408955
Ni 4.721263708966649 4.481377366263928 4.6199236136977495
Ni 0.5135814600116462 6.772679705859232 5.299757937351698
Ni 2.7433797715344848 7.854557252722514 5.446115916173936
Ni 8.6511718060682 5.917722577213739 5.796703965583155
Ni 0.7271510594503103 4.469286599367922 6.0275014986246
Ni 4.194195338975443 6.21914270621433 6.360764009226283
Ni 3.629233109695611 1.7689653323040968 5.2555346570862875
Ni 3.0858489801863365 3.9633687608332364 6.243108349734564
Ni 5.432671175985279 3.6980019417857117 6.7744790078950325
Ni 7.733193000056241 4.2304170664920955 7.477600495098225
Ni 7.50174894277605 2.171644143907753 6.285174278246393
Ni 3.7160433806628133 2.331113887705224 7.777801133945823
Ni 2.0376554180002837 6.078495849803419 7.158823434490882
Ni 6.4198801155118 6.053524011887123 6.491086111006175
Ni 5.414956266796607 1.1768344563606838 6.609305258710348
Ni 1.7327030183238374 3.7577010792178034 8.083797649544202
Ni 3.90508332684036 4.780182781369452 8.261060244188425
Ni 6.291367869099043 2.4171138816135174 8.407767891723795
