51
Energy = -227.62422871 eV
Ni 3.951410354361294 4.341752578925942 0.4244551078095246
Ni 6.394598028274242 3.5213089009208245 1.522756746229211
Ni 5.932661239918804 5.9034757313569255 0.9707939650382088
Ni 2.1559512196829798 2.87156147894298 1.2161628280273613
Ni 8.161620162548346 5.118230264705202 1.6057574523149745
Ni 1.9977382074393204 5.039189901027215 1.9273968303846043
Ni 1.5332122056408595 7.301219335722407 2.680621049868936
Ni 4.28923695574162 2.2529756874243527 1.8547017611641612
Ni 4.583272176159142 4.78113183884249 2.488131643263681
Ni 3.6176946422358816 6.7207733679416535 1.408499999489359
Ni 6.434866433989228 1.317206389036141 2.6954164066100548
Ni 5.396583512006375 8.316392481143813 1.4063717822334754
Ni 7.933443784763423 3.0272966807865553 3.7733036241543703
Ni 3.034384115433406 3.5087164204560937 3.6414284690270367
Ni 3.0776900562337706 6.020524925912307 3.8115686009546463
Ni 7.4327863244200625 7.302628501102274 2.3372427470823265
Ni 8.97243624506805 6.00427938852383 3.654832054049053
Ni 5.541583722972651 3.11672156691146 3.693260895202115
Ni 0.7716638262785727 3.2808876338859605 3.1440094061240123
Ni 0.8862891666550236 5.5277812703171305 4.15637533721044
Ni 5.287033045157506 6.875755548149697 3.184621252242335
Ni 2.228877939482938 1.3351146951096255 3.0194945874137042
Ni 6.8644319639490075 5.1197292803341234 3.4976765864897508
Ni 3.55173211263796 8.41651083331154 3.254444447851959
Ni 4.369135729319906 1.0358718251534578 3.9957864634391984
Ni 5.988945368910825 8.987230269729547 3.6300753016621936
Ni 2.440920694755099 8.987230269729547 4.979640185690028
Ni 4.733241002067075 7.737383600335523 5.307077274902442
Ni 2.1718298006113304 2.1753364232881887 5.438640927315005
Ni 4.8740817749174745 5.2714367754204865 5.01542768829691
Ni 2.6936357926302494 4.476757600658865 5.86688189533732
Ni 0.31678249150498305 1.3409917301940337 4.485376958106451
Ni 8.340066227169196 2.6811777054209163 6.291474873988435
Ni 2.1509517912093186 7.495853698545286 5.2040599310696445
Ni 0.3030839443856557 3.6725035670756574 5.414265355778299
Ni 4.303086812565751 0.6741232650221627 6.4105531166791305
Ni 6.583179843075937 3.8809979821952547 5.667230117982556
Ni 8.279854083137025 5.330115472884512 5.79171340914481
Ni 7.1134868853730175 7.170063476284528 4.769058002028721
Ni 3.5987309003167023 6.425445693200399 6.847042518430162
Ni 6.464671532723418 1.473526266077793 5.1732816980857415
Ni 6.167165734045741 6.294591810090382 6.728719673296919
Ni 1.034591606689912 5.744009919648535 6.623850299465198
Ni 1.9924332883736942 0.7738874870254774 7.226201378873596
Ni 4.418152307276281 2.8582808591181443 5.652547912049936
Ni 1.2488070628214105 3.1396616405163176 7.456620542105784
Ni 7.2718098367786235 4.36098314913304 7.782648487811408
Ni 6.000298571245342 2.2676877106836804 7.388707847658431
Ni 2.681063975503865 4.76856282128166 8.245504075800225
Ni 4.881486564593607 4.445430269163201 7.442695265444484
Ni 3.5216172118964386 2.508241028271688 7.76990349427098
