51
Energy = -226.50117463 eV
Ni 5.030641235587941 4.430274780553119 11.328963393568806
Ni 3.9851665215912475 5.93120651584299 9.883703560223971
Ni 2.860492492388571 7.5836578275703115 8.602944595629536
Ni 6.375319504124016 5.935463856707676 10.072709122439708
Ni 1.9123463705083912 9.290207422489225 7.313344621545537
Ni 5.29656386507167 7.5391894601894744 8.721067495663737
Ni 4.2453451935947415 9.28077227591975 7.569718792014054
Ni 7.670905843364222 7.38595369619103 8.724501500490733
Ni 4.076597632176503 3.6121630045826176 9.280895516058846
Ni 6.50773657346433 3.6336898748226543 9.764992910160458
Ni 6.5671085362866295 9.32589698822715 7.905002517517484
Ni 2.804330099189737 5.270915573896332 7.914631091116127
Ni 1.8376559707583928 7.084596596133844 6.410286151996647
Ni 5.370605174764101 5.053085795280037 8.01659306130169
Ni 7.861347190477526 5.084890793880093 8.258083397689798
Ni 3.2996983297246962 8.801309988348299 5.518448525949529
Ni 4.1069372612841235 6.844306169485885 6.6927502569246045
Ni 9.64483700294874 6.60593897571371 7.589641086234015
Ni 8.107950744197169 2.7148643753350847 8.311559574474936
Ni 6.487829972394253 6.7145313234780035 6.680447300251389
Ni 3.6515232657965897 3.295204687980978 6.931983609679715
Ni 5.817720688226549 8.947407033920793 5.697997234027475
Ni 5.733752691187593 2.5661913788973827 7.846175774391852
Ni 2.693176347237054 5.076406513024838 5.517010594331394
Ni 8.296770370488963 8.375265471614902 6.653885789280039
Ni 5.0494824025186285 4.735860608564286 5.652669629352454
Ni 6.6008886488869365 9.365922620550178 3.444900799253573
Ni 9.896458107301523 7.417192075407331 5.1616386822641465
Ni 5.167457201196058 6.96008683820239 4.521301295675309
Ni 9.544670696600754 4.013394353390263 6.961289073080599
Ni 4.351659549151351 8.924238622565236 3.494137437587367
Ni 2.8207998711539894 7.026191642281502 4.081198126016937
Ni 7.324967869970932 1.3770746417233144 6.560277690567285
Ni 8.487049880127165 5.789430800832966 5.85556254401506
Ni 7.20684434855221 3.7855627389088755 6.278256210367987
Ni 3.4645867673061246 3.053763560542322 4.5338697065565725
Ni 5.378234948844813 2.2535479502237292 5.548436446005378
Ni 7.588903402539271 7.599634410282321 4.591618980870297
Ni 6.822418186893781 5.195151924692238 4.148630005059314
Ni 6.705443559562646 7.174399245637878 2.5011344828484545
Ni 4.32522382825599 6.978980729128797 2.1213328025602873
Ni 5.520028958842233 8.910796575974441 1.3910506570853882
Ni 5.587978293255922 3.2778930795833783 3.3932057720866187
Ni 9.06897258592933 3.9719162612486127 4.590395794128848
Ni 4.0467199087529915 5.073708357385249 3.472574299754038
Ni 7.478176622974261 2.314071523014422 4.406059858764927
Ni 8.87851009343629 6.017505433908186 3.336781903002036
Ni 7.9399060630879585 5.7565906637097415 1.1380044237776923
Ni 7.810020312833329 3.8310128348600636 2.5506221597299295
Ni 5.800695459155542 5.0559033436513525 1.8383578582956286
Ni 5.958526400592462 6.837434767569834 0.3102393240662353
