53
Energy = -237.62973911 eV
Ni 4.337623282810483 2.4274262212160598 3.2063247457608215
Ni 3.355298738154004 3.960230505433793 1.617047214293856
Ni 2.136099478240522 3.6222391551447446 3.617038723134385
Ni 5.672630159127916 3.9300438859768647 1.7367434761003875
Ni 5.701118835868646 1.7541601080260492 5.307069588286928
Ni 6.353626634510751 3.437830902563286 3.887541777132986
Ni 3.500331744926276 2.8410813348088437 5.408966131272805
Ni 7.96995431319553 4.21521904526753 2.5067345777169776
Ni 8.00163130708868 3.027986518579626 5.566745019405395
Ni 6.691469208141047 2.305425644052765 7.456532509627743
Ni 4.1986481049914595 4.687711653204193 3.8794449035796847
Ni 4.5835664035319 6.063009861813193 1.561400374024349
Ni 2.414565126037339 5.859614473998831 2.5673123712122123
Ni 4.41263092558337 1.7569072913130783 7.285188716371929
Ni 1.4921351139897125 5.619124110086303 4.808350745836783
Ni 6.9649176782119735 5.800951488019558 1.0406042146691024
Ni 1.3137784293381978 3.587529927002977 5.865885699181646
Ni 7.584648078929444 5.274531226995247 4.9999581920138905
Ni 8.466847449935315 6.450938816931877 2.8762038739782243
Ni 6.141222723589295 5.879382500939722 3.265846009967439
Ni 7.418553761600061 4.67545182670488 7.377536010570418
Ni 5.537247090162211 4.00024806447638 6.06825983612083
Ni 8.915468695641962 2.885379640094471 7.845069143772561
Ni 3.4487159254545054 5.320822149177674 6.230022182269374
Ni 9.639555263698508 4.592395407758203 4.098930750282484
Ni 2.8486294438341924 3.4817746582754157 7.631619991207611
Ni 9.576216724831648 4.766826151294048 6.457072920850876
Ni 6.2391105942403335 7.833293983448895 2.144170569825042
Ni 1.426996798128852 7.716334761300351 3.61429285497168
Ni 1.4826190158988233 5.525342236758995 7.3557687136816865
Ni 5.053087791373634 3.5890778519974353 8.603531917604142
Ni 9.458378425833601 6.7401460138795946 5.125356483634602
Ni 3.4944377109190796 6.942178032700273 4.38692394802686
Ni 7.376275294259414 7.798975903571028 4.422066508482424
Ni 5.477026084452128 6.438441241095461 5.479554505470016
Ni 3.652108258055681 8.074937384523396 2.3995927393665313
Ni 7.282662662185916 3.827937046173998 9.470822950758333
Ni 9.325407143758584 4.971777422954517 8.843160294454522
Ni 3.3409373505530238 5.164133455991276 9.127292604514775
Ni 5.308976344297915 5.7783737847786085 7.7756984595933805
Ni 7.359657929574892 6.985602530493051 6.73627970300787
Ni 1.9409297959936163 7.61007077483022 6.039124017666672
Ni 9.47382535306188 6.950095440399558 7.590477703866161
Ni 2.9505701552917234 9.270235992640837 4.488991186746084
Ni 5.212021547461292 8.596622534497584 4.1507373677833215
Ni 8.841013579065706 8.776400921656444 6.111716073780876
Ni 6.443993239435486 9.083644883284133 6.248421657022187
Ni 3.259952909886243 7.090799115604559 7.937952391812527
Ni 5.532731058173342 5.39162723452529 10.065809140626708
Ni 7.409091669112501 6.410417824825462 9.06783780730104
Ni 4.208077883165797 8.401488270895772 6.3013489326567
Ni 5.5480721512149165 8.009723202542654 8.226914222147098
Ni 7.834327938884636 8.670651651588036 8.26083703482789
