55
Energy = -244.16810866 eV
Ni 6.351777856184509 8.321938540274981 4.588561913023957
Ni 8.645509826193964 7.904827118184266 3.8572441472015075
Ni 9.304517924265513 11.585357615480245 5.841045702709879
Ni 7.7510468545624525 10.219839105523242 4.428435794107123
Ni 10.041296583222767 9.858428514171287 4.261066894971881
Ni 8.323798435152517 4.40270998153441 6.137799046338136
Ni 6.175257817132432 5.1660293320433075 6.924114571809933
Ni 7.477830856138248 6.550665319870937 5.543334748392884
Ni 5.445737159400199 10.532972164157 4.719855534277655
Ni 8.805596842130534 8.724881311214887 5.93960312279027
Ni 10.891724900618305 7.8574003956490825 5.247884394209882
Ni 10.94156446886776 9.97416653564194 6.449935942975198
Ni 10.352212697484585 4.310750838535806 7.357236889401582
Ni 6.482986265993808 9.537693268507 6.553421229134157
Ni 8.500174134794108 10.341947805725933 7.64105464036137
Ni 11.790613262354046 5.887055100187527 6.259335896469591
Ni 5.491966048861183 7.400198714992409 6.7838858545727785
Ni 12.169459430691177 8.003037484550893 7.306924430876717
Ni 9.56877706467832 6.439408829638951 6.618126831583244
Ni 6.912884594571487 11.758586977375787 6.07336391350881
Ni 7.999952550178435 5.2717275632704395 8.275616120202548
Ni 6.335548295059439 11.204105170676295 8.41035967646168
Ni 10.347189881437401 11.698840438099827 8.089947530314976
Ni 10.023766643119208 8.477943360594525 8.0821376001633
Ni 8.59390989572206 3.0606678298516212 8.164916458251172
Ni 8.22064819854726 12.73185788326023 7.717944214256406
Ni 4.128624925663312 5.759012194864597 7.897721402176872
Ni 4.270800982974511 10.1636571563077 9.523650351201718
Ni 11.17894288716054 6.181932430075932 8.537067081131669
Ni 6.028160696551969 8.882479726503165 8.7307589946643
Ni 7.737553992024033 7.636327944664906 7.7491270688040945
Ni 12.119469175913753 10.08979698901817 8.463654271956782
Ni 8.302540818097745 11.558218569741278 9.768446722518249
Ni 11.831563629036912 12.053805495558898 9.88390422995538
Ni 10.344039047651785 10.139891909782415 10.048796369559456
Ni 11.735967579505465 8.104863656121509 9.777853197067671
Ni 6.020366478979024 6.445595893801086 9.156874764246872
Ni 9.12268111671058 6.8794767415654485 9.62265921034792
Ni 7.666746809792351 5.320677718193065 10.624646505351645
Ni 2.7208937799770734 8.582946871010133 10.371908492392656
Ni 3.880158772550563 8.02013164099966 8.448813360599836
Ni 8.23668430969704 9.10665551095218 9.630415807028623
Ni 6.384849613417844 10.207694954341267 10.672948825804502
Ni 9.766383799250454 4.547584020887986 9.669867551743089
Ni 12.561472593084886 10.05270195746088 10.868595962902793
Ni 4.980747871307614 8.26280509816258 10.80054320530091
Ni 9.985528002161528 12.066617488394813 11.31038679326544
Ni 8.456211854294397 10.214973312934001 11.7499593828887
Ni 10.905400069843378 6.210559604369662 10.963989922866782
Ni 7.271082871369623 7.645530442679171 11.123681897988003
Ni 5.55402023404632 6.033660965632339 11.42948021734204
Ni 9.675972415618734 8.205070715415342 11.488047560546006
Ni 3.6608897963968126 6.391933805862282 10.106819876754912
Ni 10.7638485739538 10.116202708716571 12.414844878810591
Ni 11.960152495941797 8.093660957304266 12.08888667675112
