54
Energy = -240.68840704 eV
Ni 10.068998852247693 8.726767728884399 4.622206097592038
Ni 9.0237498140505 7.872139595493098 2.6267534487449615
Ni 5.510081759252676 9.60549084815988 4.079058586609612
Ni 7.791017016966031 10.210218697825253 8.112648772219698
Ni 4.50194577396834 7.596099924044981 3.845875323837301
Ni 7.770308731934544 9.221671250248482 4.179172570913179
Ni 6.592908801620875 9.99641062201988 6.103644378938071
Ni 8.518024437765453 8.6284880887622 6.540202530526255
Ni 10.610308426892187 6.531544065608176 3.8760298703811857
Ni 10.25455302059209 6.965861781988003 6.212881530089516
Ni 6.716675381924901 7.242265548492472 3.0728979780053263
Ni 5.525258803346059 9.605572409892364 8.125296340019224
Ni 8.398820414780289 7.046370650225039 4.758173469992853
Ni 2.401505037238222 7.869077677117177 4.894835975429225
Ni 4.260881941674182 6.096629671813711 5.602647893009782
Ni 2.734757983862865 6.1713296215952305 3.30163805412781
Ni 8.606139272384157 5.522790497045178 2.9830121754461847
Ni 4.253526963779214 8.902178692046695 6.0938781367739585
Ni 4.763882793058045 6.2297161554976395 2.0129214325523086
Ni 7.167462388552874 7.980919130498552 8.429233827926865
Ni 6.2568174819609155 7.702315098929115 5.626127237853764
Ni 2.0266019613370028 9.388893480658647 6.633798505703351
Ni 7.739985765348565 6.180170636485288 6.895749578442844
Ni 9.334934910853649 4.927401367044622 5.164154785775044
Ni 3.38671347875405 8.83415804181031 8.473734388512847
Ni 6.494465040406062 4.774436642596132 2.516107541090488
Ni 6.575260666502569 5.428835046018213 4.833074548673677
Ni 10.02587915847169 4.930117096131119 7.3509619601876475
Ni 9.340533741383146 7.048720029296718 8.377945118667741
Ni 4.4023761678385 4.555442252647383 3.659698540835586
Ni 7.837036473833295 3.4822558426532373 4.116900048907306
Ni 7.828914690590446 3.74208982641784 6.609412477875822
Ni 6.3350574932851496 5.896737479062818 9.326602309394397
Ni 5.202358754032533 8.015373362327978 9.875379427519894
Ni 5.012647156858559 7.125972669807876 7.674931325554186
Ni 5.678998846040801 3.2800295731464493 5.364153338829874
Ni 2.5653992255828526 7.149064531621754 7.107854774050701
Ni 2.0997847836537993 3.9290006131781037 3.650570928215867
Ni 5.865472967555126 2.60519573156985 3.059494603615819
Ni 1.9908874790672098 5.5019322170260185 5.4817119816330315
Ni 5.676200200727305 4.873010552935703 7.165942948654481
Ni 8.300400249708042 4.878326072373668 8.798848021260696
Ni 4.843340739110864 6.04826894297386 11.102496433376766
Ni 3.284686065705491 3.517498826974886 5.642579539662032
Ni 3.672407517370219 2.197708701725738 3.7232318903037274
Ni 3.2695248188024073 4.9608059150557615 7.515865554064289
Ni 6.918590811643239 1.3882559222624367 4.870394323209356
Ni 6.501579512849434 1.8148828195922408 7.1231809918776445
Ni 3.3884830338539365 6.559603440285178 9.31402101111106
Ni 4.487327239897268 4.431755324750183 9.450411353100412
Ni 5.167910650985434 0.4318281006345004 3.6480837717447865
Ni 4.554124434348523 1.3126155591111457 5.761194280906157
Ni 6.520137634049963 3.402734192727472 8.817213639241714
Ni 4.452354239223494 2.8576619528449765 7.606561331690756
