55
Energy = -247.00580826 eV
Ni 9.729694473136162 10.014682191247003 9.602951473029995
Ni 5.784916463841724 6.342403879458843 8.786604344204978
Ni 9.583380824477777 6.293220191745435 11.730126223623799
Ni 5.722079961353394 9.994199443073446 10.828514934284707
Ni 9.794610849707345 8.768022304434034 7.470965434432102
Ni 9.663122445536715 8.774162103046486 11.713458112122936
Ni 9.695604508271805 12.424575239775388 9.589257424642843
Ni 9.80866986285226 11.260888747254112 7.460119119521294
Ni 11.568282892023987 12.341572012518435 11.03149579141325
Ni 9.73425370503484 7.52640942468898 9.606372657308391
Ni 9.819872878772962 6.2765335129916995 7.465196242613622
Ni 7.604164588605078 9.990787210992583 12.32832155860219
Ni 5.7264460337977505 7.533380754355121 10.831603473882051
Ni 11.78973720899262 9.993867813955147 6.910408189147313
Ni 5.666472669418766 8.765744801703253 12.831186670575002
Ni 9.707460965405257 5.116654577478194 9.598438838197554
Ni 11.797104168077562 7.548136997051044 6.91231971800166
Ni 11.726477207698672 7.560727682757511 11.06067250532993
Ni 7.703252560484351 8.766979540689144 10.222920618888567
Ni 5.751778052263308 9.97319383505945 6.69100210554838
Ni 11.578296807236443 5.207460359354691 11.040761619469128
Ni 7.688834514545228 11.268975893193657 10.262847821163547
Ni 5.758337356642889 7.546603193630139 6.691411921305752
Ni 9.575342938568337 11.253103175540364 11.724584358090489
Ni 7.696794433708474 6.265863444313492 10.269329138778396
Ni 7.82760515528793 8.762628536520998 5.997640969682819
Ni 11.724465124933712 9.988329339160098 11.058546356041166
Ni 11.785675132847274 8.7720572491855 8.998248028909366
Ni 11.797656454452914 8.773573402593094 4.874892274586225
Ni 5.910175134608485 8.75461212020421 4.578700021903038
Ni 11.718662135211448 11.196927012283135 8.954301837857932
Ni 7.903374515048203 11.264789350566089 6.011606821005927
Ni 5.985284233146949 11.115725808712682 4.640603341719079
Ni 11.727691075399363 6.3461938542845555 8.959563549172119
Ni 5.921983214368602 12.329714353108095 6.7081275756997165
Ni 6.0006020484663996 6.393848588246067 4.644869403000199
Ni 7.757703200320179 10.00071161153619 8.106235945733296
Ni 7.920600084805988 6.261414262761304 6.015019561783285
Ni 7.933757249626539 9.975176510837544 3.9570249479320374
Ni 7.808001849823855 12.40987396084417 8.160446311693322
Ni 5.944173783033329 5.192229874077699 6.714564646377353
Ni 7.940373329469166 7.550387163942775 3.959069939167642
Ni 7.763441480486929 7.52804028675526 8.108198339158164
Ni 9.89201801026474 10.052363991397272 5.387489991796462
Ni 9.896878413043378 8.767031273591266 3.4056270767883956
Ni 7.823493571815519 5.120804347775945 8.170088034230277
Ni 9.903033084098343 7.483600071627542 5.389438270426494
Ni 11.550710919654826 8.777998436076938 13.167679856141135
Ni 5.692732469503337 8.761679470807893 8.745858544824394
Ni 7.608949847695797 7.549010253185778 12.332035679416359
Ni 11.47660180104967 11.148300360879418 13.103331374368903
Ni 5.775152787906824 11.18336570753391 8.78237727746497
Ni 9.53009067499325 9.966727792378206 13.758195281129076
Ni 11.487383111110336 6.40719803080961 13.108799331736153
Ni 9.537328357858776 7.578125268795053 13.761135736861219
