54
Energy = -242.64831022 eV
Ni 9.95062035563034 5.565028790224084 7.48416239074415
Ni 8.582913366018383 7.304705464029043 6.365903084313142
Ni 8.338618207928661 6.9433815581323195 11.196165752107015
Ni 3.5933229710204246 7.882358666879445 5.819489129555212
Ni 9.487188160316387 8.815355346472288 10.164359698259274
Ni 9.785130553326281 5.44916695732532 9.912490164854841
Ni 7.250510572629036 8.889194214385666 7.707646979807096
Ni 7.381277048717065 5.161273263581845 9.941197909247704
Ni 5.835694586705371 10.441956842838913 9.06818402116843
Ni 11.017782015291427 7.4755385040243665 6.487505282213251
Ni 4.054438770106006 6.095471432203648 9.624139011402589
Ni 5.460159259510238 4.46601326400568 8.514530879931154
Ni 4.841069836547811 8.855914159616141 7.558013954020145
Ni 7.439278507945696 8.165249594645044 4.35480451740736
Ni 10.865017267783125 9.801310385053231 5.883563783145869
Ni 4.705529805369013 6.064473895378231 4.713387207291421
Ni 7.385782922113144 5.689369953229537 4.91657797472443
Ni 5.085152899692634 8.285270346389696 4.024283496097238
Ni 8.486583132430521 7.110521319895664 8.816952744483146
Ni 9.813283606849705 8.162507850790915 4.482742170774907
Ni 6.2845658816674055 6.5891798702158395 2.9486608605072675
Ni 6.108020039783619 7.2499624786616454 6.227070120159958
Ni 4.657593841603707 8.452775285321255 10.000508155746985
Ni 2.974119883426536 7.789431121380877 8.317539216174126
Ni 8.804799171541857 3.97134991880782 6.1186150507170165
Ni 9.676012772270955 9.099691001760513 7.802045872368207
Ni 10.933473668262629 7.3124255687123805 8.897198972371134
Ni 8.228489558451587 10.542094903270547 9.11466379056333
Ni 4.263125103970985 6.054358451635334 7.189959944234227
Ni 9.478921955292202 11.324170671352096 7.219866346828523
Ni 3.46656607909036 10.19507653603989 8.978910679845796
Ni 8.471994921225706 9.769927735063753 5.762142398590525
Ni 11.966593407137257 9.17323866339674 7.8633762306444215
Ni 7.056569928509352 8.702024458292886 10.16490338278083
Ni 3.873337013313901 10.09749712968222 4.961276966664537
Ni 8.729546001185026 6.504415078941689 3.1247818440951853
Ni 5.939954299721679 6.755379524292836 11.057848372718192
Ni 7.072813144695024 11.245429465790865 7.125054627849886
Ni 8.807886892717265 3.772670099743142 8.566898218291112
Ni 5.669934814825882 4.425194075802481 6.078662348150141
Ni 9.94760269391774 5.807654629750712 5.079595329014233
Ni 6.0784504666129235 9.7011297351039 5.621469168820971
Ni 4.641748985967096 11.105655838189117 7.02563190851925
Ni 6.028584086923011 6.967194868116176 8.675917330946772
Ni 7.445824585806022 5.408622208927726 7.418212868617714
Ni 8.61840736340968 4.1383766917521445 3.7511684714482603
Ni 5.343907535231427 4.468218968674568 10.842051388106535
Ni 6.045216755044366 4.313219225868915 3.6209608337820196
Ni 7.0874119076557305 2.7866853100203537 5.038740377590973
Ni 6.827198601701541 2.92774891846014 9.70040775585596
Ni 6.9667505997822285 2.935176121802331 7.367149869832787
Ni 7.492454637143584 4.925876543406119 1.8619773128843846
Ni 2.6035778724445144 9.742131671344856 6.884177082885376
Ni 10.707541284587634 7.1366179115642385 11.234022910233064
