51
Energy = -227.45325481 eV
Ni 3.3245824515010494 4.447311566139174 3.500960589787365
Ni 1.9206038792357183 5.027164489598412 5.348144935742108
Ni 2.215609355504715 2.796767222675994 4.757355008504729
Ni 4.261815619219311 5.7674170385716215 1.8002297457521108
Ni 4.054746070127004 3.3251841210327697 1.6042868854810235
Ni 1.8880112451695226 7.316162799750919 5.823529573876136
Ni 3.6463336643627855 1.47374437871444 5.954705407331015
Ni 2.63834310411782 6.760288335413698 3.4311405723022737
Ni 4.291261386280329 2.2135359801974928 3.7156501979919163
Ni 2.8280978184690224 3.466905383583594 7.0560780352023205
Ni 2.9420728556716322 5.802020048847028 7.421508520612736
Ni 4.500062729583498 3.864975467095558 5.5112322653126204
Ni 6.479127674844313 6.651520815556523 1.6270278316365943
Ni 3.547745376345448 8.648605186557603 4.662242740080021
Ni 6.188695114097322 4.314339981886645 1.7137482480259059
Ni 4.405803903982356 4.458407938992374 8.755495249281314
Ni 7.151371470573598 0.8274493648951987 3.6294247230060077
Ni 2.236449544447319 7.98156687618213 8.192574044776908
Ni 5.9102462464514085 1.6159797912708382 5.421888987040789
Ni 5.986054911548102 2.0392363857701072 2.0971244305651244
Ni 2.1829542279450673 9.557238021853811 6.382109675382363
Ni 5.024030983886569 2.517415601006005 7.524889107083707
Ni 7.4684468758930125 5.605262612382483 5.241363830637409
Ni 5.762634588190041 9.513400462187713 4.3542999664162325
Ni 4.130792799963338 8.000805077725959 6.899592851036193
Ni 9.72671710176495 5.715152231765973 6.364820277625786
Ni 8.247054455112174 7.627783234146885 6.1545533434242765
Ni 7.83927718428817 5.605322112010833 7.679285949868465
Ni 9.418475573215474 6.636135700525745 4.230021502609965
Ni 9.243854531222476 4.216304011147557 4.600158685315526
Ni 6.687875824055741 9.433139765302792 6.5697323418930536
Ni 6.80909108980966 3.635215789521537 8.666759878927724
Ni 5.934206208879227 7.475671732765517 5.471467555558282
Ni 8.93329039113038 3.5476874461485557 7.027193046415078
Ni 6.304408482486055 5.763505158017033 9.464098608225706
Ni 6.533153301876587 7.542506924678298 7.915009044127192
Ni 5.418390971842233 5.628296545568366 7.040362944342565
Ni 7.334040598418785 7.601698854652918 3.635662786985435
Ni 4.469496787746853 10.224726548030581 6.292342260347811
Ni 7.966741209978965 5.276575774999039 2.906016414382136
Ni 4.350812527361565 6.9638980859917465 8.986232126436697
Ni 8.245231468944727 2.183905420694466 5.1710952338910845
Ni 5.183745225259623 9.348146840319213 8.460046362227235
Ni 7.3492190407811835 1.6977222367559042 7.367263066699568
Ni 8.260958134021697 2.84361566519422 2.784387612169116
Ni 3.0802070833461164 10.216050227069553 8.371092871588637
Ni 6.735372915600122 3.7340405135637877 6.365013844241324
Ni 6.455028892142287 3.451395115929252 3.9828992647847863
Ni 4.894209702625031 7.732033422789564 3.0244107354531744
Ni 3.9136793301807487 6.214302072162094 5.2417071626268505
Ni 5.623629391320788 5.636524943182571 3.745824977789139
