54
Energy = -241.66355531 eV
Ni 7.985131743138763 4.160244228736472 7.548070178766824
Ni 9.022972878314084 6.1148635998191105 6.61497126477088
Ni 6.866223171983584 4.111248868605447 9.567894391611
Ni 9.442331565997934 6.020736126394379 4.215300339159974
Ni 8.013232922028399 6.258593822765094 8.998291573531505
Ni 8.968107123013917 3.876963227942632 5.306798999624125
Ni 9.579927426998278 8.224785550488768 5.302563295275894
Ni 8.178561726099746 8.343763134481092 7.341739067572859
Ni 6.1372059355107345 2.350451540903102 8.145809389528946
Ni 7.931141339119164 2.061398545442923 3.947193830276422
Ni 6.844565753733377 2.741222433579409 5.897414429820469
Ni 8.726840877387446 4.067130922468905 2.8961810915504436
Ni 5.532139081423569 5.944666368658592 9.421981536936732
Ni 7.315495566273757 6.0418618091147405 3.3491060965891633
Ni 6.230066973586795 8.186520987220279 8.881059873174932
Ni 4.471355421572223 3.7390533792338654 9.266715773301787
Ni 8.43315849573034 8.093457496095802 3.126327017737036
Ni 7.039517911001169 5.098990246076203 5.510083162382847
Ni 5.884907371282773 8.816413629549368 6.563855883926915
Ni 5.589158478118303 4.469111145345739 7.349724664530699
Ni 8.877473676762294 6.127550797090369 1.713083258768653
Ni 7.391640233792693 9.61459634879201 4.8380844528038764
Ni 6.656673793815693 6.561113371973652 7.2688514521341245
Ni 7.492916762639924 7.4078920048193275 5.236343156259086
Ni 6.515738934090739 3.8408987346653376 3.6533549102734213
Ni 5.336723980236088 1.9495936214844063 4.056949184505765
Ni 6.604819630849298 2.3299187311290486 1.9497696159970674
Ni 4.515848294968009 3.632566135256159 2.439219708239302
Ni 6.806628887732384 4.656110472778332 1.4306955479831005
Ni 3.969965651628215 7.678234188129995 9.732266485558645
Ni 3.7272167118900668 1.7369588237304683 8.323920628882561
Ni 4.352562654944327 6.787075119751389 7.491888492010987
Ni 4.5341357884102615 2.4108803054822348 6.2814847877906095
Ni 5.194182053349895 6.786636710283345 5.26799521338511
Ni 4.175656167166714 9.268850262487003 8.110740586820821
Ni 3.2645727264994515 4.457366520037125 6.981296430865534
Ni 2.1421326196233625 3.4792149451098666 8.759172418348632
Ni 6.657859716811898 7.041354838992908 1.3317212422956024
Ni 5.0212135339735156 5.901490482458211 2.9752728098367602
Ni 4.660918041603514 4.500921969161738 5.014686279587243
Ni 4.941487685074881 9.719717030312019 4.612417358916396
Ni 3.0489473575275396 5.631790829710943 9.153779288035926
Ni 5.988894829579212 8.152263734891916 3.353970653234619
Ni 2.1899301651049843 2.4164952534638195 6.583137802615409
Ni 3.1200490164490633 2.8932132745922976 4.352473956244503
Ni 2.2780769592597796 7.634520730949371 7.892486265200264
Ni 4.744456564690609 5.5084227471125375 0.7344466214231525
Ni 3.507809512437053 8.540356993663716 6.006517111926159
Ni 2.6594865317664977 6.396909056284136 5.676516263551925
Ni 3.5663389125269522 7.6897982835185275 3.7972042726974813
Ni 1.2718431856371084 5.476953042468223 7.532479687241851
Ni 4.390621628430726 7.68719235643632 1.5885216189350602
Ni 2.8836061911273165 5.194541156561436 3.6079513284500777
Ni 1.5084559224705243 4.34505006282215 5.395409167586054
