54
Energy = -241.50970552 eV
Ni 3.988777574073278 3.730557332286103 8.685304411001969
Ni 5.028555077465812 5.990554513555205 0.15253354042309875
Ni 2.653034805663 5.5932927309258655 0.603547741856212
Ni 5.791060766358482 2.6937849192323524 0.9885271440734776
Ni 6.810136708626277 4.931013436505545 1.392255953408828
Ni 2.266374939651314 3.2755936395113396 1.374567288538594
Ni 3.7196623933661557 1.4897788540311492 0.6711751207739286
Ni 3.996943178018198 7.057058716318493 2.0474062003065927
Ni 6.370592594415588 7.29512667614726 1.7083561132411647
Ni 1.5831098452730683 7.200182369331177 2.140694206174129
Ni 4.399784398415508 4.553789898292754 1.8655650297936288
Ni 7.953746932376085 2.897866621134634 2.11353024353735
Ni 0.5631507725616713 4.945090019462397 1.6747652836289206
Ni 6.369371716682373 1.2306119854103597 2.918955186323402
Ni 5.767596823900891 5.874164481943973 3.4294862138510718
Ni 6.034837902810429 3.586503963162016 3.190741146922183
Ni 0.29118904867571843 2.7385517486661417 2.6629603357520453
Ni 2.474641944451272 5.250590192879234 2.963240610928739
Ni 2.1068704862846626 1.084752906991718 2.463726006116956
Ni 4.3031684973609075 0.010362106272589499 2.621871877000791
Ni 8.019384236343296 4.8501782384335845 3.5764343393947664
Ni 5.370711273947847 8.211880550419417 3.744778176339134
Ni 2.2164932896988714 3.0049365762366653 3.8933804077918563
Ni 2.9619998606197817 8.523737333408569 3.64402009619313
Ni 4.140819495967308 2.306272280613742 2.7977840058068373
Ni 0.35662523816281677 4.715928182242275 4.063942648510973
Ni 7.596306699641662 7.2088136914708825 3.90371521053715
Ni 0.8834346922378424 1.2130096286340624 4.561132697254743
Ni 5.31401215028078 2.2348296707815365 4.930164837607742
Ni 3.245493396941863 0.7951592841310334 4.640657432270715
Ni 7.738213720289894 2.5581487297689605 4.517575809952488
Ni 5.48870806386744 8.871255929234135 4.752913199292143
Ni 1.4200576728156469 6.916923366589222 4.549040131033239
Ni 2.41791223421788 4.876260278128448 5.249421780882722
Ni 0.8773205713213487 3.179275823300581 5.937386393796723
Ni 6.325539146160842 4.423264524032212 5.330154215277604
Ni 8.154886354340123 5.773666538396843 5.80289352146714
Ni 4.128595189093304 8.400512496646991 5.8603885535241425
Ni 3.842578556728257 6.548714019033778 4.535441461129371
Ni 6.863765966681976 1.2676975384838567 6.359257681156884
Ni 4.3945178931713995 5.101091949526798 6.431861774649839
Ni 6.043047594033316 6.919626423102202 5.724529167863616
Ni 3.3827250987030832 2.9146731955997955 6.029192147510463
Ni 0.49830301531303606 5.555678113447994 6.347812334242066
Ni 2.033617447391744 1.1890585053698324 6.704468498608895
Ni 4.4801642246076225 0.9142258298289335 6.760395002046037
Ni 7.869884266913041 3.453719420746817 6.748396158038575
Ni 2.601602336815224 6.732355687228067 6.7375491343545395
Ni 2.2545612776834756 4.416241587213382 7.592755652265809
Ni 6.5046394699778345 5.316319732669804 7.546814777055177
Ni 5.567523050946287 3.054101208822648 7.328819763654612
Ni 4.765864702966555 6.997851325356269 7.751982703044127
Ni 4.407295182965803 4.687536800953459 8.685304411001969
Ni 3.4571559605991524 2.4701211185366687 8.322718913241637
