52
Energy = -231.21884644 eV
Ni 11.206943942072387 4.208867119407449 8.64934662333811
Ni 10.47728254288818 5.87501128830115 7.143689784366556
Ni 10.417699838988536 3.66959509325765 6.511017559300952
Ni 9.336261005425529 5.5291835935778115 9.19315951071107
Ni 9.258973259219172 6.911728802666821 5.393454024118586
Ni 8.944554278564942 4.500741412107233 4.739947304380756
Ni 9.049689169272462 3.248292317691082 8.41333357079764
Ni 8.585380711269876 6.2852867001796975 3.1900110992571156
Ni 8.562643428730293 2.38957875639714 6.1024420576505385
Ni 8.780321714179255 7.330627115244094 7.7389124747452085
Ni 8.21150268423617 8.568664994803196 3.9252266731045538
Ni 8.082874758154444 7.975366542809966 1.6036792444673118
Ni 6.781228457208812 3.6070645415263662 5.296796231064083
Ni 8.25400276021229 4.90471765929252 6.983956703006247
Ni 7.4853989751510746 6.993222047684958 9.773916498110893
Ni 6.818598151749578 2.8317207387927583 7.613233734548342
Ni 6.824403535800602 4.6293183218190155 3.195388710076531
Ni 7.09105293669614 6.007689340105933 5.296411224994054
Ni 7.4238318655594115 8.356650537111749 6.10974899974423
Ni 5.481117199070477 5.78537534869972 10.212674191714884
Ni 7.039379848243504 5.916282540102981 1.2960024006093753
Ni 6.587055693169266 9.576549624948287 2.410027883462677
Ni 7.124925444908692 4.6822808282246 9.061278912705493
Ni 6.399281400198761 7.214384893836496 3.3533596004856805
Ni 7.160732577589642 8.920079652031259 8.419200213121531
Ni 6.39852170280434 1.3975678852494657 5.686450892670004
Ni 5.1089986609666225 7.274077142893629 5.5879429286677755
Ni 5.7304113512834975 7.844320107397029 1.0479645438516547
Ni 6.439292326016088 6.734888785529439 7.659492375020897
Ni 5.111880368283922 7.934838983079591 9.12078960087579
Ni 5.449565643274087 4.794968316903126 6.888673375275633
Ni 4.9685508758568435 3.6887338546096595 8.929951890091518
Ni 5.3175648028055615 9.198506212802473 6.958473785466429
Ni 4.799859031021869 5.944427727945927 2.2012587266212225
Ni 4.874915572669634 2.777234828047788 4.212216919858634
Ni 5.930689459008021 9.388470669372506 4.6321350809158055
Ni 4.948009232827163 5.128279661800131 4.515417966406519
Ni 3.2877515040098935 5.7029269204665365 6.16463067506471
Ni 3.981797483371358 5.893988867787516 8.504095084607485
Ni 4.626432655415217 2.58606336758024 6.67251423259186
Ni 3.5946907015400087 8.96468450522687 5.157910372179064
Ni 3.224373956080927 4.4279735505497415 3.152880103520083
Ni 4.493577570452529 8.481643722794123 2.9569857997860325
Ni 3.430967763062649 7.8557902814198615 7.345338786402654
Ni 2.9630079962519558 3.9154909803854725 7.711119490637396
Ni 1.7801594787990198 7.500739603548016 5.682665228624728
Ni 2.9404227453692533 3.5354550518995715 5.321079201134112
Ni 3.269754109485758 6.775083584829579 3.912887258467024
Ni 0.9992254897919812 4.236257257300705 6.536649414688384
Ni 1.6634929917727637 6.174877303671172 7.74026414391025
Ni 1.4965352840392165 5.353711041313248 4.550227254433195
Ni 11.206943942072384 6.217085116321312 6.0796811323845965
