55
Energy = -232.4634998 eV
Ni 2.1677480303659205 4.3292678075423074 6.281729974919118
Ni 6.792138907935904 10.202534611357773 8.426442451870026
Ni 10.239530858527596 9.795031058068002 6.1774203489237385
Ni 5.091912967346903 8.481727438591449 9.191545716010854
Ni 5.0298635080697345 9.523785504162303 4.455838327285188
Ni 3.1962869563924357 8.623560227417085 7.764012934648059
Ni 11.898224569589344 5.761996675119553 2.6140605628087483
Ni 7.781174305616728 5.659248516788548 8.57869373654375
Ni 5.51835130350017 6.12610705845614 9.053059063234308
Ni 11.309485538005314 4.142186793786239 4.005632455303698
Ni 3.6739984307059252 4.0873840496710026 2.1895639667275493
Ni 4.291113172147084 4.579132964675439 10.283101346455974
Ni 2.5934902324711073 6.108247059424533 4.646846964378659
Ni 8.093799398467459 2.5070429866577166 5.700945447099432
Ni 6.5773071862238845 3.9719453669379154 9.671094978551857
Ni 4.560306846487841 5.513774326119605 5.849626402398295
Ni 8.192769627237347 6.941790453206285 5.206308860303915
Ni 2.50931475248708 6.540138360933877 7.021534557764075
Ni 4.2600973782714195 3.1626385089407196 6.385243964583973
Ni 3.6983027052369564 4.828700159852504 8.02832517013347
Ni 8.232288900274659 3.3515524024393413 8.077634300006057
Ni 9.810026626441008 6.212748367505601 3.3860694639215856
Ni 4.7626384575832805 2.810792438348711 8.734474417245668
Ni 3.5818953865572953 9.964412275904985 2.7979770043643306
Ni 3.8430813356862994 7.797865862475412 3.325755523800051
Ni 7.2218656465343765 7.877662229040159 8.844839700853235
Ni 6.45037677419947 6.660117805598896 6.855374229473607
Ni 9.422251992841053 2.454314632883351 2.719875557192996
Ni 10.07346025343884 3.4785447472851607 6.512728943382208
Ni 5.238611362844505 2.5954593098470244 10.948835770294513
Ni 8.013098853992915 4.845971523164101 6.223350877158492
Ni 6.045133073373047 4.289533071807753 7.3940428166400265
Ni 3.310559491275627 6.861268520917255 9.365564016243862
Ni 9.967127629323576 5.315377719200692 7.935513649797563
Ni 10.351737107296215 5.621711944211927 5.562678001903631
Ni 8.955886502999133 4.135143123037298 4.193265905966675
Ni 10.179178340673783 8.050394327185154 4.658484904419787
Ni 8.918719734241076 10.803711979498173 7.86678703584612
Ni 5.997534555322508 7.323821584432199 4.703218090078904
Ni 8.66400879465699 9.442011464717947 9.774455053994595
Ni 10.56562498818465 9.197690435243675 8.368427552463627
Ni 8.163607419741654 8.729976427635428 6.905232224732196
Ni 4.635413423413037 5.685329562023103 3.450939149240831
Ni 10.32855629172765 2.1279584096883974 4.725369739304984
Ni 3.3984942065740174 3.87024793575752 4.36398008673683
Ni 9.488885347117009 7.2747217929459635 9.159653716623167
Ni 4.528447990141498 10.620506492715904 8.366123633608671
Ni 2.994647916577692 9.260978956239326 9.941694510104353
Ni 2.155271468802977 10.632505571545911 8.163334759295406
Ni 3.3739401742112127 12.335266494549597 7.295514968979885
Ni 10.17449473614744 4.428026123414104 1.9791404556338026
Ni 5.680755909094131 8.937893892342755 6.755219838930009
Ni 3.7835287822642725 7.929658459960834 5.632332587306202
Ni 10.194589819691032 7.479905812562116 6.953380143974269
Ni 3.644704481738901 10.336338826234769 6.15336459060619
