55
Energy = -244.3927652 eV
Ni 13.404091771512336 8.080006884276514 5.369243422474431
Ni 11.182927164840839 8.41622764278549 4.630865286165971
Ni 7.8513320993094835 10.578877292943961 5.0986986888301455
Ni 10.10452548808326 6.269104377683036 4.242755920369328
Ni 12.43529998106546 6.674777194842882 3.764695190921172
Ni 8.714630226049866 4.43112886062065 4.702976484650077
Ni 8.844297301838688 8.61361489300786 4.291939503365698
Ni 7.731971834147125 6.6015529426364745 4.611549264389373
Ni 6.390906960215115 8.742796634392974 4.707927427178413
Ni 11.722918126667052 8.773092171315067 6.968626433502425
Ni 5.62598874522559 6.71602214238622 5.671885284815912
Ni 4.187246725004119 4.928385765698536 5.401088876384187
Ni 9.867176019559158 9.879324625610563 6.048437613263502
Ni 11.819388444090077 6.407544999377243 5.980910846585292
Ni 4.762587867908165 8.634063301796896 6.67934484132021
Ni 9.61509107484297 7.447966847821092 6.2309993559232
Ni 9.972298109394979 4.990499876655389 6.512660147032051
Ni 9.588381689633996 8.852747099192957 8.223153259163356
Ni 6.002260740900492 10.579952944869136 6.493176230405988
Ni 7.76891508358924 6.046881008334078 6.920709707825686
Ni 10.447134988996812 10.944517751487611 8.116011958998081
Ni 5.584478298173928 4.773580619387241 7.312790648692292
Ni 3.9828301664811954 8.080953561774097 8.875089401054638
Ni 3.800969204547433 6.401416695094924 7.201485517417242
Ni 11.71513284482004 5.359156618595313 8.112247153318684
Ni 6.476562063889557 4.577123800085259 5.132935954035228
Ni 7.476121005664244 8.461262856002374 6.710815490570862
Ni 13.393597357266474 7.0851940675113445 7.513141252143872
Ni 4.665794839404899 5.73901985253474 9.425432649582715
Ni 8.15290250754119 10.705714794040963 7.485845071033468
Ni 7.831280150279712 3.7693017598425698 6.967882877024611
Ni 4.242391346828479 10.480420111137878 8.114566003304565
Ni 9.438753541277881 4.229129876599266 8.705242156849579
Ni 6.296763415114215 11.83354269863361 8.58173669416108
Ni 5.942294456105076 7.069482360266295 8.095323587072153
Ni 7.176330733614168 5.0297672772171165 9.025090607078708
Ni 11.6773100587456 7.59931411121543 8.966313511746218
Ni 9.701048370731328 6.474320521457028 8.454409713439269
Ni 7.8127277043613885 7.593006277476664 9.316490020881902
Ni 8.666351051709057 12.103464936974147 9.233141528967742
Ni 6.253703865252551 9.43193632367162 8.62530866718388
Ni 4.290766970542384 7.487414245569938 11.135223804494572
Ni 6.973626517364829 13.214164214143842 10.376393281855599
Ni 4.222463597943217 9.8287274048227 10.366215319513877
Ni 9.960260636407277 7.9939041794765044 10.422580882328953
Ni 6.22212026638906 8.625437673902518 10.852377200339753
Ni 8.829941916204652 5.808105616645551 10.590776908476762
Ni 6.472570092111122 6.296810043987414 10.874824507508498
Ni 8.154951121309976 7.7519356492326565 11.852005589420875
Ni 6.167280115874151 11.05659953194991 10.79981433833019
Ni 8.314811810449307 9.867628372932625 10.021228663164695
Ni 7.365396793597937 9.887341544076637 12.503043619472153
Ni 8.404561820799096 11.74056193756726 11.52214101752981
Ni 5.010754151901644 9.64696992848101 12.522823178881884
Ni 9.622377099569958 9.726801615107027 11.976203774705796
