50
Energy = -223.05435023 eV
Ni 9.19518948621419 5.133116747287159 7.252861757114469
Ni 10.2895700962449 6.941391026703133 5.9228717498917804
Ni 8.15448184350765 5.61137967254522 9.375346138622804
Ni 9.850032286544259 4.893221645943008 4.916974665819698
Ni 8.02148686134456 3.656675257500084 5.76162193698133
Ni 7.535240386338993 3.6600771238190655 8.067187328703488
Ni 6.382403419380445 4.13904699882238 10.069127856063925
Ni 8.010374208314285 6.345842163761405 5.5747104248420465
Ni 5.723254724055849 2.174285114961522 8.862293047819728
Ni 7.1200569419481425 7.762827731156501 9.357922397503499
Ni 5.999643998382466 2.5660574179991786 6.506718747051445
Ni 8.782251889029638 7.441348933610496 7.703312828933046
Ni 7.855328821609103 4.8333715613570405 3.6663257138278245
Ni 9.165652352560397 6.89760491448229 3.641717087057212
Ni 6.302108324040222 3.0495717626147663 4.256702168372893
Ni 6.731253203515838 6.169732942705343 7.6533677393929285
Ni 5.255679505176661 4.284996642574917 7.955720873392622
Ni 4.012165579424399 3.6424998879906263 9.736754981150183
Ni 5.2907320756611025 6.14328030205365 9.563482120453921
Ni 6.054045260886133 5.004545362919625 5.652936557295891
Ni 8.650486359514211 8.586256423060368 5.509747715079166
Ni 3.747443489990055 2.3707989222167702 7.417976273900892
Ni 7.3327628381330054 6.388910864788369 1.8943055007676546
Ni 7.161505957817013 9.165748048701076 7.341655639123645
Ni 5.1379607492715555 8.176771932204945 8.171791878468952
Ni 4.073736024700806 6.234691590664625 7.516502325806705
Ni 3.8805123842166265 4.271141238376526 5.958984120265201
Ni 2.643501999213663 4.3829182491240255 7.980298595359579
Ni 7.230459019740673 8.219826511168751 3.637883572008685
Ni 4.0963937131240895 2.176004289165883 5.007998387032087
Ni 4.96535779893024 9.860580152388561 6.513792396725129
Ni 4.7881712559294565 2.217836805337684 2.7407744413245574
Ni 6.276464795399582 4.121337580001976 2.0968624698824883
Ni 6.022928163311682 7.709474924077005 5.926472237912499
Ni 6.743836900763127 9.931447414598088 5.090316146688582
Ni 4.083637361073776 6.440672432560416 5.122996451020833
Ni 5.919140166532567 6.336685937989983 3.678312166937014
Ni 1.9374936947190482 3.226147021430309 5.799131543250524
Ni 3.3592440640400474 8.216090620930546 6.442511089665463
Ni 4.390969648234891 4.455825059940092 3.527796477967969
Ni 2.0079972425552937 6.054309595115699 6.421521799958406
Ni 2.5453592711186195 3.049709536183563 3.363943746019607
Ni 5.488606290411652 8.053698465297634 2.0790545985205853
Ni 4.650584975959711 8.706126452093617 4.288525745235231
Ni 4.0686470462721935 3.6450086337262704 1.1325452125914297
Ni 4.888696244524751 5.868448308082542 1.4143860875192897
Ni 2.169968190552826 5.218043454185996 4.266691958391885
Ni 3.5383363978194784 7.002007010558058 2.9331073573442095
Ni 2.0589368865848914 7.641762161177728 4.590110646029666
Ni 2.5655438582907952 5.111317086867723 1.9714891045283642
