55
Energy = -245.6717446 eV
Ni 8.332004050218794 8.617091195069191 8.228888759620466
Ni 4.419064857982031 4.957879949838084 7.30288502432676
Ni 8.151970580611895 4.93276886844429 10.389013390411929
Ni 4.306404940330449 8.59306394669958 9.362208656465617
Ni 8.37398899693212 7.388459367154948 6.090490515747097
Ni 8.215639768018644 7.384713888608701 10.353446792033825
Ni 8.332234249894217 11.080564886044682 8.364175849585058
Ni 8.498303744190048 10.058596555985861 6.263471477516427
Ni 10.201138245768965 10.936989224075575 9.773377583256142
Ni 8.334332872020987 6.14748789980185 8.22354594317583
Ni 8.514820305358002 4.690534695411056 6.264001036571579
Ni 6.14987394440524 8.59000014732953 10.921922774963585
Ni 4.30495261895192 6.169950866175319 9.360344919715665
Ni 10.267912904526852 8.639468244193328 5.529135106118975
Ni 4.1903420231390855 7.3828219649425 11.385495003556061
Ni 8.331501106229982 3.6832431771864442 8.367776880089025
Ni 10.267113096544614 6.137163985286061 5.533138969127839
Ni 10.282956575299085 6.1861892035816775 9.745834448452069
Ni 6.312700531666254 7.381674972767951 8.774136826129626
Ni 4.394215219394201 8.581115215657418 5.224877262419405
Ni 10.200702972576188 3.8372263708420253 9.774480869397983
Ni 6.3001671053216315 9.868663196101172 8.889091334260147
Ni 4.40070482984317 6.191178080897278 5.220805170956972
Ni 8.154340213649542 9.838494428330817 10.389047312559713
Ni 6.3005006872046385 4.8994406721985815 8.883559385959545
Ni 6.441368795018455 7.390136900957161 4.6584262350755195
Ni 10.283577519777173 8.58787110906329 9.747041351195067
Ni 10.384243027158467 7.385703684120727 7.631361601623882
Ni 9.73616334601083 7.383604405121481 3.5536923533169396
Ni 4.677561307284428 7.3890999712297685 3.1368031770659943
Ni 10.358524129216637 9.803386547657315 7.6613552098068025
Ni 7.180894843646239 11.087771090234694 4.652367097871198
Ni 5.934622405993743 9.466469945287066 3.543307185223748
Ni 10.365000956102376 4.968978143587405 7.663657155404508
Ni 4.910710762872895 10.858732591268792 5.177324221880141
Ni 5.940883286536324 5.312312392956295 3.5359000396110054
Ni 6.407806667879994 8.718356599246915 6.655658882593957
Ni 7.184676120426456 3.6855510693095623 4.648059884484046
Ni 5.822043335608941 8.556937060106566 1.440213640291249
Ni 6.441063456982221 11.116950281923069 6.9120085537259035
Ni 4.917853144921926 3.914392448658537 5.167479995228721
Ni 5.8136325331737835 6.222894839562846 1.4336955137787428
Ni 6.416486010690149 6.042812514461965 6.645156883788489
Ni 8.227844517334557 9.006969147771745 4.185462372757261
Ni 7.481255119726441 7.383189174039534 2.5826975097365126
Ni 6.444981633896353 3.6488444787529066 6.907665425223741
Ni 8.225653547796467 5.768613345328277 4.199265628138391
Ni 10.056302691843854 7.385885616278377 11.850412683141153
Ni 4.345053550494565 7.382935415371635 7.273243208253745
Ni 6.147597024861507 6.178539934516615 10.917436063034613
Ni 10.011716448491368 9.741300059171252 11.819030215378
Ni 4.416820406689594 9.810131514328695 7.310945454006331
Ni 8.028939192084849 8.573113385098484 12.417606211055743
Ni 10.010124979223802 5.031711924156609 11.819914549932225
Ni 8.02735803252549 6.200668642155099 12.41630563930765
