55
Energy = -242.1179022 eV
Ni 3.433160960628077 3.190958750117329 4.991072725457394
Ni 6.588926486746594 12.036329396653072 5.864144122163182
Ni 8.019398041372249 3.8675879367150396 3.6744615091862336
Ni 8.259885283846865 12.036329396653072 8.624127613509145
Ni 5.710057507203013 5.842191272539815 7.24117665506064
Ni 4.639307369551685 7.450499361369206 8.588163864348124
Ni 7.419086377987051 7.610253819006772 7.707267266763922
Ni 6.4740420081938295 8.291779117032048 9.800348089699845
Ni 7.353035577457722 1.6747690567494558 4.529309668751445
Ni 3.763337053663181 8.474997013433882 6.593541385728347
Ni 9.330670620629247 4.8873292722252 5.666920294162919
Ni 4.575408955144189 7.248813709997243 3.5681995696396513
Ni 5.575142262456618 4.166306419716237 10.589604943174075
Ni 9.323383278939705 8.992829643205448 6.939242612052906
Ni 1.9725977847761167 4.932008990097944 5.473451349804938
Ni 7.261508386977374 9.510266315588428 5.889008989806758
Ni 6.959745427139759 7.216421341197306 3.381680345787583
Ni 4.471338191399454 5.4548816425698075 5.22790177428289
Ni 9.72073987777048 6.740387978689499 7.204940655231513
Ni 7.424151410429694 3.3615161190060654 6.232441874671975
Ni 6.0385107895639605 1.5582805317734612 7.392252501741975
Ni 3.417137199375301 9.218140495418702 4.322849323411348
Ni 10.427384495734588 4.306679088169472 3.6978509552494536
Ni 6.570616194053285 3.7056660036508924 8.494296959792896
Ni 1.022834942200279 6.082937191625151 3.6407264944944076
Ni 5.669265241648446 9.34710287326477 7.760271094877503
Ni 4.463013887187089 2.713763502570215 8.912945116668936
Ni 5.049763523941419 3.6180467677299455 6.672463510315045
Ni 6.734006366789754 5.95669118876955 9.416674037682899
Ni 5.065221713667488 1.4478576843735396 5.229201153937566
Ni 4.952017561555988 6.52389264942939 10.717232675510898
Ni 7.848523647309984 9.857370337989881 8.517343634335832
Ni 7.6261659082822 5.3529536176111545 1.8988449049766882
Ni 10.645776683034144 6.706169496336032 5.056910294422633
Ni 8.30019315554276 1.2094741548975887 6.598408867291652
Ni 9.469823966539922 2.6286580898770153 5.06978340982001
Ni 2.580106161059876 7.147194109732696 5.013497962255742
Ni 6.896522246464915 5.47966042943782 5.131325932290548
Ni 4.294214801999573 9.148203063806873 2.1684213569151294
Ni 2.4881248760856107 7.632053732168433 2.6830649264159554
Ni 4.247918806232693 5.075388049715867 8.95123493719974
Ni 5.73489089035456 3.4466541750769784 4.310837869582007
Ni 5.62466866671185 5.279831276814576 2.9813120085150815
Ni 5.760024622454975 7.638190078185189 5.656337744846695
Ni 6.695138999465189 11.376376781283131 7.152016559086568
Ni 7.959085220244552 5.280544588608344 7.484376893074748
Ni 8.345500885116014 7.416671003794039 5.438015844155434
Ni 5.0339479634152 10.337397623589188 5.7321180486861465
Ni 3.16537909313386 5.229489211113334 3.343813501949624
Ni 4.606819207081705 11.059392716234372 3.5003860582637984
Ni 5.993291719798645 9.241904694019038 3.8686223685773555
Ni 8.972391895179001 6.093597393528267 3.5851316952809253
Ni 2.8619661420459153 3.8749118397390068 7.402949601158122
Ni 3.2393869609475434 6.219284864778906 7.107903173243529
Ni 3.5943125577469353 1.678210719818266 6.972443128966373
