51
Energy = -227.75285322 eV
Ni 2.969352736955459 4.813485412620961 2.007871810997405
Ni 4.311321240915872 6.424268248425238 0.9338703341841323
Ni 5.315794305599312 4.461547290719021 1.934564279112651
Ni 2.5842482111576777 7.136448231727923 2.450148103888159
Ni 2.3180619931556077 5.318825993188568 4.271818074345278
Ni 4.040341572224893 3.701847499338967 3.800714851226569
Ni 4.823808638984813 8.235417871386675 2.3605704424712104
Ni 4.449853067517177 6.155024362867204 3.4230324066246363
Ni 1.2637460922098132 7.389603078884375 4.411406616584898
Ni 6.492440411572244 6.60677004276389 1.9584995933954965
Ni 3.276130898601574 8.619650459602761 4.1814951071955
Ni 6.412765057784006 3.0287112188706793 3.5280953938469213
Ni 5.141161106961724 2.5403825333107193 5.4799806810940455
Ni 7.506302207187079 1.7382961812463853 5.343269817705505
Ni 5.0007868125723896 5.046582883864996 5.55721383576324
Ni 7.649868673005044 4.4977863106241625 1.890817385561173
Ni 2.021618204904879 8.673058151157502 6.171898425921984
Ni 3.0421046184706375 3.9619720026018395 6.092703489167554
Ni 5.750221777524748 7.634179039628155 4.816397320369822
Ni 5.199089694300648 9.85584239202373 3.9934273602133534
Ni 6.691965312012164 5.319069146646642 3.9409044746065973
Ni 7.1601975179727155 8.509230340715105 3.2473645652243235
Ni 1.6149716311158537 6.062980638777922 6.483130187063947
Ni 8.547001631876547 6.422340245512182 3.258731654163316
Ni 3.5486190282393153 6.869222501971965 5.677748121787508
Ni 8.617891353038793 3.8573029745751466 3.8852648441919553
Ni 4.5537004873673155 9.005275493254787 6.344418178856005
Ni 7.045063269248822 6.177246689238657 6.162146961441257
Ni 3.0490061725352127 7.678880826478703 7.921320229066487
Ni 6.924414176969306 9.654482766033524 5.448383093564629
Ni 8.387847860144314 7.801923553222384 5.2260818436005
Ni 3.292966915925007 5.292777428479277 8.059203884084614
Ni 7.184961331034844 3.8685066122092424 5.940438374485664
Ni 5.074718951409962 3.726049398686973 7.531273510831839
Ni 5.1759429414094384 6.559878053080529 7.52949022461283
Ni 9.171536453384963 5.532835180963354 5.478346215056211
Ni 6.134705483464579 1.6207281557709163 7.386008609558273
Ni 5.081365146585111 8.727267803282931 8.675138984200272
Ni 9.536164088309212 3.1248122312965445 5.8368743128578116
Ni 6.853081237599746 8.284483460907209 7.265953865634882
Ni 8.765088566636058 6.927849719234859 7.518215103217628
Ni 4.174654736470956 6.930242898371451 9.798946649172173
Ni 5.213832566505684 4.954478762384484 9.493399126348345
Ni 7.258784526492372 4.902516657019903 8.194503544455596
Ni 8.208010725277111 2.560169428252971 7.651466026423523
Ni 6.70529727310103 6.970511828935321 9.377344468711142
Ni 6.513563087004821 2.974115999237517 9.359341055108512
Ni 9.525622977178898 4.6277578416124125 7.668812748210105
Ni 8.924349508832485 5.938963357364689 9.61744826065864
Ni 7.1447368013928045 4.923127068180397 10.74757607645067
Ni 8.78384533893286 3.593087221046181 9.688187620748268
