53
Energy = -236.21352661 eV
Ni 7.29632136398801 3.9244777933492965 1.6318461649083402
Ni 6.040518101071691 7.523087508343683 1.41493800156498
Ni 8.254074573796599 6.210725972087753 1.7159182341697992
Ni 5.670146866749459 5.363315370622727 0.7166499113925004
Ni 4.972913262677438 3.792425587642093 2.3838265173502435
Ni 4.164047493452458 6.415715491891501 2.5106253665139375
Ni 8.74837884689161 4.590394078061831 3.4236287613549017
Ni 6.859052374806282 2.990491629973857 3.7574662757574036
Ni 9.45994099655445 6.776339707665031 3.8951685702953447
Ni 6.409338952360513 5.652993973937994 2.925129476509119
Ni 7.414259626685144 7.809916542622427 3.2752743222315455
Ni 5.100916870512408 8.580243877619724 3.3017188580031145
Ni 2.881832096304545 3.3450302728623016 3.396797182063851
Ni 2.311807127453616 5.5620323741244695 3.870875688402674
Ni 6.605547513757729 2.097802296597021 5.966869742669563
Ni 4.5073112605360635 4.990020186001252 4.3750641711960245
Ni 8.735894280157785 3.0545884876537417 5.243754185892276
Ni 9.386819310423586 5.28084547458034 5.837427128655372
Ni 3.391998529087431 7.5039822402872725 4.609678250520519
Ni 10.033582343275574 7.785811051627893 6.093178877436014
Ni 4.713234054639946 2.559692199374928 4.580422868778504
Ni 6.740483660659851 9.217214089658343 5.01688171621681
Ni 7.093772060376822 4.911952598330622 5.0496535542993515
Ni 5.698447710071397 6.953341208056616 4.900841395653076
Ni 7.911055123920256 7.213844542151822 5.5486263707816414
Ni 4.38805192183318 9.552115905202422 5.388901568889069
Ni 4.347674043903545 1.9680136022600043 6.882000284357772
Ni 7.668697638651633 3.8080764344263613 7.162940704182777
Ni 2.578237792779452 1.8177413546094223 5.238323989155238
Ni 11.048985131559249 6.089253835386775 7.280038648211494
Ni 2.773528168296894 4.05481557038849 5.778950681453435
Ni 5.343084908727993 4.038138577141565 6.3916159550988265
Ni 8.819915264192806 6.6549977471774335 7.84363046652888
Ni 5.552932990641345 8.245742477579178 6.949107673031954
Ni 6.525345161304091 6.017205559243969 7.098000936008245
Ni 9.622174447268364 4.449956218172453 8.110708851792936
Ni 3.0455563877958802 8.193972065853682 6.9028399192755145
Ni 1.8671976795555847 6.2960771610174815 6.095354737295877
Ni 7.861355646655498 8.82791839688405 7.261175743450917
Ni 4.109358955585929 10.066285313448263 7.788097991892562
Ni 5.78314999275329 3.288696881297088 8.576177932087559
Ni 4.150600151158372 6.092082060551258 6.610922612398844
Ni 6.171142766645446 10.591270065355213 6.783198819840769
Ni 6.799685194586826 7.374135412245807 9.00083691730855
Ni 3.8530391742466024 2.041147646896317 9.144654296005807
Ni 2.1061209778598715 2.301185062688287 7.5018229411651625
Ni 1.323296108883585 4.539710543341825 7.592840010967013
Ni 6.147179707639656 9.596803455968569 8.900091631611906
Ni 7.445872506456222 5.069962354306424 9.114460108954676
Ni 4.393032877271137 7.908482329920836 8.92542916619539
Ni 3.548775834488175 4.090107092699684 8.106718073399035
Ni 5.10164766778323 5.6297720668413955 8.968612716016363
Ni 2.704172649858138 6.313018877033729 8.4247371455873
