50
Energy = -221.99135022 eV
Ni 6.959207273036361 3.385375278216744 8.624255668664686
Ni 2.4297330160672 3.8038557152195698 0.2037351088047804
Ni 4.626334689041792 2.720785428665409 0.34489592296758337
Ni 6.472355785748202 1.2621505029019964 0.8759609114902382
Ni 8.357899498173259 2.500909467526068 1.6384774127529822
Ni 5.623312983764038 5.188726640891702 0.7025010522001757
Ni 7.880515230406067 4.889365232732918 1.5676594015415413
Ni 2.655019105804877 1.9324779406816435 1.7075082537464907
Ni 3.335343573090934 5.891857642754678 0.5934481947485741
Ni 4.815181321491721 7.67486469155584 0.7235479960906942
Ni 6.183234902293192 3.30393238637025 2.132223516240031
Ni 1.1989356985285866 3.7325104994353695 2.1942177514779275
Ni 6.712681024288906 7.044287892014541 2.055893709299915
Ni 7.021880387429684 1.1823265883978646 3.211783371796855
Ni 0.8177800860278512 1.7093217226754363 3.159039972516741
Ni 3.8583819749241526 4.001361642332599 2.1121342855835175
Ni 1.1251309007104686 5.833592284342802 1.1809521340898672
Ni 2.673644302856472 7.620904135338647 2.1499867797144865
Ni 4.732712544400643 1.3124583864940125 2.490507548614397
Ni 7.935024666461816 3.3098869347940068 3.8309953897424807
Ni 4.5804520497585735 6.295761497200661 2.5600196739906016
Ni 6.758750078814909 5.244446737913542 3.555705328921708
Ni 2.8981507470048897 0.659276533124848 3.862034665319242
Ni 4.802846401461594 8.532345687545323 2.9758375219841326
Ni 2.276378642373998 5.5091288839495105 3.173112805604219
Ni 0.9474489408754141 6.592829856701082 4.823479950432889
Ni 1.9670421382450485 3.1489860176575166 6.4835552550261735
Ni 5.442561999317275 2.679702241991993 4.314822758971355
Ni 5.768357603567489 7.037919605787098 4.569075255867113
Ni 1.0589534277032215 1.385046046702292 5.375769981473319
Ni 2.8630524982799685 2.977591192524139 4.10107096495776
Ni 4.562930529590324 4.84865623627909 4.276239534345469
Ni 3.3741531058810414 7.248893515172331 4.55604781264985
Ni 0.6262305602535034 3.898236187636876 4.570809299655555
Ni 5.211668265460124 0.49236942905464115 4.80917374672976
Ni 2.5926135692964483 5.132866889177179 5.454842558637402
Ni 3.354677314612798 1.1957818864930059 6.157964501603036
Ni 8.467627198618052 2.9431763122380907 6.760170047461816
Ni 6.50950065065551 4.252511027740811 5.7842616961812165
Ni 1.439909744506302 1.3316617437332623 7.746147435295076
Ni 4.227393611245308 3.497484103114312 6.156043476182126
Ni 2.4223742841532365 6.980134192801843 6.762938320690645
Ni 7.255230470583009 1.8006012721400604 5.4859396735571835
Ni 4.702997660197609 5.940368292233596 6.437543372801623
Ni 0.7018307098475021 5.188691634287196 6.812817944113207
Ni 5.514520514888845 1.826410245309605 6.994902088674001
Ni 1.1841600621342812 3.5814251284444527 8.624255668664686
Ni 3.4971846790066055 2.5340487323801284 8.25235402219747
Ni 5.35584808129353 4.127352864397894 8.010568713092114
Ni 3.0325537864810252 4.897655416647537 7.864479833487494
