55
Energy = -245.40797705 eV
Ni 10.22765371822048 3.2584469706720363 5.280851399826348
Ni 11.077321391253333 6.518557333627522 4.644916938065169
Ni 11.000666958428846 8.943706179653345 4.765837183802942
Ni 2.8561842258639225 4.1340102869681346 4.6990208915967155
Ni 2.7694783697041654 6.510535767226828 4.784649432777935
Ni 2.8127717895949105 8.911724067777039 5.012520280947336
Ni 4.939624477236117 2.894486260945677 4.596585696407816
Ni 4.894369423955415 5.2534527982199055 4.619691460394065
Ni 4.878804484154921 7.685844869805423 4.727980625185279
Ni 4.780833581478451 10.1906471418521 5.096429178200282
Ni 7.011723692134542 4.038366147540324 4.594408797165349
Ni 8.192599312684642 2.043215927382723 5.280603584851261
Ni 6.92117695029619 8.887685954940363 4.743410552791499
Ni 6.85259796585468 11.29366865954046 5.038727869246352
Ni 8.428427046485778 3.958260497823161 6.580828917691593
Ni 9.07219840423393 5.260220420176709 4.611432745943545
Ni 9.037533179465221 7.698533080673871 4.657604016398025
Ni 8.966041314727445 10.167739084579262 4.836804066411663
Ni 10.296868083716776 3.1682179885503015 7.727942058398247
Ni 10.59118855310457 5.226196968030292 6.569873477000182
Ni 10.672803879566084 7.642257475629578 6.670237843957783
Ni 2.0945555436194385 5.165913894954871 6.718844438536556
Ni 2.0646055677282167 7.565453070323482 6.8241211202510845
Ni 3.175569224762778 10.594471421641481 6.956379101461148
Ni 4.125402319120386 3.7798399064624366 6.620940172958372
Ni 4.1492332817230375 6.2562140373280695 6.725150357444753
Ni 4.2469133342595695 8.612227909768395 6.839829494850385
Ni 5.22047136781019 11.791522557770909 6.969072408103503
Ni 6.301184907257768 5.103441979359285 6.676978374709725
Ni 6.2784606052908405 2.6809267506344723 6.536528404633715
Ni 6.402977209847389 9.878053881220506 6.85646448526423
Ni 8.359648911489195 11.291806234123797 6.87406529929544
Ni 8.19222425935674 1.9359826891898726 7.722530259290948
Ni 8.460019487884214 6.3730987709190146 6.696012119715787
Ni 8.502285732855974 8.816084508300783 6.765792588365229
Ni 10.439926009610586 10.096877553150119 6.786625837515341
Ni 11.149904663120074 6.346867877131413 8.575499942803798
Ni 11.081685570412136 8.773980225797981 8.67036956273136
Ni 2.9167804741602144 3.9543437337180563 8.608967478509657
Ni 2.8364036156909895 6.330630574533132 8.73409471360451
Ni 2.878467714354392 8.738714835760657 8.733950582934368
Ni 5.01024535038218 2.723264386567199 8.531403373882325
Ni 4.953697796553081 5.076270170108968 8.725745333711671
Ni 4.946292593130052 7.503435816088741 8.846517097332216
Ni 4.847099266517419 10.026891031576728 8.702043892557956
Ni 7.071834247306705 3.865769804817464 8.657790941611989
Ni 6.996912680282047 8.71680177591771 8.86385649165594
Ni 6.923553216487609 11.133830842410857 8.77124336664175
Ni 8.998212486218865 2.9583824430560903 9.665456797907549
Ni 9.157566314803054 5.087146463024247 8.674267850489167
Ni 9.116479257728987 7.529197427117352 8.760062238340298
Ni 9.041263061386925 9.998485784147967 8.781933039752412
Ni 7.0464927002431645 6.285449138875222 8.772863433019062
Ni 6.3603212179192825 7.477153213404774 6.77187073450116
Ni 6.979241822549513 6.452494023206474 4.649170262578636
