5
Energy = -14.96995609 eV
Ni 6.353413884481464 7.393761217853827 5.432248761719526
Ni 5.410055667814765 5.8119259739984575 6.748903773229268
Ni 7.099623844898653 4.347173904072497 6.997688189991107
Ni 4.217920520543746 7.580117354365822 6.02879981197244
Ni 6.705432527256786 5.191890196163949 4.98488009009025
