5
Energy = -15.35479862 eV
Ni 8.644966042477462 7.190250965849609 7.229678874250301
Ni 7.038874452002797 5.477324280096973 6.81343730420125
Ni 6.85738050847637 7.408972170795594 5.581377026536105
Ni 4.83917509264062 6.217752076656641 6.254582964845863
Ni 6.281074573042744 7.401687972218881 7.819689869846131
