51
Energy = -226.80766221 eV
Ni 9.545934212476048 6.849477670174976 2.993017256668643
Ni 10.432678367638003 6.634929437999807 5.604971865080011
Ni 10.112485646354886 8.892113352476173 4.839916219566738
Ni 9.72912609953676 3.982963422796864 6.353086421440789
Ni 8.983229343375534 5.1539150467762385 4.544407653725051
Ni 8.379584100789423 2.9200872642434215 4.2624681790960155
Ni 8.467713415285617 9.062664309250769 3.12527339859104
Ni 9.096550779504492 8.229846991386076 6.943353080655859
Ni 8.015920566148747 4.86141249883043 2.4870885909160503
Ni 8.34510649504813 7.435713770182018 4.819284233219772
Ni 8.565148530639952 5.920357807231368 6.903596609091597
Ni 8.383862530004322 2.081193748633389 6.530533473061107
Ni 7.978024604102302 3.7706565788424147 8.108137637655632
Ni 7.77147200609406 9.622654634887255 5.476622768799287
Ni 6.236996536760681 3.6118467419708824 3.5750693031860736
Ni 6.35022940756041 8.505238749757375 3.9847040100725692
Ni 6.435701671915759 5.49442077257706 7.879096218609887
Ni 7.17298704962025 4.154731288060492 5.90339846943598
Ni 6.605850167040524 5.972143758960207 4.190389495341725
Ni 7.675161867680276 7.288420797525639 8.691036278977053
Ni 7.267124438907361 7.130820074538648 2.230498024279632
Ni 6.352167501770938 2.018119180009421 5.361215925102445
Ni 6.574219221539689 7.3394592560217164 6.3921663841542
Ni 5.765155567299767 5.207936154822213 1.827879260846888
Ni 6.657090705965228 1.8242388064865955 8.092065146530706
Ni 5.021406983027556 5.2235214030672035 5.9233424902932255
Ni 7.222306111755303 9.415750291840588 7.72509708023286
Ni 4.344204015665011 5.283846750913109 3.729027697381211
Ni 4.847115610023761 7.277739415998547 2.4887029746860536
Ni 5.502402081614224 8.214562768063928 8.700747405284083
Ni 5.115671115836162 3.114907840623818 7.050393777585057
Ni 5.716204934972079 3.7004744724871164 9.325342622782655
Ni 5.270638213107509 9.290244360015455 6.266726990355017
Ni 4.10595165104749 3.428830795184249 2.4236970472972716
Ni 4.256462140930452 3.0658047666774424 4.787297723296146
Ni 4.568118529170656 7.391021237923984 4.828397189563175
Ni 5.603308610651227 6.175783740690109 9.91065111706657
Ni 4.222008098210788 7.182663121801211 7.113653444146439
Ni 4.165339366141938 5.101183661227448 8.130948930586992
Ni 3.2733272272734455 5.578188097412538 1.7267755492886212
Ni 2.5333518119488083 6.054259841673827 5.836072217646455
Ni 3.447247876235457 9.179296791414394 7.953976123617283
Ni 2.866346736029194 3.8586014259754333 6.513662795461191
Ni 2.600754782060118 6.911087209157476 3.6297173638153213
Ni 3.3538141216733393 3.0569481909954974 8.72601154013965
Ni 2.332219998414496 4.364143745313019 4.131609918286972
Ni 2.7517717720277335 8.510122126283314 5.683311382505605
Ni 3.65952337776844 4.8403220730777345 10.323896736723526
Ni 3.43127722365447 7.079149911471965 9.387325383707237
Ni 1.8774694612810607 7.433507793479282 7.619912043682931
Ni 1.9551250565910943 5.207220056898443 8.397835118298062
