52
Energy = -232.46686327 eV
Ni 5.582059467492693 5.460013182895277 0.3519285274615932
Ni 3.988492658406571 3.9716533842461943 1.1908101913268523
Ni 3.6688822461527963 6.253602050436056 1.5946642007711465
Ni 7.492922880407682 5.695772246875147 1.6940108301499466
Ni 5.721270147528806 7.398949922546511 1.7769109120468043
Ni 6.294316481901872 3.3665173416345198 1.5399227839580294
Ni 4.3338375831074725 2.4515824540762754 2.8908439419514864
Ni 3.6777726292877 8.501744809009752 2.1469111864981874
Ni 9.05371501907435 6.0584530482771966 3.45023485692917
Ni 5.553562155425488 5.095115305742422 2.8113324245004003
Ni 3.2211438041713043 4.724023017771237 3.346816932336802
Ni 2.2359638121678014 6.960335977701662 3.3954381276916963
Ni 7.030808780946564 7.13846021617592 3.6736090853048684
Ni 7.670467563407946 4.110784962147106 3.4693363349692015
Ni 6.642699916334133 2.023872679306485 3.4885128390575404
Ni 5.434552468462605 8.983498575195842 3.7122481045564553
Ni 5.1989088438772395 3.5922674225716276 4.657492313268584
Ni 4.791939603504648 1.3712344461318242 5.031229585072669
Ni 2.863886855883056 2.9748190635545644 4.868605234865539
Ni 4.5110814997021595 6.830561956898689 3.9506979203437904
Ni 1.7068989828055816 5.430121874380929 5.106798996269428
Ni 7.073643897378219 0.5847683136150887 5.225591845495278
Ni 3.065671114356107 9.025563198332954 4.288627779832332
Ni 8.339978332005199 6.8963047732293115 5.654433493474101
Ni 6.388026371102795 5.533889631701311 5.270311542221265
Ni 8.961470520658493 4.673034829214696 5.302014008560862
Ni 3.839205680558957 7.538656984909746 6.061361221726715
Ni 8.936344601274536 2.230577338274025 4.560208131335438
Ni 6.198888661294456 8.04858964690188 5.748636862640994
Ni 4.492788883600316 9.759480630593606 6.004239502841394
Ni 3.8643470542139315 5.125512450476571 5.824278122856639
Ni 1.966843237473284 3.938712637696364 6.900834732813578
Ni 2.1092682598856882 10.08178625810726 6.092582525231117
Ni 7.265462142283826 3.013161892210181 5.773461692805152
Ni 5.3952577225271545 6.297952860707889 7.403649348976588
Ni 1.5655981477810794 7.795236769747597 5.648379983820881
Ni 5.5991749453417174 3.964948489782896 7.04714426272256
Ni 5.984722946175174 1.4786299702776848 7.146649224886868
Ni 2.740355020615687 8.587482932135643 7.75644350630951
Ni 9.356773733135462 3.3456125686842793 7.078762106051629
Ni 8.406146943341223 1.2752676772506326 6.962943662492758
Ni 7.739854638470568 5.193025540373442 7.3329909703034755
Ni 3.8265828552505963 2.50130235892026 6.955045119110743
Ni 2.301189475500793 6.238730946602053 7.379155291173309
Ni 5.1900122561193776 8.580187200706124 7.953635648133067
Ni 7.377016371737662 7.500220393455828 7.7322450224328545
Ni 3.8765230614445336 6.918493401102118 9.060665585539828
Ni 7.395017473944321 3.028198711525387 8.347013281114592
Ni 3.7301915868614 4.604547775983373 8.381930719786364
Ni 5.097021602845179 2.7138940117880237 9.008194152011873
Ni 6.068183696326071 4.903850772990479 9.209234202770054
Ni 6.1245421337372274 7.18028186241544 9.692267888486606
