50
Energy = -222.37688803 eV
Ni 1.3844453970211272 4.787570912328516 4.273778766321256
Ni 2.3822232013258087 6.883094636649613 4.548473854300053
Ni 4.170234537335731 7.247015368342536 3.051739429282567
Ni 3.4457931921159313 8.973218140446768 4.575506211617534
Ni 1.2635532480456775 3.340192287815575 6.078138250610008
Ni 2.683573965014068 2.7483201175917826 4.156025169441618
Ni 4.805671308427347 10.90412769329349 4.650198649265438
Ni 3.649385604960933 4.997015774789967 3.721922501209684
Ni 3.678416516440097 3.8400369209537053 5.9195337348264365
Ni 4.432296830265138 9.742092644089542 6.658692270868514
Ni 5.44239619708398 9.25897954499099 3.128132729806485
Ni 2.7778282096187805 1.6537600634579543 6.448411100777597
Ni 2.0571549098179087 5.509815255155507 6.468857737004054
Ni 4.851898354045441 3.110913264644604 3.09138772056333
Ni 3.0457509713684776 7.76786024426411 6.654019182197509
Ni 6.0487110915061955 7.513666392911527 1.6697320371494349
Ni 4.42253370648441 6.12399826369707 5.747311841461549
Ni 5.581516269340943 8.206270311429387 5.243945757846637
Ni 5.250432867002699 5.254572372201642 1.9516132599160305
Ni 2.729938814516775 3.6317605856551523 8.010914463945776
Ni 6.066699343515091 11.476196712103906 6.497954976408157
Ni 7.470138179313915 8.027936196166372 3.53826871963849
Ni 4.7024834379556175 1.8110618115250225 5.133846298326116
Ni 7.020653942467716 10.025713417056142 4.837752369485719
Ni 5.994170036978879 4.0710317202747 5.055153898743244
Ni 7.7903756028401325 6.052559054712406 2.212484497066802
Ni 6.64161276781055 1.7975386918138676 3.8090818126203225
Ni 3.691813397025782 5.8623912320245575 8.135886249096247
Ni 6.040074093382382 6.166291556774476 3.9143547069632203
Ni 6.770881199786561 9.381742652230232 7.130375092235671
Ni 8.381796886591944 5.909089608121376 4.551171910511454
Ni 7.080912632895757 3.9826392676407294 2.8967773602335933
Ni 4.767966785171855 2.3142070412144466 7.529885109836711
Ni 8.190220651049568 8.087704639892793 5.77946661772747
Ni 5.2078676947002425 7.664077954325746 7.64079583253903
Ni 4.67126543011088 3.925540015576876 9.385835906037014
Ni 5.565970925493855 4.581999385640121 7.378471076412742
Ni 6.774092711159318 6.286068637823552 6.293903388823896
Ni 6.780945787394409 2.121758822440614 6.2238446091057575
Ni 9.440487485840048 4.494166013455751 3.068644680971859
Ni 8.36761637508155 3.0896266227891944 4.6295850493272575
Ni 5.872106131445841 6.043407322000721 9.226498190973711
Ni 6.842587552619254 2.9999553986748775 8.501678570435763
Ni 7.557614236695379 7.469630074887036 8.195124315644843
Ni 9.151182740658681 6.220557615346663 6.883172014592235
Ni 8.003651547254671 5.182298602600643 8.728194928186312
Ni 10.038156585098122 4.481285233831682 5.470401200314114
Ni 7.936091753803441 4.130031670020339 6.6286498185781175
Ni 6.767509760775178 4.26973988418413 10.465887470519633
Ni 9.925754984374379 4.195928201170387 7.824974511261107
