53
Energy = -236.5728542 eV
Ni 9.925295326793995 7.1816159739274825 6.785451296703944
Ni 10.089332758031366 4.563524225172925 6.87412068391312
Ni 4.9317163638934804 6.920068505859407 11.396709190502952
Ni 6.603555451812675 8.934367311247764 3.877063578761574
Ni 6.68561959996651 7.010766520019813 9.381499660737608
Ni 9.198938871239385 8.843489443454553 10.995566701165755
Ni 12.04305967239961 5.762475186131088 6.730285349632281
Ni 10.562740246379658 6.357434093401707 4.822846507410819
Ni 5.062795193036512 5.219823102404863 9.796151182182255
Ni 3.0928115204185445 7.754275531007813 6.948831545703135
Ni 7.273200439191951 11.902177144109638 9.019284615862087
Ni 5.501620034155977 11.25406446821339 7.507111323988365
Ni 8.712817850764209 9.278434581262124 6.7962249025869115
Ni 11.023293148690684 8.221122328767885 9.808461132027412
Ni 8.454434521738387 5.799521279125595 8.114360121653627
Ni 6.1021548617267145 5.540242027688475 7.581551855951693
Ni 8.864419402421856 8.039602832405825 8.822553442583539
Ni 9.593505810319167 4.061346236929688 9.158775684011793
Ni 11.86267069161224 4.1201522244703845 8.399499569347654
Ni 7.77538174574333 11.433994243953718 6.799386899043407
Ni 7.338575979691423 10.1634038851659 10.633493684192743
Ni 12.190273988224336 7.915539862199188 5.909144663152966
Ni 4.056761719800306 10.083901745071051 6.087808527385805
Ni 7.170965693738063 7.872829023342772 11.488330858573404
Ni 9.155715655425762 10.425164112782433 8.901964544830877
Ni 6.469178014270261 6.610587397542994 4.614387984096538
Ni 5.450031015970731 3.469125092633943 8.116463628430084
Ni 4.537123092759858 6.030839142957804 5.901973013196601
Ni 7.390373371997014 7.364322440748009 6.750541469058819
Ni 8.322229622584901 10.353639555092501 4.735937874187725
Ni 6.026270131054846 11.387336976268617 5.102765885397607
Ni 4.702271733196222 8.144694324599769 5.095545167350456
Ni 6.243690151408417 4.382610849550574 5.607622196760982
Ni 5.257645262255933 7.844668201279384 7.570845149116165
Ni 3.929984762305475 9.575007309534275 8.401795445727108
Ni 8.85640767698317 6.289087162547952 10.460703150233567
Ni 10.992167052338516 9.201563650175501 7.689230255183408
Ni 6.395227388806327 9.425740431550926 6.107006299398807
Ni 3.778894187525369 7.25218513784634 9.270407952023126
Ni 3.7068287316299124 5.322584261650539 7.8893818302273315
Ni 6.809109282732172 5.528364024665981 11.439569735902937
Ni 6.869966706290408 9.463159068189828 8.459855684454043
Ni 10.112969926179806 11.105960852592423 6.504119568482551
Ni 7.259549622806888 4.331377822498782 9.50255193097972
Ni 10.43531767817993 9.17817540591563 5.141375622595408
Ni 12.322196503252966 10.252364631676269 6.119160501048962
Ni 5.3276962601502165 8.839126136726984 10.214040834303345
Ni 12.587327586230243 7.519874430198145 8.188889980836343
Ni 5.230051359693543 11.092633110726611 9.820745531117756
Ni 8.353653405681579 5.513539336217618 5.613680300128693
Ni 10.777577920151545 6.121470058129473 8.834733234880146
Ni 7.819954090158777 3.69039017387323 7.270128178812563
Ni 8.549061200505772 7.834656495629487 4.724481929162938
