52
Energy = -233.38758164 eV
Ni 4.31269055513871 6.133942494730318 0.7702509822405237
Ni 2.0124588093572924 2.534595260536386 0.7801069419500584
Ni 4.132124658123124 3.6571467364571846 0.38964333180034133
Ni 6.255668464166287 4.815492791425727 0.2193887970636372
Ni 6.2179307103406805 2.577817744014758 1.231230716359701
Ni 2.124534478498858 4.962482465616981 1.042158573248751
Ni 4.496071483950937 7.906610007614848 2.542313998597279
Ni 4.030289482179622 1.409472924292664 1.5264696936985775
Ni 3.15052369924357 3.4077731393171797 2.5824663644356582
Ni 6.499361214027314 6.612371543474348 1.8592598068059327
Ni 0.8105643979351764 3.544916038808508 2.6350738821812727
Ni 6.053249304288488 0.45638194560381995 2.438743700783915
Ni 7.658884628192702 4.410770440733958 2.1542556956900505
Ni 2.368730778035401 7.349401614281485 1.5209497297407726
Ni 5.3187727024033045 4.547824561699087 2.301503056813692
Ni 3.3265469107525476 5.8287636051558245 2.95722622211419
Ni 7.561253880990121 2.1734717214113712 3.28376557324603
Ni 0.9881027678309965 6.020863096994506 2.997968612621199
Ni 2.433892184346824 7.856742411993681 3.9193954534440856
Ni 4.027516180509719 0.2655274167888669 3.7461360497800706
Ni 1.9644292936583188 1.3429007919128009 2.9051631830584297
Ni 5.2066783929134575 2.349274447454716 3.4162359009206225
Ni 7.834402961791256 6.172309689770713 3.929291588564775
Ni 5.498606842530306 6.284896092138483 4.031738300638633
Ni 1.9192909901069457 4.466640804208524 4.511033345513407
Ni 6.61830538178668 8.26552091055787 3.659134990544551
Ni 4.331399214227595 4.277629786428703 4.431240263735216
Ni 6.742680131190112 4.109353384360604 4.313371340900813
Ni 0.8143138181561549 2.4148550319815643 4.857362316589962
Ni 3.157419052108287 2.2871802440450786 4.796362689340581
Ni 6.2424062084255985 0.7423894815263281 4.851515525720427
Ni 2.0241223609825396 0.31455456531241427 5.131397882533908
Ni 4.616225298381312 8.308165548382973 5.0309938944411545
Ni 3.4444770234612956 6.226885501339048 5.394530188678993
Ni 1.0948085256985745 6.4366064253781525 5.471172577894093
Ni 7.660054603603183 2.5569016364116277 5.7918741903752196
Ni 5.291772111455169 2.7093541563975134 5.919902919373489
Ni 4.175481387358562 0.6175553696478616 6.184681743021982
Ni 6.704010105810054 7.251747793019013 5.88074699525273
Ni 7.855084828358635 5.052908946003669 6.165065164035588
Ni 5.512822237760416 5.170894654465373 6.24265112507005
Ni 2.597305150797489 8.13743830576782 6.346130918470228
Ni 1.031404431370655 4.18490495436414 6.647996563673299
Ni 3.39711519617283 3.9859208930753605 6.5896301775484565
Ni 2.1303866870552643 1.992043060426762 6.911813982356804
Ni 6.32145680564795 1.1749097176529446 7.221613941703275
Ni 4.637868184153095 7.207120617862564 7.2569493472896465
Ni 2.441662215361515 6.019516641758659 7.550477068428474
Ni 6.5459771353082195 3.635407800267756 7.714970402249561
Ni 6.645081992818271 6.060024108065862 8.03240648562417
Ni 4.505880813882085 5.027392807093962 8.41928598912908
Ni 2.3659550502059474 3.852479594818309 8.603003537554422
