55
Energy = -246.75143073 eV
Ni 10.46067271713293 7.554596733963482 6.185024752342765
Ni 7.573782274130762 10.358131742327828 4.915660410434609
Ni 9.680642414876917 5.855885726615441 4.616606374886679
Ni 5.21929256038778 10.072111452028905 5.37278720428992
Ni 4.223852569692294 8.239128119583851 6.580929867274247
Ni 7.83731599236224 13.073115981797363 7.979825670286951
Ni 6.691599703505408 4.98016434023051 10.481279727773078
Ni 8.69477160765036 8.139736567921632 4.703677027937484
Ni 11.217220243778884 5.200247976975558 6.339920273223539
Ni 7.957541043715426 6.590151511174571 3.052584493752024
Ni 5.107265907782188 10.087170211592731 7.8531937575433135
Ni 3.619803088217818 6.173009665247608 5.360908059351845
Ni 9.252346977091388 11.18111548960088 8.227879359475184
Ni 4.095100179041322 5.84479622455533 3.115504587921652
Ni 5.728462049830088 7.182930185074054 2.112017068051832
Ni 7.4496893664924535 10.031954327444906 7.312518558011305
Ni 10.3992189730604 3.8314155351204437 8.42153637928898
Ni 12.578443496167502 4.74933828198123 8.178980652301846
Ni 8.566829863869254 7.96344840896056 7.564358574403523
Ni 9.044862062399549 4.102625821756856 6.367099830207842
Ni 11.72102457868347 6.963964821499275 8.124487639931894
Ni 8.34360865375763 9.352313643445452 9.497215345279018
Ni 3.1069101018763647 6.403423688952582 7.652171890149227
Ni 11.250103737395966 5.515005369506803 9.906454004099098
Ni 6.655856968709404 8.747768365616418 3.5390962749917985
Ni 5.219527181026739 7.093382207491159 10.933671463673601
Ni 4.028163384757809 8.248099229639696 9.026058533355272
Ni 6.318257405272581 11.856154036858412 6.60869086187565
Ni 7.3217280850705455 5.809590664165101 8.316506850024329
Ni 5.561644857719965 6.227165896247576 6.680049950319698
Ni 8.669809270351937 12.023391119488464 6.109786584679875
Ni 4.99028347866705 5.9634826468453275 8.971181601436795
Ni 2.9698477298407364 6.436950706058956 10.111904434617548
Ni 4.43599225280288 8.097505641870555 4.161204756818044
Ni 5.983885536952475 9.273475496312162 10.109004291688958
Ni 9.55595489882065 9.802336735972274 6.1792247891109335
Ni 7.493470246136976 7.253405647714332 10.226191147958238
Ni 5.564152734567858 3.7234675494994645 8.771500871117635
Ni 7.9837199017908675 3.604607571406248 8.56191198617539
Ni 5.1807008335678955 4.354608568526997 4.730360418902739
Ni 6.088082773192286 6.469909521689919 4.357566357021705
Ni 6.216612002996537 4.898183570650937 2.5777960124019392
Ni 6.6414939058604725 4.073266824778166 6.62531249423751
Ni 6.604298612411475 8.28816508779961 5.888681883209535
Ni 10.540993656936928 9.101626384455654 8.199609273154763
Ni 3.1625312468924083 4.3506265317592945 8.954938941873914
Ni 9.810249078732305 7.423843972223737 9.67460605360971
Ni 4.4293120227997385 4.717457408609857 10.893518756386865
Ni 7.915477041561409 6.239627327109876 6.024308546317129
Ni 4.197655323782163 4.321839517073533 6.8744566647655345
Ni 8.953693825610996 5.210196606646991 10.071101925370568
Ni 7.629935046197943 4.502544600486772 4.427542621845868
Ni 9.669703570028835 5.893510413998719 7.842559824298786
Ni 6.260222260817867 7.980019356502774 8.243911146645356
Ni 6.842588629238445 11.284212891156892 9.10132709991069
