53
Energy = -237.42943979 eV
Ni 2.5338229005665354 6.079505627201666 1.7112931229208765
Ni 4.462675394273284 6.140173685810178 2.77539187340979
Ni 4.943558388539965 1.147017822787205 6.504746110970466
Ni 4.682466074275863 7.3453540951337235 5.0372609485816495
Ni 3.9229558387895236 2.459070151999301 4.810271776611032
Ni 6.326256490844776 10.17961944345439 4.5197765095758875
Ni 5.153736415939758 8.77842477713568 3.117933821100695
Ni 3.031493756154877 2.439062317901458 7.429784699045079
Ni 5.719751201559961 5.845013018642983 9.7138220538523
Ni 6.568749673197339 4.147088919961049 8.207612729860765
Ni 4.041721461234589 8.027197997393486 1.209219164823309
Ni 2.3741303699905623 4.009770915547434 5.6658423859306275
Ni 6.463387017329231 5.96839478140219 3.9186142405930005
Ni 7.728204150052951 8.759785531234451 7.906658556294224
Ni 5.147128739648823 2.0928864841641364 8.686012270351153
Ni 5.562327514909707 7.974013642775077 8.637694403894638
Ni 6.481124189248035 4.944430827139851 1.6812482147397814
Ni 6.367928480765172 2.424213556183497 4.947631568096305
Ni 8.614644976002829 3.1630853738308162 5.668807604022679
Ni 5.253941285707552 6.025984034807693 7.192052954520802
Ni 4.876433399108462 3.4933097051241546 6.712311948796226
Ni 4.0025709120575454 9.570410555735355 5.068918668029928
Ni 7.482146592972469 6.53556345999572 8.355920976141775
Ni 7.0897180397991555 7.069612564686714 5.959176189769342
Ni 2.9053935349576117 6.135447964922047 6.554536505447981
Ni 2.934243615535684 8.085138001583502 3.261732031152059
Ni 7.054251793351124 2.0795630512249494 7.191494464942272
Ni 8.849208880587044 5.538237173957106 4.978495683955901
Ni 2.393565954059882 6.065218548088084 4.2471972520235175
Ni 6.790477769376383 4.610070044841889 5.854629461806937
Ni 4.470798530502486 4.998273388060158 4.9852395195011985
Ni 8.108404490309677 4.601655540101434 9.745117804349725
Ni 7.393952543144097 2.1916275502617233 9.570964597563467
Ni 9.27340351948635 7.264152896943865 6.737403553394459
Ni 8.767751420836593 4.980047868119693 7.272363386492246
Ni 6.347210325016142 7.28691574072118 1.7196631635315434
Ni 4.141128037338709 4.245603265726048 8.873249384366025
Ni 9.018443944352025 2.9041367430309704 8.101418052542526
Ni 5.853491714500045 3.6373547837832234 10.441291063597383
Ni 5.319914812665872 3.650673664950562 3.2556099798116316
Ni 3.5765367789733955 6.562054050618963 8.83932964439288
Ni 2.1521302463180074 8.09977799753087 5.463362704852493
Ni 8.204635874038786 9.207630703891187 5.6692052100936365
Ni 5.900436231864054 9.056390915278733 6.4947768722921975
Ni 2.0816172111200477 4.590022942119683 7.989439754063623
Ni 3.7982370962826164 8.246420928869535 7.119037770378724
Ni 8.376370163017386 6.2310355172225975 2.6743953643394205
Ni 7.688219039163046 3.960521944546115 3.5782969150553283
Ni 9.489538723843285 7.656152178677251 4.371244890552284
Ni 7.339014837751777 8.177297469088984 3.717852363357495
Ni 4.822702302373366 6.087640285862628 0.29418121836607325
Ni 4.161478178675961 4.168089987000896 1.28063072183494
Ni 2.949204235443502 4.056494630783555 3.2724729418647707
