55
Energy = -246.35943274 eV
Ni 5.975197180161081 7.390246680117156 1.887954736531808
Ni 7.277715936223033 6.483306390993289 3.560495614854851
Ni 7.440253236517651 8.84972913801118 3.032167355396005
Ni 6.497050333759606 10.333354615839102 4.68867467090442
Ni 8.749287986295743 10.578043632894385 3.9734440160815194
Ni 5.366631674185094 8.307099401353595 3.9567497628227923
Ni 4.684388042873521 6.140930734590194 3.4704795428858985
Ni 9.689582855714294 6.0495349730297585 3.688576673741382
Ni 9.176723171487616 8.272393114249285 4.4969063358878785
Ni 10.394331273046369 4.660608731674408 5.500467858721718
Ni 6.034085163310129 4.33353259963261 3.814740328156777
Ni 6.218735364516389 10.948152200057036 7.009775937969571
Ni 3.850803388775741 7.137349384665637 5.435565503705366
Ni 6.978301985300496 8.145299401664488 5.677825948489891
Ni 11.047584362375199 7.8849922473403184 8.174631207356812
Ni 8.440648604600032 10.106214167333427 6.199522001518954
Ni 5.976344247207851 5.994798257045011 5.579849951860825
Ni 8.434654320429606 6.100038390103712 5.603986644812632
Ni 10.834671125024773 6.996036434495686 5.68020665161155
Ni 8.258323217000399 4.140285744363972 4.496627689367331
Ni 4.119046438150299 4.677007367872668 5.4211258889215435
Ni 3.0904133922996895 8.304259461151803 7.360587542433702
Ni 7.707077954310611 12.179932915232783 5.618429123062714
Ni 6.354636759251025 3.7735603902886514 6.062435893192114
Ni 9.012252685720982 7.906242238613368 6.909981191934694
Ni 4.784000957074335 9.320896941484968 6.016422182721354
Ni 10.680417308831789 9.342654578950576 6.15824312177985
Ni 5.233995338568857 5.487723121013226 9.001978369209045
Ni 8.576530171786866 4.067297076674926 6.921798107578539
Ni 4.541001986231291 3.7677279744860663 7.628962366492756
Ni 10.07277855890807 5.7954119740779175 7.619894137183257
Ni 3.503361847783809 5.927793618595961 7.464877692012908
Ni 4.008296661130477 7.515751552768246 9.418902069391825
Ni 6.7799799110061 3.7429626453037166 8.375610918112061
Ni 5.34205094394594 7.4234861194612 7.41944957068166
Ni 8.27488042349273 11.683315161783911 7.9774496816276255
Ni 7.184261261812121 9.004672347186384 8.020380269483839
Ni 4.854308640370611 9.570340697124124 8.442986555785758
Ni 7.634808023292423 3.1573118787715218 10.506019546686437
Ni 8.69007368868665 4.8898789347050435 9.286010337820153
Ni 5.301090439671128 3.461356474732526 10.093385677448149
Ni 7.323500568874872 6.103781578048882 7.667032859203917
Ni 9.585319762086508 9.741386025404319 8.3382559241357
Ni 8.726915946264082 7.384255595779199 9.119259233365351
Ni 10.555763317151055 6.260415806795833 10.028866108582275
Ni 8.946879146240656 10.937243147197512 10.164270400338838
Ni 6.38714132550943 7.419911820228074 9.641277531194792
Ni 6.842730490478658 5.297056026821644 10.798788467178818
Ni 5.3548705967388255 9.17318726653684 10.724093617127684
Ni 10.135229000078215 8.670785063641896 10.410991251044859
Ni 6.645671500834807 10.775068727713515 9.451643806521021
Ni 9.189573011632556 4.638048768465476 11.505992381873106
Ni 6.406380892965708 7.4004899118539855 11.942123276048884
Ni 8.620797107139252 6.8730099909814255 11.363259400452039
Ni 7.768320789612211 9.033500877534493 10.75023738343402
