55
Energy = -247.4806276 eV
Ni 5.03286224040298 6.839705295767265 10.670598737008975
Ni 10.408556051734934 8.92015853845374 7.322794788882852
Ni 9.529529831912702 5.415271760042335 10.464351814168866
Ni 6.802877065198967 7.301618534620002 5.601696221940414
Ni 10.427419212103812 9.116446243633312 9.77485209924517
Ni 9.493163382873774 9.774981240763761 3.869612409673203
Ni 6.341667781325575 7.046615558402335 8.799906956471789
Ni 4.7651951286593714 7.288082516514428 7.019921847008288
Ni 8.406894483228307 9.597048395019351 6.121479803053672
Ni 8.990644346677112 7.145461408316534 12.087922692374121
Ni 6.772203811224229 7.950672235562611 11.851797443753748
Ni 8.420410040140363 9.710743891284624 8.551987614069798
Ni 6.346434881678343 10.93569847239008 5.965966614975468
Ni 4.477854344415798 10.236122637969029 7.362350841442979
Ni 8.407565899645984 9.700128954520247 11.026914874511892
Ni 6.441559437532708 11.232484401135748 8.365044761359265
Ni 9.041113018953558 7.665350300692426 4.906376649622489
Ni 12.861996411559138 7.896328509202222 6.39973065466043
Ni 10.732813996297203 6.733020302648852 6.334172179690495
Ni 8.42342491157233 7.526085443194315 7.4190558183099355
Ni 12.476284711787834 8.507097263817643 8.62123210536114
Ni 10.424475144780839 6.928003163918678 8.75028311147258
Ni 8.433945114693016 7.626332673774357 9.859871492901684
Ni 5.1023889688200725 8.976633512420891 5.3742334454953715
Ni 11.100412652822715 7.1405559306291515 11.038525412379759
Ni 8.24992453770325 11.535185698252622 4.743311765800736
Ni 4.680554510187396 9.108200552590874 11.39045429885943
Ni 10.317793889196619 10.979956082995406 5.853763233312793
Ni 8.39625388323823 11.776670013154487 7.148205605916449
Ni 6.4708242237431195 10.18706670218797 12.541333507894802
Ni 10.422468748453001 11.172778756415715 8.273121137934444
Ni 8.566271402971049 11.828254645921593 9.631870253127659
Ni 8.38037751501684 9.135951672077121 13.311077986532975
Ni 6.354729625047793 5.484301828649309 7.032898788960648
Ni 12.46946249675288 6.158135258465654 7.910826412918203
Ni 12.468012307668792 9.138969484316636 10.9857099551971
Ni 7.237275266743756 5.838575988977654 10.880724597752794
Ni 13.22567044737297 6.931950043054303 10.112152987006297
Ni 10.421498970741105 9.161078056939187 12.178212035613086
Ni 7.158773453347644 9.30765080912803 4.238293090187442
Ni 12.308855562519666 10.216539079731772 6.919874051667783
Ni 4.505955841405348 10.785101986033554 9.707210717521297
Ni 6.401588436990092 8.956585342701159 7.3629254941601605
Ni 5.799661769822112 4.880541676190789 9.29588346869549
Ni 6.540496175781295 11.51280656822914 10.721879688515427
Ni 6.405601776591857 9.243066756986412 9.840473340195956
Ni 4.34178056004301 8.50627109778726 9.024725801291238
Ni 8.550109738101211 11.620416216413261 12.117217933999955
Ni 10.318304401109184 4.845482676722465 7.833664345612832
Ni 8.606645302004154 5.596837317076627 6.153638598819574
Ni 10.603091745093623 11.20349464790343 10.760065305272038
Ni 11.758176993651993 5.118830663069447 9.858966713661347
Ni 8.126764275801937 5.381261547603448 8.583103862274342
Ni 12.462446817785038 10.755081024128291 9.283877355290885
Ni 11.17675427072518 8.810128437253303 5.131675091824997
