53
Energy = -236.2761162 eV
Ni 6.335712095276893 0.8700865839862841 5.9347072074466
Ni 4.363553043855823 1.1346883543959867 4.8541125227065685
Ni 4.350920889989795 0.8578890086947579 7.196180678301143
Ni 6.299556909192821 2.730014009042333 4.1429872318606575
Ni 7.825385108151279 2.5752520426416248 6.1150809826786485
Ni 6.320014177145066 2.1134990613627895 8.004758722850417
Ni 7.913784265965052 3.86602097590933 8.051711394369544
Ni 5.183508568834154 3.064639675175628 6.207774507074743
Ni 9.273651630327324 4.496547855841129 6.232478932099398
Ni 7.505768567518021 3.2193312508219334 2.1131732323626062
Ni 8.641187931362722 3.548582941550212 4.176295173248045
Ni 3.842013700892653 3.1608470874139454 4.0001849395294515
Ni 2.904731606091386 2.5641124161284523 6.197307680486393
Ni 9.752288963231665 5.1833379422235994 8.504183177389251
Ni 7.017826729933513 5.369195009711443 1.2607984520941078
Ni 7.037714544819508 5.024548143317458 3.571062810511415
Ni 8.659911911918778 6.435913304790063 4.892643526599624
Ni 4.019558879241804 2.8144977808665077 8.375291143400577
Ni 10.341448536194733 6.513507964402086 6.675641689946906
Ni 6.863813079850901 4.758189268043084 5.91411467881762
Ni 5.72598704925559 4.496879380861722 8.339928033359167
Ni 5.265734980479607 4.023427489639279 2.3404566229540973
Ni 7.58116337700186 5.814198870056515 9.440202900414478
Ni 7.868801543278792 6.418372327198111 7.223868182359378
Ni 3.2675906096666623 5.216552053878346 2.9344170884132526
Ni 2.3079545973930884 4.588585854341913 5.0777042285493685
Ni 3.6693671553704776 4.875829226621746 9.4659984211424
Ni 4.689271700057967 5.1852039211478935 4.876039939477053
Ni 9.337021881469303 7.4705178780166746 8.70562103214761
Ni 5.341234718570652 6.3912346579451675 2.540065592504878
Ni 6.288249651388484 6.971495721883277 4.837983272073073
Ni 3.544344531080286 4.747403063421541 7.122118857807828
Ni 5.3288476239332 6.588650669179245 9.358109864014821
Ni 7.049493271250546 8.141822717834012 8.926988422531068
Ni 9.105076148813861 8.432298880775042 6.447498361522149
Ni 5.320194565295029 6.506944351580014 6.963134909143864
Ni 7.558326974256326 7.211145460641761 2.7840932576482715
Ni 1.5921075432079936 6.540321449221768 4.029705099631217
Ni 6.721039392872341 8.557384209331124 6.619708973316628
Ni 3.2019604363020115 6.85829457340032 8.265051721590492
Ni 3.7089717663358375 7.410457963920351 3.776861812941363
Ni 2.976255761106798 6.7465790503856695 5.912695150457772
Ni 7.871147284028118 8.81507402312262 4.47460943032513
Ni 4.515460518753909 8.578332409222345 5.6037120114094074
Ni 8.756579788483556 9.72183538334583 8.395562524005793
Ni 4.802263841043709 8.60227442840062 8.161827423706232
Ni 5.6894533971727475 8.6948997764387 3.383560290518754
Ni 2.7349757121389064 8.8484488442599 7.056555228898229
Ni 6.039436448959109 10.328345021965532 5.055678002687055
Ni 6.493269930832583 10.344764011734053 8.13956435880884
Ni 8.040973399033897 10.523440729639658 6.268416421292828
Ni 4.483280735250814 10.558974917386484 6.867888873893982
Ni 6.241166782246787 12.081063099039282 6.58642910179767
