52
Energy = -231.59243069 eV
Ni 6.0299182765963675 4.08289201180848 5.405239308048563
Ni 7.24687109809437 8.595586131663866 10.920343912698081
Ni 6.065769283866022 6.567136274648078 10.943791229679487
Ni 9.797358608055767 5.7501844704858485 6.521530476481087
Ni 7.231637138571621 4.543271226555729 11.148777156654809
Ni 8.441023712374083 4.075613114040031 5.4102651890702615
Ni 9.583520962750198 8.589385284967673 11.143657071208118
Ni 7.249433943491688 7.235408719682678 4.427821121766619
Ni 8.433175059837271 6.532870356299283 2.178012883120575
Ni 11.088008565745485 7.223988726424321 7.701844068544231
Ni 10.585512283978142 7.751690879849228 5.402245379568153
Ni 9.170051745049115 8.324028288083133 3.5807667914211003
Ni 4.909943447161572 8.603323980777557 11.1320387235397
Ni 9.7080778529984 8.65231435490673 8.858973529514422
Ni 3.3990848615121587 7.255111478373578 7.686990960206128
Ni 7.228991240361916 2.8286190215247244 7.038413260061583
Ni 8.547882572034725 6.482831592018425 8.583975773745626
Ni 7.237503036873288 5.753493625598069 6.575997118791275
Ni 4.672534900818285 5.765894297179679 6.506879381203125
Ni 5.919284886051701 6.488159019410762 8.566623626658217
Ni 9.343384662340029 4.621521605111609 9.977633221389308
Ni 8.41687204456682 6.559765251267388 10.964752046645609
Ni 3.387405740062959 5.038070210322821 8.393285664456705
Ni 7.255525168512587 9.584088934787 4.298144408756741
Ni 9.38888350551224 9.84373836353552 5.388682083762949
Ni 7.24151409594132 5.022293193398287 3.5917818648072566
Ni 4.785747683355519 8.675553205065576 8.84497538019651
Ni 5.957857418563838 7.9846473069070445 6.557195413732893
Ni 10.560517278239198 6.7136865474532526 9.97698775553732
Ni 8.462966787015517 10.377896556512592 9.958100884337929
Ni 6.065289778820047 6.542535373727388 2.1740196708070276
Ni 9.278176623257009 6.0476573716465305 4.323422312875245
Ni 3.905481380564448 7.776557184623711 5.387003878839155
Ni 7.258222673806293 11.672439384205724 8.370260996688163
Ni 5.212202193710298 6.063646003197454 4.317055644190649
Ni 7.252443534861989 10.19690914161983 6.487189016250044
Ni 5.3087144540469176 3.9209065091059148 7.699887390206752
Ni 7.246042314575746 8.769843827837397 8.549901477151458
Ni 9.174686426902587 10.550320252662779 7.680612336684528
Ni 11.076800799554904 9.426510696600678 7.025714775799459
Ni 5.11860357538918 9.862561271446628 5.378486704306928
Ni 5.336352003465925 8.33774232540947 3.576189627622037
Ni 6.038517997706472 10.385752128069422 9.953245569304162
Ni 5.119066667061233 4.633158851925617 9.972825501249217
Ni 7.23242561151181 4.401934196412843 8.863690030086076
Ni 3.9198137598249656 6.740486829735149 9.963488907734192
Ni 11.082260879266132 5.0065661338428 8.40537072647199
Ni 9.155787353559091 3.9021690607973163 7.706413432662704
Ni 3.426740533047862 9.456866682221227 7.010423576184389
Ni 7.255449423898511 8.57654420345869 2.169408315295169
Ni 5.3311436954310345 10.575114016743706 7.672794401242632
Ni 8.53357538582607 7.973841109054708 6.568587348345137
