51
Energy = -227.62035418 eV
Ni 2.8861802354770187 9.417516757345984 4.404431659076269
Ni 2.508002116348314 7.650735126723132 8.029266623507674
Ni 5.359768095104822 2.5334305390537737 8.456320617471658
Ni 4.4926156847731 2.668132847148912 4.840983362586247
Ni 4.929283208965005 9.733930114625919 5.661270607920289
Ni 8.501512934198443 7.171089850155787 5.778784677451975
Ni 8.772620030102159 4.898846609970377 6.847169137768517
Ni 4.266753218909997 5.152276715806179 4.733295924978309
Ni 8.191831353357257 7.1116003268624475 3.246482428437259
Ni 6.496637614835491 5.876286480011156 5.757292269225474
Ni 6.470852851415274 6.030177312523921 9.946024507474021
Ni 4.801074508623856 7.206852732863206 1.5520054481382985
Ni 3.049592660203359 3.5191583749181428 8.189897105741824
Ni 7.138497823148005 6.738266563895109 1.1256611445195384
Ni 7.178088504241709 3.505969556703278 5.84726420380826
Ni 6.394951729397695 1.76345093455455 3.9330514094075566
Ni 8.447333277384951 5.189985099608174 4.546452033072603
Ni 5.324189492062822 6.4179596076065355 7.753069280059173
Ni 4.554095235039693 7.447028473697568 5.597173385143077
Ni 3.3212056787666673 7.209714108226401 3.5319320503372476
Ni 5.776406297369482 4.899702924252169 1.515856484533595
Ni 2.645790741065747 3.3861588856556915 3.551396782687846
Ni 7.728550391145908 2.2990060174619 7.730164411111728
Ni 6.2859468507094585 4.226349861484127 3.7989225580564385
Ni 4.257237275200651 7.101036377652458 9.666056833900084
Ni 8.166756597506286 1.363447311188947 5.435939070279488
Ni 8.297180533910488 0.8667701839033704 3.0413973735459074
Ni 5.982720954385924 1.5266562288688241 6.344773286258523
Ni 5.887232112264391 6.560204984962486 3.454846697355305
Ni 7.043878575447261 2.75360596141436 1.8864287489365528
Ni 2.464811429416056 5.599403207930765 9.158928789250226
Ni 2.7399348092866265 9.625425999998308 6.722496528761477
Ni 3.6389431543775115 5.199804593418481 2.4538956690801803
Ni 6.801495010626873 8.486162268722156 4.574609903046476
Ni 6.608656545851997 8.283748777843872 6.814399258134608
Ni 8.042521168049465 4.896373051048452 2.2685867642396538
Ni 4.862933391200589 8.909441838193345 3.3692500926485156
Ni 3.1061896191758462 5.7154426761633195 6.8848079325242235
Ni 4.936440405630798 4.073543940601517 6.778462150915616
Ni 8.494721769876302 3.031696538265186 3.747037175644194
Ni 4.53880932050141 8.736533156762789 7.831666775877964
Ni 4.740269988902278 3.0019243061331795 2.510841594257753
Ni 1.9936186115700731 5.500054583849215 4.535230477172331
Ni 4.676577383185337 4.739180830511837 9.258402489699728
Ni 2.602028355833831 3.6412483712844037 5.885972414391937
Ni 2.1742983663005577 7.5837311672473025 5.654802208088629
Ni 6.362750951611055 8.226648361481256 9.192416425479742
Ni 7.761334112707362 6.642005026211021 8.017614321935651
Ni 6.777304091818712 8.741236424710737 2.1674503828906593
Ni 3.7123278154340977 1.738085751139982 6.849966374186439
Ni 6.859882304602078 4.4555974466572055 8.172187336303534
