55
Energy = -244.26212814 eV
Ni 7.1203249059457505 6.5849016548322 3.241096445438327
Ni 8.520768059094866 8.502285168465848 3.729019488734238
Ni 8.286547475895548 4.70217793040298 4.132478910555116
Ni 8.582800296441267 6.737106581073031 5.20321050949747
Ni 8.763625133098166 13.484076711639439 7.390179634602691
Ni 7.74825441963576 10.377325249578448 5.01370127944497
Ni 6.394442172439641 5.741043928620277 5.2969032040642965
Ni 6.395817994359347 8.289916947829372 4.7338821605483865
Ni 4.804836538428196 6.787344162322792 3.9102925715243178
Ni 9.832781358765507 9.27952929544128 5.492316278412301
Ni 10.944851094344894 7.23308293239473 5.084379565174226
Ni 5.793003368243514 10.013669678417047 6.314081430648386
Ni 9.362350624776278 11.435678290221535 6.403347667293084
Ni 8.095533670517554 4.4818686460955774 6.473686406681709
Ni 7.027511761780798 12.089655098626725 6.602283586136677
Ni 10.222754310621585 5.03959554059442 5.52142878784163
Ni 4.098241225388672 8.470933234371497 5.439400148061559
Ni 5.4226739328661635 7.352987790397119 6.991762742762048
Ni 9.843263563323095 11.883001000745876 8.710005078437803
Ni 4.079033248644358 5.8079540168229915 5.942537399125967
Ni 7.760266381112322 8.642964268583967 6.652657307536205
Ni 9.76136394346089 7.399115709698982 7.150399707668703
Ni 11.833701598529618 8.632842664889205 6.769640446176108
Ni 10.00607402123709 9.647527209404029 7.86122538452951
Ni 7.477819521903858 12.523037755204498 9.083565829795935
Ni 10.050109733575933 4.39664888266126 7.764517628661093
Ni 7.752830088451957 4.633434261968638 8.961455589444398
Ni 9.64757695295138 3.8976649595314865 10.019378584197078
Ni 2.916088154091725 7.461521820263145 7.21847312281175
Ni 11.627496918429975 6.161950529277822 7.208325229527486
Ni 11.76795741245487 10.397376040957516 9.043483568023547
Ni 3.906550813525565 5.650975691600788 8.319653909177468
Ni 3.9452182569120056 9.551915465461557 7.629676773677509
Ni 6.001525005431417 6.3470969477375965 9.271335485807146
Ni 5.891989210886282 4.827203874413138 7.412592169009478
Ni 5.555769815161608 11.258225591002581 8.37501023344812
Ni 7.864177713778292 10.515878699114854 8.055214163498018
Ni 7.626879157908689 6.495775257665004 7.565562281891753
Ni 4.125418509796216 7.805442162063454 9.24110622313948
Ni 6.057990580888546 8.968514885179356 8.569812088615489
Ni 11.311386727973098 7.95112179641375 8.964131963091068
Ni 9.675199018697853 6.124927838225619 9.183887753880798
Ni 8.304969030058306 8.264457397857187 9.114761018193674
Ni 7.830131398429455 6.421371614309033 10.827399215332905
Ni 9.522309501550566 10.093548209029336 10.275109965536057
Ni 5.978982021705431 8.133990814811964 10.760453576402568
Ni 9.999737688367267 5.549521299140612 11.570197097212978
Ni 7.026273657176957 10.39932356845879 10.219954848157466
Ni 11.328342959340382 7.30077707576017 12.590322184554992
Ni 9.91959666793624 7.761385231354368 10.849510718873525
Ni 6.682817848102335 7.175702622458015 12.761175817813697
Ni 7.949324155703887 8.871472713284001 11.689139415148762
Ni 11.73136316864652 9.190116843625724 11.00290080457869
Ni 8.976353291114114 7.143554438576676 12.983121626124072
Ni 10.063090349667497 9.325578430692124 12.62495140304683
