52
Energy = -231.91136423 eV
Ni 9.101605749646886 7.697537124088117 6.473301615225764
Ni 8.296128021692796 9.140909378636156 8.183528912395559
Ni 9.330408113310284 5.378137913638052 6.854826040162229
Ni 8.685726271262546 6.881839206117733 8.766905572920564
Ni 8.314979384204953 10.152157921352028 5.999652324869657
Ni 9.212861595614687 8.562678601590314 4.3112662940441115
Ni 8.733509386527553 4.562965228129546 9.092750955663538
Ni 6.160673274859638 9.551772583108702 7.306039311395622
Ni 6.8847815913863055 7.2507827733195205 7.42031705401413
Ni 7.4367381719586065 6.236222533129763 5.338180410974265
Ni 6.457338708363603 8.116229817593702 9.45280427928029
Ni 7.453434009069312 9.9351021721314 3.5179933730942454
Ni 9.442126446361375 6.155833094030295 4.421965295851578
Ni 5.971628480289527 10.623866863542837 5.228989048432767
Ni 8.701922611905765 3.011850809119391 7.349176050821675
Ni 7.50191618285698 7.482205621685097 3.067467210409064
Ni 6.643316305337334 5.6542708333005445 9.46581294570077
Ni 7.015011578037135 8.506984985498871 5.249163325235215
Ni 4.432803862499654 8.194755432248765 8.078762405527286
Ni 6.785036608723168 3.2419237160390177 8.873646767865807
Ni 5.496412022407004 6.489323763898584 3.8065612840000917
Ni 8.321255754957248 3.913094943182381 5.185490945193248
Ni 7.100849624048146 4.802508916367421 7.252694181234798
Ni 5.209433741023167 8.88508977838461 3.7169443248339937
Ni 7.444374721065454 5.016845674852905 3.238927817099433
Ni 5.097884479556567 7.320208324208601 5.894437966615691
Ni 5.990442597865802 4.4608918741040124 5.232368166723451
Ni 6.129814857866525 6.1084326748211115 1.5756632229490486
Ni 4.893368846334098 5.872900643118384 7.697103971087105
Ni 5.005890935216158 1.8495903619912564 8.833521966401275
Ni 6.622962194254282 2.406556037991086 6.33000184735748
Ni 4.52809514755133 6.612860370901659 9.842982498426807
Ni 4.06455122682169 9.344615452109187 5.942518714984141
Ni 6.651404019986234 2.753374063110993 3.7265312234986894
Ni 6.1863044012778765 3.734022964179868 1.5547884260890987
Ni 4.745229338447849 3.5799128739815314 7.109476647426666
Ni 4.562547975417342 4.239116750987105 9.399065717475931
Ni 4.165715207145558 7.349126140407807 2.1110817171740397
Ni 2.8272355873080453 7.140110873343152 6.665963658038337
Ni 4.7522659302364225 4.372556784520976 3.2005674258995676
Ni 3.2713340631625747 7.620982466093981 4.386148184548652
Ni 3.8316854546532184 5.26945396187241 5.399518676655444
Ni 2.8936310488722263 2.7373336661667187 8.409791141976681
Ni 2.71809304609828 4.980697978483806 7.645342341703095
Ni 4.557396630779669 2.552355214618338 4.863496759680928
Ni 4.048803606998323 1.3679968844714143 6.781000123862587
Ni 4.03248655615981 5.093147408490951 1.1653633108273627
Ni 4.542267784789464 2.2222598346295803 2.526139549188891
Ni 2.809009322172564 5.722086605411072 3.156885051041158
Ni 2.558362410667179 3.1912632276689754 6.096096520854431
Ni 1.6088650348697087 5.290994867955754 5.284182673603624
Ni 2.642617795861794 3.4828317072615147 3.7844263361590316
