54
Energy = -244.56984301 eV
Ni 8.51910676283259 8.064838436948461 5.5064370198001775
Ni 6.161248720819866 6.563233032835062 3.4639044899241713
Ni 10.6121744756131 6.931942458925189 5.132562913357808
Ni 8.655063457788325 6.6158389237482345 3.587750728398726
Ni 9.815771729552095 8.754906379283526 3.7346505798517504
Ni 4.06470091464517 6.7976090799978435 4.793840564222287
Ni 7.384194898602095 8.757413198204047 3.5089193399109426
Ni 4.945209230181107 8.681492282177393 3.484636464370753
Ni 6.046926894769345 8.02634043189907 5.391125151885338
Ni 4.016245400796908 9.154218594470096 5.668550536993055
Ni 9.111265229154972 10.016928219181898 9.727147682266638
Ni 9.166606763460042 8.536366892803203 7.839949908211158
Ni 7.034882912692183 10.189560574432006 10.980818705483284
Ni 5.090389894315397 9.935125640272348 9.550420678707194
Ni 9.212132635039719 10.893942492103287 7.370541616144477
Ni 7.130664605475707 11.164668780768464 8.731346116979259
Ni 7.093683057655064 8.789635201293548 9.17218385430277
Ni 7.228619007613611 11.912376174700478 6.387328970576364
Ni 5.199033282481453 10.823576661698576 7.176275824452226
Ni 5.101560648727348 8.513622405308292 7.663302575601737
Ni 3.1882120068006548 7.240535269005346 7.115230887997148
Ni 7.196375383064158 9.65605708106805 6.859077898766089
Ni 6.063574473668528 10.376813465100136 4.865056447407391
Ni 8.556292339118125 10.41419770290172 5.00113217963491
Ni 11.089292705551394 9.69030055101201 8.344275090777973
Ni 10.537483797861197 9.28382921738815 6.0039843046645
Ni 9.514814100352547 6.000457271268029 11.110906796206866
Ni 8.395962481630555 4.317651867511505 9.745876193976999
Ni 8.359114377910547 6.670074567765292 9.247208590354088
Ni 7.222893794939641 5.043611982370136 7.7750322158112155
Ni 8.2964118686946 8.110676461993904 11.164800055335576
Ni 7.264457851003995 2.795849306595158 8.220755375335447
Ni 5.256629745592835 3.777477428986897 7.247013144937355
Ni 5.356059742558485 4.6564360322749625 4.879994983062599
Ni 5.888601548502766 6.628727416938608 9.12670482628622
Ni 3.375839427431481 4.97313452010606 6.2651733474501405
Ni 5.2487429923766316 6.159255276746367 6.7915590095313005
Ni 3.899098388227331 5.361477305349068 8.625514662189632
Ni 4.651644700662604 5.9029664022641235 10.898261463152101
Ni 5.8013190491178594 8.062059680593629 11.068180885775396
Ni 3.8537334235209015 7.724079362186306 9.507168242607715
Ni 7.075889061540064 5.9173148927241925 11.128084302748439
Ni 5.899479392244854 4.254469863783114 9.617310806648936
Ni 7.195731834580032 7.361269749433252 7.317229674284676
Ni 7.343147025838305 3.5403688248682186 5.894160826480658
Ni 9.251757333038725 6.218902667144312 6.983526466154912
Ni 7.4586489806016525 4.49971581525883 3.655298324029651
Ni 11.273197107962659 7.408823191888229 7.50031188321619
Ni 9.304340296036985 3.8672159223794167 7.438894708813152
Ni 11.237744970259707 5.122789066447344 6.644629088857384
Ni 10.37681421193517 7.86879645875294 9.804663047303405
Ni 10.463023832198207 5.51921875455406 8.929785378253069
Ni 7.318004219196354 5.907818708297518 5.46442952689124
Ni 9.400051274863063 4.747856165061877 5.090940204773809
