54
Energy = -241.02830622 eV
Ni 0.5828798874043992 4.394329761434662 2.959122426120827
Ni 7.089155382178906 6.240412706585793 9.088454628036164
Ni 8.321913871273033 3.070473032865888 4.525021315990448
Ni 5.036360825457173 2.5153297895831974 6.970060830122454
Ni 1.2577711425842915 0.6234620116642027 1.3131697592175582
Ni 6.255545595625775 6.814949705027721 2.0889639223836247
Ni 5.1229054870727415 5.052498761827932 3.202415133539546
Ni 3.6474577902591023 1.1666420485909355 1.0319423895352409
Ni 4.405597243902326 3.5020619740862915 4.938081769724915
Ni 1.913582972866339 5.087892865847025 0.9580434844557053
Ni 0.25878749650742067 3.523780522045272 5.146475800877382
Ni 4.684221069820577 9.304892970447506 4.797674444263508
Ni 6.231128701239478 4.564187514802849 1.2279287778079662
Ni 1.1498733776408219 5.855417109852752 4.827280298696713
Ni 6.096369814264886 4.279407284032248 8.137547265056932
Ni 4.089545930466276 2.6137423294647983 2.783207550596227
Ni 6.496111019477541 8.693485813843413 3.500672879975154
Ni 4.015811206787327 3.701819619249498 0.7603238578670001
Ni 2.635893494402093 0.6885706194555001 3.1388448842226664
Ni 4.628384444382034 6.254076869987848 8.60817223802636
Ni 4.0839330451455105 6.043923007788811 1.3342249427054051
Ni 6.310639800643396 3.0911761421101023 3.3681592311741815
Ni 6.588334222022821 4.463293166583853 5.413094936020632
Ni 3.6002475681839896 8.324173327161946 8.33780654498716
Ni 3.5214331517170994 5.979587527378052 4.7320467587078
Ni 2.573123734633778 6.531027985011821 7.024957574402469
Ni 7.449186445391058 2.7697059939077695 6.788446645611671
Ni 7.5897730409916715 5.208510879871115 3.281384948178117
Ni 0.40723336336878585 1.895976400064255 3.2485967562054068
Ni 7.508279277862756 1.1929013556484465 3.0447286404897165
Ni 5.170686476210272 0.601771483930839 3.0807047036470734
Ni 6.469120502658483 6.371755026225899 6.910019825780334
Ni 2.86446645457395 4.601100341975899 2.9689735933122052
Ni 2.2334731853470817 2.8062994688509466 4.34177379156106
Ni 3.57403834982139 3.9811402109729506 8.235352137899751
Ni 6.255303012614288 1.5875246929136135 5.102271145922248
Ni 4.255897083326255 7.690352426003779 3.137335417947782
Ni 2.265634602055456 4.355930571962804 6.2055383502234225
Ni 6.786379422688145 8.523595217873881 5.864813202150654
Ni 3.9219367570044468 1.1494476197802486 5.083733993781113
Ni 6.002354109585439 8.253539509772002 8.221672940259392
Ni 1.9194271949077708 2.78584919903128 1.654563053083355
Ni 4.548621384909044 5.1269603073967245 6.570786728559526
Ni 8.189403504605629 6.419527456687894 5.256065838131723
Ni 8.323930316109914 7.527100413971095 7.477937022576512
Ni 5.939267543187955 6.718770044571201 4.5837077886985265
Ni 4.503306265587218 7.66792954855987 6.35637048819489
Ni 8.106297264185256 3.2443035925772916 1.9855485276785505
Ni 1.4423335146770582 0.8611923916054928 5.2258424443140346
Ni 2.6720651835291864 2.2016029442185117 6.763822702653389
Ni 5.914749807283662 2.1272347099349664 1.2485031100226025
Ni 2.5147270933132115 7.990381634182886 4.907123182391673
Ni 8.273580374628738 4.977918408839677 7.230740040346541
Ni 2.0680061483530334 6.74754963667405 2.776435290601005
