50
Energy = -224.34329538 eV
Ni 10.953319955286803 7.32013205189447 8.8236337656083
Ni 9.69675683723648 7.3205797110335205 10.888497703979606
Ni 8.551635339694519 7.320498706265115 8.873607292708439
Ni 8.434252691260058 9.309653198425806 7.429575042518886
Ni 9.496185228547047 11.24945016246186 8.100619330874286
Ni 9.651443344207573 9.335841447831566 9.55552015632727
Ni 10.845858118626696 9.35156433443946 7.391392913676465
Ni 9.356148431197768 10.5791884349981 5.730115755776622
Ni 6.240760291212037 9.322969666732035 6.3350810403772
Ni 4.907080513293513 9.373125134584589 4.4539771318014365
Ni 7.1214765344174245 10.705189816030996 4.7099900977145985
Ni 5.125343515633805 11.303309975730992 5.912653050685894
Ni 7.325399051836135 11.394987808096694 7.005645991014622
Ni 7.511701971727537 10.582155686678174 9.313536283719893
Ni 6.423011506142805 8.54555558318708 8.649862934408205
Ni 5.284212311312977 10.600649881013451 8.212340895031094
Ni 3.813704128171015 9.360762615125923 6.618536285160269
Ni 5.540680515579417 9.738569124710809 10.44812803283901
Ni 5.490625386294601 7.32121058836853 10.522993579632514
Ni 7.6240457232018874 6.083829461428996 10.75317534045282
Ni 7.62436757197294 8.557744721617803 10.752984492202883
Ni 4.038387036454735 6.074646838435463 8.941289324765204
Ni 4.038669635558139 8.56857944483049 8.941066307724068
Ni 2.7219659619103944 7.321734380272373 7.34875541912207
Ni 5.001578016009306 7.321471657298054 7.0432794836834365
Ni 8.433651956653236 5.331691815924776 7.429569978395426
Ni 7.351906467382261 7.320922185185114 6.784265171794262
Ni 9.355501665602732 4.062197195339411 5.730598790242218
Ni 7.121075442179527 3.9366056895285046 4.710650538691527
Ni 3.813201078485137 5.2823817674004445 6.6185883196928605
Ni 4.9068180153480006 5.27000725456367 4.4541624092689185
Ni 10.671685474858865 8.603037857985681 5.0562044901381835
Ni 8.21936302351438 6.03939121423705 4.925915039873466
Ni 9.687741636739032 7.320521084959317 6.704499569992484
Ni 6.124372810645884 7.32125375830544 4.741007197706384
Ni 8.219945640418558 8.602403735752855 4.925880729799536
Ni 5.124392131455135 3.3395756605419757 5.912576048261778
Ni 5.283437683675223 4.041809479487749 8.212726759183248
Ni 7.324438689736941 3.2466248066354892 7.006430703082737
Ni 3.734312195447081 7.321706495228044 5.102344599530292
Ni 10.845536739891099 5.288848020708876 7.391596687853545
Ni 10.671408666144426 6.037747714368508 5.05611011974381
Ni 9.491560464441482 7.320565907492211 3.4676168651404438
Ni 11.986924564146477 7.320095495433132 6.655998213662001
Ni 6.422830352399182 6.096611991191172 8.65009480702736
Ni 5.540025816020114 4.903807470176801 10.448306463683359
Ni 6.240244369121929 5.31938436728878 6.335154485971426
Ni 7.511137970078256 4.059543036565918 9.313780062684842
Ni 9.495515537538479 3.391425721929139 8.100883866821137
Ni 9.65094708541746 5.305024486318794 9.55536522402344
