54
Energy = -217.47548864 eV
Ni 0.9032277682336707 7.4307681541558335 4.705364210712204
Ni 5.852380318683316 2.4895853470993297 7.636391056026682
Ni 10.961865076529476 3.785408733545071 8.702747491843354
Ni 4.180964713361347 2.637454067130196 5.873103967132544
Ni 4.5983229242812405 5.6648052552351364 9.247881313206976
Ni 2.4625264215811415 3.6919543909783044 7.180487636359572
Ni 9.254721609901669 10.015854034741242 8.710466725780767
Ni 6.483562292240003 4.834351503865982 3.497491467436582
Ni 4.386257427200269 4.3887260332609275 4.303968778311633
Ni 10.07214305543119 10.528800702845063 6.695680565600423
Ni 3.7489648056812452 10.966702521383892 5.509105730958884
Ni 2.868613424694499 4.0235557446875205 2.594561986326784
Ni 2.332406023090052 7.483451142350828 6.550758874092163
Ni 8.792608344531038 9.186663321966064 3.3208436621837847
Ni 4.955063067997876 4.75554053231734 1.7205239875331682
Ni 4.177013807381903 7.928837709348175 5.103533173083917
Ni 8.236605854037323 4.931523276220812 5.08080502639584
Ni 1.3399563576749598 5.410991790318707 6.0459150320414805
Ni 2.727243692218991 8.043844765668013 3.2238319495314975
Ni 2.5962205916270054 5.936317677815939 4.10873830876954
Ni 6.83534895880121 6.253974703565782 1.7377364519674325
Ni 10.171724189977063 8.227147822043044 7.5558391225002195
Ni 3.0500918541980218 6.222580254532289 1.758872460639252
Ni 2.6591867855930187 6.278641576423603 10.34658450173199
Ni 3.1925246099766365 7.949755423199744 8.821715171963778
Ni 6.294300673186262 3.7505458292202913 5.6650434454287355
Ni 5.8034180618705165 6.096538463516078 5.400873481065383
Ni 8.892884431338535 13.047814870524618 5.160909557230143
Ni 8.16428091702921 7.03478276403638 4.057159872676193
Ni 3.1835356262635917 4.454870363015021 0.307802149515621
Ni 8.63266785360113 5.011074693539694 2.7144917478052277
Ni 4.870974814180253 6.698757812927837 3.2048817089472266
Ni 2.170183361235163 3.563146275034939 4.800309533421458
Ni 10.445318544587385 5.1831421531805875 4.200048882910374
Ni 9.769380901102615 6.530384422767911 5.933286394458364
Ni 9.228441932628202 8.67715079347338 5.496676666325449
Ni 11.059617218649793 6.010201242251634 7.834066559067556
Ni 10.288407516930276 1.6851801899426941 9.139931734064952
Ni 4.46343000554941 6.815102212454023 7.229752158763728
Ni 8.988670825670253 1.0458419961475585 5.56024636628552
Ni 10.475223458272154 2.1896702939416866 6.9190990321697114
Ni 8.120832641292417 2.785014603089377 6.736405498986925
Ni 3.802946654059754 9.26029760602268 6.9849808329391925
Ni 8.499462153450331 10.826586360252715 4.935634267720756
Ni 2.224439429625462 9.382920743353075 5.15927263936743
Ni 9.488806948390675 3.09731478001351 4.695825250843265
Ni 3.6140039411028653 1.9040962203526022 8.191797567811205
Ni 2.1473187181683175 1.5648026860493411 6.1578314053654
Ni 1.2892553092291335 2.043246903295534 8.218420139570888
Ni 1.1347546400765833 1.0236906543693536 10.099583117811799
Ni 8.304646694113588 11.915928818575704 7.0131501417747355
Ni 4.702974499303362 4.4797614975116105 7.34905406215328
Ni 2.4242309260105204 5.7732107201176674 8.200577608685977
Ni 9.94599813599241 4.367208056254169 6.726703250078725
