5
Energy = -14.83953339 eV
Ni 6.0576422011211655 5.624853653231309 7.697075208889341
Ni 7.297843405880702 4.964880355853893 5.839219277701239
Ni 5.725659390645762 6.689216983884316 5.620391838787267
Ni 4.805109632771833 7.44149865845337 7.49141035300115
Ni 6.684064304074714 5.74099831742757 3.860031401642984
