53
Energy = -236.74023346 eV
Ni 2.993351808075162 9.168637085638752 4.834633031937974
Ni 4.760438823710337 5.7228279982547265 7.846762020355951
Ni 8.480967917371254 2.393003959759211 2.736603365239939
Ni 6.194480646053876 8.32497366776846 6.771500234391716
Ni 4.648460992626431 6.72103493044514 10.174473412388508
Ni 1.3485569900676455 5.95356771345891 6.951306095723244
Ni 4.920211471796182 3.802666169056375 6.364820394558365
Ni 6.465323395583585 2.1452680337650754 6.8881945284415105
Ni 8.702133360116273 2.6349335418794024 6.802960129659168
Ni 1.7098727101557314 8.370558818576438 3.0169686291603006
Ni 5.3818912043362985 2.1753706572149074 4.73240111276496
Ni 8.41426275559793 5.4617566719180255 8.936271174269068
Ni 6.194180842742011 4.919614735217529 9.774017325864177
Ni 3.082129357062979 3.0846606487533883 5.015041139387021
Ni 9.378472779809327 3.545780497848823 4.655941816718558
Ni 4.37704535381326 8.21739539575143 8.39436498699858
Ni 3.994347284184479 7.557413821729785 6.224761332876144
Ni 3.287859588675605 5.381432589508443 5.696214175506664
Ni 8.49036370227412 7.10423373695239 2.6765176032494367
Ni 6.48316671859912 8.395066640745632 2.6578796889212875
Ni 4.905295387789328 4.506079477178977 4.14752649446241
Ni 2.7471371631332304 6.474551219351846 8.689398935245137
Ni 5.924700197261693 6.178583545274731 5.668228777671139
Ni 6.342437082884853 1.322656215630821 2.8263261174242387
Ni 9.811861428649625 3.5904157834549446 8.651793680396295
Ni 1.8399134126039627 7.146322163264568 5.001139173769911
Ni 6.521520153253611 7.011937343369433 8.721534385394685
Ni 5.139360672674836 3.2270485028715497 8.580053491508986
Ni 4.625709927907727 4.920662067567159 1.8291272033196468
Ni 0.8968712628617119 6.130894800210013 3.1566462384767804
Ni 5.140429117545986 7.093200138114968 1.3546017946182434
Ni 2.865775183410709 6.677830265617329 1.8809748637325736
Ni 3.7493070531314268 4.618541457929366 9.817510463680952
Ni 7.548418676823768 3.0692919553033193 8.93499537467991
Ni 7.101551421439458 3.979703070663362 5.007678506946186
Ni 4.149784404905016 2.736783766846185 2.7905814134174896
Ni 6.927357156185137 5.523526409802539 1.1184826864138682
Ni 7.727466207735897 1.7201842113871177 4.8339612927992786
Ni 4.1650401508221835 6.793523580065646 3.8165206431077454
Ni 7.997724444698967 6.819747743694968 6.891103307982818
Ni 8.526104158728252 4.739916685950809 2.7284100671835425
Ni 2.715736637183346 4.7009447697299604 3.246825795528826
Ni 6.932692036556506 4.6320658103220325 7.3577710622192996
Ni 6.467191425794945 3.5929359521387427 2.5381433331180423
Ni 5.301757385776626 8.72424209948105 4.610110237983525
Ni 9.301715601269025 4.83794790602767 6.7352672061848144
Ni 6.503488416003156 6.061088628730389 3.3012013039172454
Ni 2.0680279044468644 8.224180119462282 7.183322099878516
Ni 7.501405311262297 7.899247709358442 4.787870264847184
Ni 2.886558240970867 4.119412515765911 7.633847549933643
Ni 8.58900476262965 5.847167138181993 4.765325041988749
Ni 1.164908887109524 4.616734067034526 5.053404835651444
Ni 4.012024570109128 8.788229112185599 2.5944777043148735
