54
Energy = -237.87230803 eV
Ni 8.002817108141402 3.026885558302712 8.57862508712912
Ni 4.487230385982922 6.700094073253797 2.2363688905436745
Ni 1.712339073116015 7.688831519901104 7.3147040483819525
Ni 9.553241193507821 6.63161978069978 5.554446169161227
Ni 6.022351573998763 9.602366956522758 4.658489933994568
Ni 2.684540563297954 4.9286747233779575 2.5560962876238658
Ni 8.261716307867443 6.439797109148745 3.4703467478435805
Ni 5.6580623162192865 2.8086388689685937 7.368497667620848
Ni 6.3080637293082 3.0356692694686855 4.811534048472305
Ni 7.622150346352042 5.275239780682543 5.49453558781258
Ni 4.577450545491535 4.785262346395632 0.9839841445675418
Ni 9.453214576139434 1.6193440332590512 7.281091093134617
Ni 8.094888376958751 1.0206147737715132 5.264654788690029
Ni 1.6917400012509147 6.4596584949577105 5.294717659999273
Ni 5.466622940513246 6.714673607125643 7.691814594386929
Ni 6.16779858079774 8.871604280963306 6.922222673417493
Ni 7.75780671821838 7.035375528115171 7.110699597316378
Ni 5.911349399239137 11.16517780198962 6.395932594910904
Ni 6.9019926756735055 4.875907916806375 7.76091027605474
Ni 2.477489081640712 2.421468276073679 3.7219328465812342
Ni 4.977846565135859 1.5225102692922143 3.3957736621276964
Ni 3.8504981495082355 7.79806946735992 6.2198650770833375
Ni 3.724403834173011 8.033370388023986 8.530685118060095
Ni 4.145620239348808 8.48617178063468 3.837017431558221
Ni 4.4493403385793595 10.115553894984707 7.926175372156591
Ni 4.01613436012523 2.336788433641143 5.545660052344982
Ni 6.391901514671468 7.837146910673949 3.097874163224097
Ni 6.711903281507607 5.769251752608207 1.645474426747214
Ni 6.564961349121218 11.16517780198962 3.9006555745154317
Ni 1.6626332173022778 2.4013990462101362 6.071302634492062
Ni 3.726688452248338 2.7801427867223603 1.7510497823364255
Ni 4.778380392277768 4.636019273791565 8.64988796706159
Ni 4.332805261693864 3.84407862708286 3.7072903381168802
Ni 5.036169030432529 4.811237387719103 6.042195244542531
Ni 3.2156179931433506 3.5140555799559956 7.382862826774487
Ni 7.349202309033005 1.7375102428199594 3.1281100677457374
Ni 2.0357350900525355 8.806647538522043 5.035682340138935
Ni 3.9439415512521587 10.051584804583507 5.702685858595343
Ni 7.255788347367289 1.0606188514847792 7.498265566872699
Ni 9.180289863740226 4.983489987676923 7.267973164401222
Ni 6.058642120946868 5.371430119893185 3.750656148674628
Ni 2.521746129841013 4.314902687791365 5.149253069284498
Ni 8.034568697152094 4.0259567570330805 3.4665263650764992
Ni 9.789745617189185 8.115064365424004 3.787405382674326
Ni 2.2624603657489732 7.278169310734692 3.098094096913323
Ni 6.089248866986565 3.456811600011111 2.156617644167644
Ni 3.181204268222594 5.875085041270084 7.468765308260695
Ni 5.926328784569318 7.116333416416586 5.3237028924860015
Ni 5.782013169486395 0.8981669503086892 5.7190463687117
Ni 1.1604300490881194 4.8277842902041685 6.941320439310535
Ni 8.10057267195521 3.1410412268669146 6.273287296073869
Ni 0.02809149132189555 7.917214683479853 5.769140117203123
Ni 3.8456725663614577 6.166068571429677 4.430307933973262
Ni 7.920818779708318 8.331548691469289 5.068971585370363
