50
Energy = -223.5159036 eV
Ni 8.870765805344332 7.555088097531662 8.261212874039504
Ni 7.263473027371165 9.355312288799825 7.5601215363969745
Ni 10.274330160296966 6.945285135240207 5.487790903860798
Ni 6.573288326507864 7.3564571143232165 8.830520002341016
Ni 5.371082257156157 10.242784406046841 6.338982172906426
Ni 9.290583206287007 5.38699335594339 7.163530143857741
Ni 6.943762822887257 9.215378909606173 4.81383967741678
Ni 8.071916553246998 5.552886231004684 9.175525017847038
Ni 4.96285122852991 9.02198413615734 8.446033686503
Ni 8.163621978447736 7.729298932118942 6.125026346465858
Ni 8.433197289769094 5.61106536497325 4.990352448233252
Ni 5.744126401960805 7.926067610263404 6.480180702447115
Ni 2.7216807545567674 8.296375054296647 8.69602810965271
Ni 4.438545722346164 7.095466387277958 9.954771933009306
Ni 4.694621209301841 8.738186448233346 4.444330860420393
Ni 3.493835973126196 8.818857429545744 6.540871111739757
Ni 5.763303556395362 5.078925289050443 8.956197812252196
Ni 6.296206936592808 6.559080820234429 4.586736844852052
Ni 7.50918471641104 3.7677601981323523 7.773501157724957
Ni 10.511713703017712 4.560492595640854 5.199257232735322
Ni 6.235817918566574 7.893964501180634 2.750395262608429
Ni 8.506301873483206 7.758012224017076 3.8005804083266934
Ni 9.984248220871134 5.897732065260555 3.2957625132550374
Ni 4.202998808159959 6.585124860060074 7.797596408111542
Ni 6.845161431890738 5.872476500582488 6.93318522741625
Ni 3.9810978658940908 6.5877311832313055 5.488674026624969
Ni 3.6003644908843504 4.289762012621628 8.751062807571952
Ni 7.680700963904011 5.874439101125488 2.6489771536382505
Ni 2.12904518880527 6.076498370469018 8.826435025729378
Ni 4.823593571882137 4.5515561755130935 6.609366179744212
Ni 8.826902272260483 3.11302243575581 5.907457235243848
Ni 5.365431855968581 2.800067117006306 8.056729206334644
Ni 2.364146527606062 8.159011839130184 4.530306788722696
Ni 8.734142901492607 3.7773071488174406 3.590922089617151
Ni 1.8764654733951565 7.144336149551821 6.648990097557724
Ni 4.788886211383571 4.77628240828008 4.173697005427423
Ni 6.7504900075728305 4.02892004763447 5.31628211908888
Ni 6.540752414813537 3.8005588043730465 2.8146673134440148
Ni 7.015361671620149 1.7874508184755367 6.648237506627366
Ni 3.880673567035369 6.9234384869267185 3.145620455689082
Ni 5.44000976183066 5.72086152812043 1.977949762789163
Ni 2.4526399466487407 4.904188134030412 6.709590346016669
Ni 3.1914533235753 2.688958533058974 7.057035736194318
Ni 2.1100682467247305 5.76642923907863 4.440471079765554
Ni 7.064309159604943 2.009465213988157 4.266843100600079
Ni 4.860820738028187 3.6155375146910482 1.1825575926300895
Ni 2.944773849123087 3.5224696958520862 4.829690902019718
Ni 3.194250065408842 4.53876346693827 2.597290637230248
Ni 4.999469437431674 2.354801194454731 5.59332141456445
Ni 4.59536622827762 2.5906382575021896 3.2869007712206693
