53
Energy = -236.64948013 eV
Ni 6.495425350394769 5.1313336300902606 2.1966313030947977
Ni 6.824389637493373 2.9924003288679035 3.1764334841937654
Ni 8.771060419670075 4.434303041052812 2.5049146550122057
Ni 4.670786213676985 3.44050790691181 2.2860897386710013
Ni 4.540429995713951 2.3457370325396902 4.49994866527882
Ni 10.24059766711226 6.297895704827218 2.2259885517057736
Ni 6.791780745574044 2.814511251835649 5.5076166106346
Ni 4.366469244314564 5.8538646069201 2.079834423090982
Ni 8.05536216166277 6.718304143501721 2.8693824826266696
Ni 8.929269819510369 3.2869131803525216 4.585408901880345
Ni 7.384376262292444 4.954429008578949 4.449393625826673
Ni 2.90383997704716 4.169108032583462 5.208272702309018
Ni 3.2111264792925653 6.149349284323217 4.068450926133887
Ni 9.717202777002312 5.633022795425964 4.40265441229444
Ni 5.211029433619877 1.3454036539712562 6.57361973201627
Ni 3.7586511929948245 8.018238866865138 2.657504155011954
Ni 6.596455787033085 2.7702576907996783 7.850354659351886
Ni 5.049768996510114 4.590105020390637 4.2119286994342175
Ni 9.038082789668081 4.898458548977128 6.503022258465179
Ni 6.060340009087733 7.755772632563582 1.992207907671511
Ni 9.806919751392506 7.9340259920386575 3.8699852337156333
Ni 2.9750076586298277 2.1620292291450824 6.529276843350284
Ni 6.771155146679285 5.015542210959186 6.768989348037846
Ni 4.822047849965532 3.7092654385216908 6.519656111298941
Ni 7.675254919378067 6.947070898736677 5.599413109585933
Ni 5.717542478029503 6.85426355796153 4.023578083822714
Ni 4.301900221553909 2.509913787695222 8.518404633713377
Ni 9.807726553872275 7.336328333622984 6.2172205776793
Ni 7.968898648792758 4.40342971365495 8.741712202440244
Ni 7.528654564329666 8.722803477948162 3.949617546575835
Ni 9.147284662994563 9.556328680757812 5.393618148723531
Ni 3.5722021265904016 8.196323485294386 5.009018637090108
Ni 5.296576236477933 9.385321761725478 3.7973050754258617
Ni 4.656001221031738 6.104863528537917 6.1380171752536
Ni 2.758888078896227 4.401304963133958 7.531393151410941
Ni 5.444516776926765 4.689902004885336 8.756139031802928
Ni 5.794772819002928 8.324288733076923 5.896798246814795
Ni 8.38420631913756 6.620608284512672 8.02370774530064
Ni 2.406598909667488 6.483315325019725 6.372541620448493
Ni 2.0102587242444137 2.605765513622811 8.738234381431772
Ni 6.020440767440542 7.04350382062462 7.927626229356534
Ni 7.893215969342579 8.779599251861164 7.147085371971711
Ni 6.837013598188033 10.358537722385062 5.610454020212355
Ni 7.004324062630322 6.141997901877306 9.951681391852503
Ni 3.3486754227304765 4.293952620801823 9.812312694676216
Ni 4.436782245980632 10.230519871957007 5.9319981920237925
Ni 3.8480037344205975 8.303981688473334 7.34598712582541
Ni 3.6547016548569093 6.325973008979334 8.52296133195196
Ni 7.244726615701728 8.451520590877548 9.388002356758719
Ni 4.7397900819460155 6.082260035381234 10.589294869313903
Ni 5.789908031794618 9.668274496478622 7.840643208943975
Ni 4.848196220366645 8.247095515160659 9.55429762959379
Ni 6.176396121272092 7.763519444394055 11.40858931957624
