53
Energy = -237.72650649 eV
Ni 3.5482508109394795 4.016400840212534 0.0410471417938493
Ni 4.272798802414008 2.113517573034221 1.3399669308413364
Ni 5.890258360818135 3.8953149313308226 0.6441427966329687
Ni 2.4361136219844126 5.666993144397033 1.3671369834887686
Ni 4.660599193073749 6.084154649613205 0.6672943223889052
Ni 2.969329793497819 1.231281042424457 3.223697950992996
Ni 5.1527168622001795 0.32987877194161397 2.7478095980337147
Ni 4.213339746125524 4.324468347866737 2.2536873271020017
Ni 8.631242985646168 2.981487001617162 2.0804771198266447
Ni 6.714959765403835 2.0312279809718157 2.0074862163399647
Ni 0.2730362177057629 5.0750094129746905 1.321223232412147
Ni 8.17345237113438 3.8114259952577227 1.3533598359698564
Ni 6.943342418041284 5.975258310820712 1.261295501607829
Ni 1.117985792201231 6.929680460660532 2.924207617763395
Ni 3.389225551145978 7.670203599838097 2.2352363395679227
Ni 5.632145015759754 8.103052465368853 1.500694269745485
Ni 2.034630728085905 3.2064041212687022 1.795488270882226
Ni 5.040721445181833 2.4623626704633996 3.608096027738785
Ni 6.676845455564322 4.359986045589359 2.9716576510457715
Ni 2.978143928092553 5.837256220203038 3.739185998339488
Ni 5.399299561569196 6.456209844718415 3.031649445763674
Ni 2.844348294520638 3.4274671444165583 4.122813388020762
Ni 6.838670478851385 1.0498870249681787 4.3466266601538885
Ni 0.7931206570026094 4.585673046848945 3.500754256792701
Ni 8.367757129832775 2.8132738380130276 3.6171579680294665
Ni 6.873607820134962 5.867005490478152 4.868440950152558
Ni 2.6248948912900407 8.011912165462396 4.595702242530565
Ni 4.8721061571059145 4.653570335309614 4.476506470835901
Ni 8.631242985646166 4.443113497900395 5.670602562499067
Ni 4.827210917441853 8.647704493761191 3.823427969652488
Ni 1.0531476884831845 3.6923201296889476 5.756354422967164
Ni 6.673409730790578 3.3337793056677025 5.198651540794895
Ni 4.699501040177399 6.85134487122448 5.350635320078181
Ni 0.8847049132993963 2.1852098596691105 3.8754177758431037
Ni 8.40124358180246 2.0315753565803547 5.928658790201705
Ni 4.218263107205674 8.892559177678118 6.2140279372102345
Ni 4.539804104013898 0.5973044252815313 5.089404683644713
Ni 1.1611088882493288 6.165024787619888 5.3060247849774544
Ni 7.460740980114549 5.980075831277555 7.175298924667251
Ni 4.380985068556412 2.844800187275299 5.959722572786843
Ni 3.1116268885603313 4.9496379720830666 6.02516125252247
Ni 5.457561828899824 4.9237021739610825 6.725446482446958
Ni 2.359099134048638 1.5925931980542283 5.642624783418935
Ni 6.19031991642452 1.4898890417651047 6.729458557267651
Ni 5.129074499163103 7.083724966455226 7.678441858980245
Ni 7.294314509492321 3.5677565717847255 7.525086003989692
Ni 2.8032692493158735 7.129125926150522 6.9144488599853515
Ni 3.9300351299142378 1.0812019544686156 7.414548534766313
Ni 1.396090636249213 5.244255376821513 7.56207799128109
Ni 2.632286997255588 3.1430015338304607 7.58945919221617
Ni 4.991615938977902 3.0940359308089858 8.271847544524267
Ni 6.021673135827553 5.175612234666014 8.929379066402115
Ni 3.6716893624556857 5.237792533799645 8.348453886425812
