51
Energy = -227.44577313 eV
Ni 2.8502348584541926 8.145064830586932 7.549120144656764
Ni 5.903434582746366 7.158257679007974 8.748556358986834
Ni 4.903934392703409 9.228278093679473 7.891985458454393
Ni 3.5883387652536536 6.0865698680153235 8.66963236948574
Ni 1.5498844420866238 6.253055295007177 7.3326607540640225
Ni 8.357266704538306 7.276196281877617 8.626316557786682
Ni 7.0799100731185245 8.630772900055721 7.252158709280951
Ni 5.365062005243626 5.402139638443437 10.17275176928649
Ni 5.985005724359982 10.315791077196977 6.052780234604402
Ni 4.0149673758450986 9.054543588629324 5.63570906167488
Ni 4.717943858196896 7.055775248390717 6.750710655650874
Ni 3.6949981947575425 3.926978954806898 9.698472040023756
Ni 1.9920210734285286 4.153925973332755 8.150519913493254
Ni 2.5429049180079932 7.165258057464752 5.343454728251458
Ni 8.099919906177403 9.426352739628964 5.207455149946674
Ni 7.08288377269726 6.312694263505369 6.593585470198995
Ni 9.042038090904333 7.549393140231203 6.302605615644881
Ni 6.217445197766937 7.966857112978921 5.066834929053567
Ni 7.35168281418372 5.19012256478369 8.959609090317725
Ni 4.0154169235564074 2.9734513077371605 7.5982641743848625
Ni 5.458701902498448 4.855254456596356 7.578082466978202
Ni 7.1102588564840445 11.333817269343145 4.252633445051737
Ni 3.2847166952426177 5.03362615188032 6.351508716281863
Ni 5.94029520217037 3.2523738852547104 9.183498638800204
Ni 5.387952419883856 9.798488072064517 3.7966421580781047
Ni 7.563060061055376 9.434649090352346 2.9532533753652017
Ni 2.1809149551680695 2.9329451454739055 6.1331228218701614
Ni 3.108024085495193 3.912748475336975 4.242373617051857
Ni 8.179794075592369 3.110010681198185 8.171902567748969
Ni 9.181310948339398 5.383593094054126 7.522900323171848
Ni 5.282432620218069 3.9761743891966854 5.23597704538949
Ni 2.6433887451379623 5.9772502841398385 3.221844173736124
Ni 6.176089379533958 2.2244812982677376 7.047395658379797
Ni 7.479382579458591 3.995250372602107 6.173627579761469
Ni 4.568024139037503 6.175528292527833 4.565871163247291
Ni 3.802564909099046 8.083920724630904 3.4610126801112897
Ni 6.828066657560559 5.571054237823493 4.206935868646664
Ni 9.126689175293723 5.466925378565149 5.142718574703255
Ni 6.0770489632800295 7.6662181895055745 2.759782448185854
Ni 4.268937377271027 1.892099871930705 5.524133373452839
Ni 8.332845630550056 7.377446663427355 3.9233964448697485
Ni 4.740906344458801 2.4464200756352614 3.278943533197835
Ni 4.7338098313189905 4.719469389060252 2.716840726412714
Ni 9.847305562409524 3.482735681947122 6.377268450915641
Ni 8.347247193863227 1.711690384914224 6.17784847564145
Ni 4.3309048414662135 6.6748296518784285 1.613974690587541
Ni 6.563779284118783 2.0084001670036136 4.686470600876267
Ni 6.804205855830141 3.5875760596606834 2.9143238393528215
Ni 6.654431603395808 5.698029797907223 1.7467047614051294
Ni 8.680304801319377 3.2271763314592707 4.305306691924965
Ni 8.671368613848585 5.107743395577472 2.830007430943952
