55
Energy = -248.40818871 eV
Ni 3.864219702560657 6.360569070489535 5.507620887083053
Ni 11.482755665665705 8.567294143415852 6.979161665154927
Ni 9.178242895882816 5.76554197346936 8.950794782969773
Ni 6.215039350809453 3.67627118599771 7.372600627336152
Ni 9.878506654814233 8.291172011726392 8.933860434666196
Ni 6.265030385616888 5.895628661884799 11.078976532464264
Ni 7.797888093867649 7.627879163314987 5.261910217191372
Ni 7.366298467417207 9.720944810086623 11.192529210774083
Ni 10.184638203593263 4.653695155059651 7.010102169397029
Ni 5.880115407816383 6.886450715000824 6.595451114759582
Ni 5.699380997760766 7.04725012712232 4.1677424671845245
Ni 6.663614278761757 5.678631867218989 8.629241003356462
Ni 3.6813963223320525 8.769963932040039 9.60115302321286
Ni 3.6901095339058596 7.566253251197162 7.548689347498698
Ni 4.397993905107853 6.444727075564676 9.650137646314295
Ni 7.848182880426326 11.046658598737581 5.723766911829934
Ni 5.350417846804032 10.968423107091311 5.661395289558185
Ni 10.930901728486097 8.674351327729795 4.802438038895405
Ni 6.456585721721118 11.392265181125778 7.727357883193316
Ni 8.392012301085582 3.633623224857526 8.01221107933203
Ni 9.136643066931937 9.206570782275607 6.728059426847143
Ni 7.681733162995934 4.22151919902641 10.151976023297003
Ni 5.269436403626512 4.1830833428858405 9.61181854762081
Ni 7.7452448289583025 9.611411671267147 8.784904216334622
Ni 11.279752119949487 6.429380003478292 8.09413979859126
Ni 9.945623168413835 6.913340022280497 6.183125230867866
Ni 5.539525223183145 10.278830262778682 9.742249720593513
Ni 7.682856631225099 7.527623437169236 10.047681443040652
Ni 7.931841116270496 7.482561200431321 7.6973296305650765
Ni 8.800882949002277 5.978258785541487 11.353258954342905
Ni 5.466852916742752 8.191111432058602 11.059460034215526
Ni 5.760910477126692 8.119699284112082 8.679838015857426
Ni 12.463721225127664 8.203899709389693 9.02386436526493
Ni 10.995401872288506 10.338167944107203 8.382249834568698
Ni 10.385006792317759 10.834454270925997 5.9172212745982895
Ni 9.369397477336483 8.421632739924618 11.463124318169966
Ni 9.422047998066818 10.524031379043537 10.172376911084493
Ni 8.94851401178334 11.428248082585744 7.876067548959973
Ni 6.469207519680741 9.442797361383017 4.252946616377745
Ni 7.952725146661958 5.4732127344355685 6.5235842924345855
Ni 7.44209351952643 11.737493293968813 9.844724155987869
Ni 7.5896194463938755 5.566673543605089 4.0169429974969315
Ni 4.447017051970018 5.240824746222868 7.555785265954076
Ni 10.883163815572834 6.8508276442268485 10.439868008016012
Ni 9.688818834078988 4.952724405985781 4.779695543574392
Ni 8.872810724884474 9.490308813864797 4.223546912394569
Ni 7.351222958075209 7.620426171075766 12.391364185951156
Ni 7.538819333490742 7.837284522589583 2.896030173316957
Ni 6.609481769439555 9.239196819474621 6.649584121994933
Ni 11.341387897565673 9.309812264657133 10.645277159748565
Ni 9.562694636656369 7.08622605305562 3.7720857088946693
Ni 4.4618823110790675 9.90426343902879 7.612663464612718
Ni 5.764634827939241 4.860641146369206 5.382697261965154
Ni 7.811912773177429 3.5014413228220804 5.46826189158834
Ni 4.522721581361541 8.683363518157867 5.527992546035559
