52
Energy = -231.99686926 eV
Ni 4.904513127185892 10.380279395329248 5.516368250665895
Ni 3.895945338312618 8.427117012596485 4.1938081363522
Ni 6.15822519447717 8.971862823389754 4.028808185992642
Ni 5.140431857940668 7.20555549808779 2.469080637743419
Ni 1.5948975783905919 7.679296716359091 4.874216543606167
Ni 0.6467138952543817 8.853798091587807 6.6871222165111
Ni 2.86095528747004 9.335507314418237 6.073764162079559
Ni 4.304116183421535 9.602275868610471 7.989022686265703
Ni 2.9867282636591637 6.4002788827773465 3.4758347880519507
Ni 7.196749257393358 9.618236917163976 6.064857323194358
Ni 7.498855081020063 7.257979479687918 3.1316651417149446
Ni 5.171178496127401 8.274148371746382 6.324797065410923
Ni 0.9848900871722218 6.5457567852466845 6.834163261857641
Ni 6.431552097576162 5.054121596036291 2.9807459502548306
Ni 5.693535771304227 6.711523304361479 4.631332935922241
Ni 3.434246688961398 6.72342270046511 5.99999647440972
Ni 8.496856528330595 9.159327733014173 4.058061860464074
Ni 1.9483268777082887 5.014361666523381 5.319984815022962
Ni 4.330888810559684 4.9691045071884945 2.137312904774216
Ni 6.5140744791378875 8.714366237650548 8.23032022970166
Ni 2.4882389251121193 8.005304637753133 7.914571054910008
Ni 4.607487872789416 7.19046276462227 8.439867388149224
Ni 2.4768485226574426 4.068827571538241 3.1190843667432517
Ni 7.3882862847430655 7.252843705691955 6.446888925876063
Ni 4.275555273375095 4.816797539926058 4.609274051114432
Ni 9.595240177063115 7.017459347684053 4.300545555045641
Ni 7.827301554945084 5.5409837792006735 4.880465576233656
Ni 2.8736013543158268 2.8057708176763203 4.963941954594046
Ni 5.514814171080253 5.663648694683852 6.72933221845219
Ni 2.8201983278884697 5.626687690097768 8.002333635858173
Ni 8.880820528344438 5.399995522444831 2.7018359218538492
Ni 4.926585788507316 2.9401000949939227 3.4260391653614626
Ni 8.739176980117733 7.880968232903783 8.26727969751307
Ni 6.309867391854395 3.7774793216762736 5.287858434243042
Ni 3.816619176557281 3.929102126163067 6.796497830392691
Ni 8.010344969957425 3.4098487285962706 3.531631104997001
Ni 6.838501746839289 6.412901829385303 8.744817428462065
Ni 9.35090705657369 8.55347539725431 6.109139174738489
Ni 9.613306486466966 6.224329394658579 6.542879256169862
Ni 4.96172741841038 4.86653126805568 8.879947575688922
Ni 7.709068289885084 4.74092164718007 7.136094074373528
Ni 4.847355744225908 1.9822580124131763 5.7542041499640995
Ni 9.862290231073192 4.522366199958134 4.834978863353813
Ni 6.746116057343478 1.6329794526435963 4.348562844465506
Ni 9.127927346526471 5.639805139907369 8.822321435824218
Ni 5.926448250802161 3.1389996744494537 7.6028724529961895
Ni 8.44836493947924 2.7811967424719177 5.737467610233525
Ni 7.242698806527395 4.180159630584607 9.4314304312566
Ni 9.942819387310273 3.9643177694885794 7.239688822722807
Ni 6.900258862295077 1.2158034755677931 6.653705103645793
Ni 8.212002422153095 2.4765169440042034 8.078252097477788
Ni 9.549090483282598 3.523465864067872 9.604185947667933
