54
Energy = -234.62020325 eV
Ni 7.69379578069782 9.170859071870453 2.899965623216625
Ni 8.854991198981562 5.699641014689577 6.088636902602254
Ni 4.189400652528395 8.048010049826214 1.8788773091941238
Ni 7.359933539440447 8.519004388268122 6.4894234515084275
Ni 4.275614533919578 3.658679457390958 5.657594583251609
Ni 9.553853556243705 7.8743547024600185 7.690416865771568
Ni 5.107538423084376 3.788331740014684 3.2999985107073293
Ni 3.3498469857324586 6.263462029467152 6.230664833315521
Ni 6.669851538897629 10.722604154427714 6.74541185723252
Ni 2.739087118002212 4.864614852069707 4.3529323181844335
Ni 2.2704920067630847 4.3028671592353 6.683405871716625
Ni 4.517599471892147 7.750858045732329 9.819361296029475
Ni 10.846363411465298 6.999251501748182 10.405122458456685
Ni 7.928474510725078 6.932739640686646 2.085658703479138
Ni 8.928435497476471 10.16991801043574 7.305423726566802
Ni 4.156484072200865 9.320939607706094 3.809132607213526
Ni 9.67975902586163 5.8408323641438065 8.91511387507786
Ni 3.116789345655713 6.113546754732934 8.616491391409504
Ni 7.081694668138732 3.8304084728221217 5.4985490985952925
Ni 7.614195026221766 6.777046840575469 8.017605586772218
Ni 7.428171405110091 5.439853928114981 9.934176101076138
Ni 6.236049269777896 6.966276277605615 11.20219440863121
Ni 9.130448901948892 4.428222619760788 4.16042520642681
Ni 5.865491468489135 2.5422099076008817 7.090355815776512
Ni 5.945559131720027 7.591455572958276 3.399193885268692
Ni 4.664088058978042 5.533198373142235 12.084156830923114
Ni 8.55713153629207 9.857475948083037 4.996629674304882
Ni 5.307701173533698 6.900578512022592 7.813059935288157
Ni 5.763151682360092 2.0748117759116305 4.707988710416551
Ni 4.172833502042257 4.092475671513924 7.994875555951454
Ni 3.3374096374225197 7.084759736137762 3.7995862910289837
Ni 7.065040212029998 5.383094921141629 3.600231584618881
Ni 10.667311562525738 4.768554758349576 7.1737379711248295
Ni 6.274729092281232 9.793979487201959 4.655656774926956
Ni 7.354097502709182 3.0424374675466637 3.252874861240103
Ni 2.629813072945153 8.515613050939827 5.484724643364417
Ni 8.621059511219741 7.50615234847366 10.285544910293542
Ni 6.409281559655133 4.168759057585714 11.499872176905344
Ni 8.251540482006364 7.4511621195779 4.441549269496083
Ni 4.326242540531714 10.143168784071118 6.138934620784938
Ni 8.396694799261418 4.074789557036063 8.048997945374817
Ni 6.356179193202056 8.353571372868128 1.174067545338979
Ni 6.250800209474865 3.2839313239791372 9.32750318148956
Ni 7.626527547660351 9.011075582033294 8.869322037832722
Ni 6.302006846106926 4.821496217023814 7.550644102252044
Ni 4.9608336053787045 7.967773520449589 5.650133064872199
Ni 4.889437472877097 5.650372440584433 4.521042301871692
Ni 6.6316137947112335 6.331271640730875 5.828690307688104
Ni 9.286656223468146 3.241937463581351 6.109335526281484
Ni 5.071866326916729 5.359907113831848 9.832483555421604
Ni 8.5455318378342 4.678373855833835 1.937843607024839
Ni 8.441321115374722 3.52363081415775 10.32393986042477
Ni 5.451686906334527 9.244028832011589 8.066682818229063
Ni 3.3397910664846298 8.259583384249062 7.66287451287491
