55
Energy = -249.80929048 eV
Ni 6.648194253137301 6.649106881443356 6.647852979740336
Ni 6.645141875799465 6.646825421304811 9.002870728774921
Ni 6.651306995577636 6.636926560402191 11.284775664984053
Ni 8.374548940905555 5.381888740482448 10.102877397896048
Ni 8.336195849144348 5.417176059761488 7.707436224679282
Ni 8.335306329392804 7.893770001411755 7.705599610635876
Ni 5.998782898525 8.643594880113156 7.7007694646951235
Ni 4.548164085096497 6.640603502071183 7.696860332229906
Ni 5.990967096224092 4.649374049775813 7.703455421562092
Ni 7.2911695917639685 4.652931620337824 5.5956535995280205
Ni 8.744453945796236 6.658705307191906 5.60093958296415
Ni 7.297122193539385 8.65195098837933 5.596415248730485
Ni 4.954082037451246 7.879135648283865 5.590783001919435
Ni 4.951417985246278 5.40915244240391 5.59067984427808
Ni 6.6473064624997855 6.656385722060463 4.295352017275818
Ni 10.016656972592836 4.202120928748284 8.72634047334512
Ni 9.98265816367604 9.101141792643494 8.737704957584295
Ni 5.353284604107744 10.596356549331846 8.730887063291231
Ni 2.4893601401266885 6.646935223593163 8.717991970149656
Ni 5.356431053188041 2.7077849341441746 8.72855676835907
Ni 7.949285839118962 2.6936450950368416 4.56820350249501
Ni 10.817149915970656 6.647333137348841 4.5790014807725345
Ni 7.940342597405058 10.588666305114566 4.5721215107342585
Ni 3.2877123505403896 9.088911928295996 4.568322678282398
Ni 3.3202058021962957 4.198308278248824 4.556552037368679
Ni 6.653250732366881 6.660695510793524 2.0110306450932103
Ni 8.370710703967527 7.910912312722748 10.122380249550144
Ni 5.989177758955063 8.674994475029438 10.115426723336107
Ni 4.509515607443413 6.631468382617322 10.107871748290748
Ni 5.974295678563655 4.609684096399449 10.117077400957026
Ni 10.078909920659605 6.655458234719821 8.796550005613062
Ni 7.707378058680546 3.3661237325067948 8.794328023678359
Ni 9.009838469080034 3.3685802511614944 6.660814572647328
Ni 10.495177736819613 5.418639482454832 6.662488017190673
Ni 7.700371941912042 9.939761755340369 8.788015250701916
Ni 10.497917730130823 7.925047763026654 6.653359973702169
Ni 9.032873678663776 9.950958939326425 6.654817022226192
Ni 3.8676371221300636 8.65696302434357 8.795872928194704
Ni 6.657675165860119 10.718440441856604 6.6545827276713645
Ni 4.288664950757444 9.932775812767076 6.6337487882109905
Ni 3.842721084045319 4.615121564864723 8.77529107485907
Ni 2.7940688348094858 7.868941082502101 6.628148121017876
Ni 2.7902340561232513 5.3695505120049045 6.640492702793818
Ni 4.2642958039578716 3.347581176801188 6.640830775586056
Ni 6.640356945088514 2.5862208076571007 6.646483588668707
Ni 9.432835896351003 4.636451494804335 4.516159402830359
Ni 5.601019069355231 3.3574795090343987 4.508580227181248
Ni 7.316234572710434 4.62539508401455 3.191218128929612
Ni 9.453624559995198 8.67816550669053 4.522319937491439
Ni 8.788043474400872 6.663973298019268 3.1983793716688216
Ni 5.587742099068941 9.93563858434886 4.501857855442302
Ni 7.3266322765040215 8.688717518477175 3.1801156605606984
Ni 3.2114645038596286 6.640359817536652 4.48553508917202
Ni 4.928543657885556 7.915893361101961 3.188773157904097
Ni 4.933301883831366 5.38303642214897 3.1712092195563586
