55
Energy = -245.39293337 eV
Ni 9.17535582758939 6.911946689015714 2.85946179017214
Ni 11.182823957603206 7.993195441139148 3.7184773372411906
Ni 8.84126203021557 8.975533838621985 3.8100104894047093
Ni 12.231317603315214 6.6827355591830875 5.467482184527914
Ni 4.734278218359326 8.347726568860233 3.9627166915697427
Ni 6.880278074641408 7.642815169692721 3.336708196940248
Ni 6.6697301513404215 9.733176328998994 4.521272511049684
Ni 7.8512809000225685 5.734007236928075 4.344299695141823
Ni 10.64616349533092 10.233195854687192 4.601894744193751
Ni 10.14872032266083 5.9751391596720715 4.791650906838614
Ni 10.151163713438125 8.232374054595017 5.723210970401296
Ni 6.377477774878076 10.835810842503106 6.858749664996054
Ni 12.322976699086643 9.034953991897009 5.848233631551039
Ni 8.860471366187912 4.258005884528358 5.96598767733269
Ni 6.479375489701628 4.0713028021110285 5.071827689429591
Ni 7.736529311129034 7.754794164829771 5.626379550656427
Ni 8.524098518748193 10.08846837386218 5.9457678650142425
Ni 5.472469795228434 8.61447442869875 6.1128868216823005
Ni 9.2954784048731 6.505402160394579 7.049413531087524
Ni 10.681568866046675 10.522420961651802 6.946687815750001
Ni 4.989736461351037 4.817224055683936 6.77472081234164
Ni 5.595339344421607 6.4513441199705515 5.0814715543402
Ni 11.02165098619407 5.054777058107036 6.893388166945854
Ni 5.696754114306696 7.039812681343464 8.042015764382237
Ni 3.838665373366483 6.977992783959738 6.736432763225833
Ni 12.348039632312343 9.456765246380867 8.204693913139563
Ni 4.814591835208486 9.431458503487402 8.126050920773343
Ni 7.957137544520037 6.890941457350302 9.06189477827209
Ni 4.698995214596756 11.68181909360863 8.547378973431613
Ni 7.15064997556731 5.675005332096271 6.780512955136223
Ni 3.9874081887078177 5.553093579922436 8.75132260855488
Ni 6.972600218151266 3.287941025203069 7.184869340009252
Ni 10.342480453828784 5.981883137976399 9.110987170339424
Ni 11.62664242673996 7.3188754383003705 7.602560918876649
Ni 8.552458743040464 10.875271822492762 8.166774678700603
Ni 10.515808849655437 10.461372756334045 9.348965902967947
Ni 6.317653647273042 4.779744080600362 8.857912865084439
Ni 3.853555668162627 7.778013911658171 9.499238138535729
Ni 9.673105482394217 8.667122562536253 8.048603260432708
Ni 8.65637924111707 4.545448188316996 8.400103055427175
Ni 6.191339281881853 8.46743414270779 9.854612217463629
Ni 6.601388638341929 10.741529302802514 9.37884930729208
Ni 11.106128494414927 8.188739470897675 9.789868572662746
Ni 7.310431154507518 8.84753386264056 7.740559624714381
Ni 5.526403482573947 6.242118145254405 10.45957178488195
Ni 4.685089474639757 8.086997841778055 11.73643945365165
Ni 9.4694708671424 7.087808352104799 10.95831649503893
Ni 7.744522577273072 5.299232814715139 10.76698554514003
Ni 4.485073509550087 10.08868637141632 10.426141523534893
Ni 7.379511313561366 7.539716126388168 11.661799963029297
Ni 5.91201076360573 6.165095313756928 12.72901266231298
Ni 8.48641138638269 9.200780191942671 10.090306569412432
Ni 4.687608896456337 10.151896756915736 12.814696315982166
Ni 6.699946551575144 9.891648407544594 11.644000390686793
Ni 6.140825663739451 8.426032528894467 13.464457245258613
