51
Energy = -227.18621398 eV
Ni 8.620888875805262 3.5039509822477153 4.330387725547422
Ni 10.858414716399935 3.676803583777303 4.8729305519373085
Ni 7.4336369730578085 7.248553550448253 2.6767138850555545
Ni 7.191089741887564 4.855011620514436 2.8566712932959764
Ni 10.745596606900083 6.022770989862878 4.548613568052201
Ni 5.455789162362773 3.703603016367862 1.6225332779789878
Ni 9.49589387050648 8.082699838558334 4.084898900127054
Ni 5.477674218053625 6.134489816105362 1.8327875815436954
Ni 6.4485596308994895 2.7149446199420737 3.6156775099128544
Ni 9.362501798819395 2.5620793564733346 6.378702685884599
Ni 8.47271439295284 6.026692038424054 4.3823029751424185
Ni 5.361959328858179 8.363534835204597 3.0912827911316203
Ni 9.46207458522098 4.8871389401168095 6.23705080030492
Ni 4.013143668489237 2.5800996925464723 3.1922604870412967
Ni 5.916495168753342 6.649501113398035 4.565828379206332
Ni 9.779568133496213 7.22894778064348 6.322450072095999
Ni 3.2659556480137915 4.621081147588297 2.135426483179822
Ni 4.9658540633605766 4.627356681437724 3.73041410297108
Ni 7.099189196103566 2.2392583995334676 5.894666828151833
Ni 8.884766615585509 9.386361366911984 6.025720196602091
Ni 3.7299389420567968 6.616157262594353 3.2275156978322608
Ni 4.861177393493595 2.9329662947959982 5.4157755572049435
Ni 6.770525725031952 4.555391343626785 5.339761565631234
Ni 7.254819093642974 8.568860423201238 4.648586995388459
Ni 7.446819194524563 6.701084702414054 6.468226453083647
Ni 2.698889368155855 4.120734232624264 4.527735202675295
Ni 5.589165897533764 2.9114805801067667 7.718906528228679
Ni 3.9112983711754508 5.776520455191333 5.594444425344917
Ni 7.7297400571706385 3.9410019757042742 7.48138889664091
Ni 5.608726433196086 5.200820794638274 7.279115584802605
Ni 8.712947452730063 8.348256484216115 8.094978143242615
Ni 6.701489859514187 9.09163152392044 7.0060622310353535
Ni 8.778352034974397 5.9333853317158285 8.268716103581582
Ni 3.4154916966113347 3.7204362199426817 6.995854712141964
Ni 1.8513249175335267 6.507037876433316 4.532005294813408
Ni 3.7374788276681765 8.182398547294168 4.909505650740972
Ni 5.356496920271464 9.773098421195996 5.146090721839885
Ni 5.011527043621664 7.467299774122664 6.920058016920235
Ni 4.24102431077557 4.217190927486306 9.266298202032395
Ni 1.6208637793151535 5.206252826981711 6.467253304001812
Ni 3.3901572325024154 5.921289699624082 7.909171976092375
Ni 6.599607322081631 4.830815249141151 9.337010431432603
Ni 6.8293948473019634 7.14517691059102 8.68953438679857
Ni 2.3096070638019826 7.588815435550845 6.633808863702444
Ni 4.853513710441499 6.5448358760679595 9.617920340136415
Ni 5.2561710971488855 8.861667690836336 8.932508392888165
Ni 3.9150503024631003 9.452681042765276 7.028659727138242
Ni 1.8522997512993553 4.2697988094460175 8.705169382467625
Ni 3.0640051122254763 8.030830483400713 8.865053617424444
Ni 2.670675602244497 5.933451571234396 10.2058986783809
Ni 1.165175630851292 6.563015115535281 8.464100601308857
