55
Energy = -249.82637964 eV
Ni 6.0112044067541435 6.010334123728034 6.003818411974221
Ni 5.997268887325263 7.236790884514199 8.0074102090666
Ni 5.996341308312533 7.231670175114231 4.00508499479431
Ni 5.996759524472609 4.768777552381172 8.007037639627015
Ni 5.995265563819897 4.7607317359979895 4.010668381265437
Ni 7.233176590929821 8.001466999434879 6.004941691090444
Ni 4.760868272411217 7.999617790714255 6.0054003884818075
Ni 7.230303853105494 3.9981590932280726 6.011418161272303
Ni 4.7674145619915125 4.006530681585679 6.011083224467775
Ni 7.998814570199222 6.000232702461465 7.242966907009671
Ni 7.997994636578194 5.996330926955671 4.771529553483386
Ni 4.003477595686337 6.00159413814107 7.240248246788546
Ni 3.999078317796442 5.996918894981327 4.7767559667258075
Ni 2.067315058835529 6.005389194219702 3.5708133928135575
Ni 6.0114497364059325 8.456812692307112 9.949739076350564
Ni 6.007711995945402 8.448464186457203 2.044503413221055
Ni 6.010979710838425 3.579991873868051 9.949514113663119
Ni 6.007791705316849 3.564801626705738 2.0617100692617822
Ni 8.459983023897841 9.972564784501442 5.9991547028234455
Ni 3.5696522407866254 9.958931504443767 5.998121247087384
Ni 8.448047013879963 2.062579359594031 6.009410574729377
Ni 3.579129715365686 2.0693495046742365 6.008733989392246
Ni 9.966414129454384 6.01025059099021 8.449648395468543
Ni 9.969064561412202 6.00136319933573 3.552957256034335
Ni 2.072999820124307 6.016295694939583 8.441678834678457
Ni 6.011351347896144 10.064588955565492 5.996523029225357
Ni 6.008891685943601 1.9331397736985985 6.011628259637878
Ni 1.930633506163819 6.00510860445322 6.007896919364574
Ni 10.05940322575052 6.011677080353868 6.002294094670022
Ni 6.007671934576404 6.003115554865068 1.9449261681282104
Ni 6.008364280624411 6.0143309339227455 10.074094759380067
Ni 7.265937375864404 2.7174003383039076 8.045151164364185
Ni 4.747512486737682 2.7129676257377344 8.048097647901324
Ni 7.265866048729322 2.716881681465155 3.975226637495944
Ni 4.74842673203239 2.7097299701200064 3.972523659459885
Ni 9.290241903673168 3.978281052027543 4.75332060082548
Ni 9.292500949004799 3.981067048692052 7.258995696865927
Ni 2.707909228061498 3.967607955076699 4.75310934767731
Ni 2.710009095161272 3.970373335381375 7.269896179710324
Ni 7.264483439687803 9.279101692557388 3.9745207141106316
Ni 7.265415919137643 9.29027079376419 8.025506296027443
Ni 4.760738960650727 9.288325294473138 3.973737567133202
Ni 4.760260700526769 9.298459613612605 8.027520668966291
Ni 3.9766439046761954 7.259091241131885 2.716260951384354
Ni 8.034035425563161 7.257653989276348 2.729751621636305
Ni 3.9706859084043944 4.744809087159568 2.715147696206021
Ni 8.035648843151238 4.751071591320251 2.723460959979356
Ni 2.715335902611317 8.045449892179171 7.257462580575033
Ni 2.7160117579061267 8.03965365584474 4.7467606174165065
Ni 3.970210907420102 4.752618809727068 9.304723292467813
Ni 8.041310171209219 4.758652158432301 9.29232935416967
Ni 8.038480821037252 7.2683953646274055 9.279601320258204
Ni 3.9757942451914983 7.271754873715473 9.296649644294297
Ni 9.282700770871832 8.028455355764153 4.750677817902809
Ni 9.287395718749874 8.03239676413642 7.2462358898550825
