50
Energy = -221.89997936 eV
Ni 2.036685201501715 6.469824158295094 2.7436761007905583
Ni 4.2041479356291145 4.0962141954478355 7.075796989605057
Ni 8.908323183196455 2.8165493927497565 5.867612703261174
Ni 9.387887085486334 2.886207592405992 3.467337902034286
Ni 4.925967458442929 5.622799109083624 9.004670692491844
Ni 2.9767190506425343 5.953633071290564 6.23356177238381
Ni 6.829253357648274 1.845208947924721 6.69123499479943
Ni 7.912981962710854 8.380830597223305 4.505669110770988
Ni 7.223546594681991 2.337815248873172 4.332309314983673
Ni 6.015915795238772 3.5392144637668435 8.561978610604097
Ni 3.4245108678760023 2.7691423282172436 3.560262774392177
Ni 8.873763749065729 5.067491896083476 6.6400270789224525
Ni 2.8769492418456286 8.259159156676452 5.977372544483013
Ni 7.981586526064722 6.67192864717626 2.8097802033156687
Ni 5.623747245187944 3.399766444708648 3.047986916795124
Ni 5.044437903748568 2.4326672091723243 5.270599155238992
Ni 4.0443871925151065 7.003880550430508 4.223613644334851
Ni 2.604483652545975 5.189053834343252 8.45962619329501
Ni 10.472476115779925 4.416211412179994 4.973217311690243
Ni 2.221657094904684 8.36191430586465 1.3539498657637163
Ni 3.6272702403509425 7.374869912412014 8.07174090876229
Ni 2.3173071967672136 8.605859435955047 3.6901048003514263
Ni 1.2453012167344233 4.502060383197487 6.514044214190179
Ni 7.194960488744142 5.573210051172783 8.2092972660313
Ni 7.8707119555115534 7.227943908620938 6.637184104419963
Ni 4.462857427155544 9.421808845287002 7.2021112095614574
Ni 8.209866672462825 3.263964303656771 8.070995935105907
Ni 2.2356674697517667 4.704509392124176 4.321531672820813
Ni 3.7211056652184635 4.8412076973375555 2.4899704043791804
Ni 3.9152104454719794 3.4543633097353457 9.456574204411202
Ni 4.164625309561723 7.113622427054322 1.8296816388487263
Ni 4.5279282424084 1.8397367357607606 7.645930362036762
Ni 5.960897683727436 8.404862860567974 5.830404006412675
Ni 5.942227382844865 8.135242348527173 3.224003277906858
Ni 9.33238187981803 6.530976437658141 4.811786119454116
Ni 6.507822623668528 1.3650104451237723 8.919297970308884
Ni 8.084469743404092 4.565845437677278 4.378205925933993
Ni 4.667168447961079 4.741403957716226 4.754499520336077
Ni 5.273062670271469 6.23239643552366 6.689757052353964
Ni 4.355959552185721 9.483558632941765 4.634313218455969
Ni 9.810188720590183 5.171214036693841 2.8324249611438166
Ni 1.2631985428070838 6.780123869150856 4.9533693292948255
Ni 2.2186669380973765 2.846476014045699 8.001199038797418
Ni 6.022838854096054 7.727523533258519 8.215313796134323
Ni 4.087006471238649 9.388398174462163 2.3193498798541614
Ni 6.605949888295929 4.2019660444361175 6.221928883640754
Ni 5.860497785619438 5.726359360185796 2.6461672745859026
Ni 2.760266864318066 2.8039246545564036 5.7848914488331475
Ni 6.615805263665238 6.3534630157543965 4.786078550792215
Ni 7.675167970920834 4.224402605874202 2.183375973269361
