54
Energy = -242.12110001 eV
Ni 7.0821972079827775 7.099021639757313 8.345482160256061
Ni 7.102180762827919 7.099021639757313 10.761823207977402
Ni 5.012843372607438 7.099021639757313 9.594612308123162
Ni 4.96192271500507 7.099021639757313 7.099021639757313
Ni 2.9453373709622745 7.099021639757313 8.385110382486042
Ni 10.491399629081869 7.099021639757313 8.405838995654745
Ni 0.980710305635747 7.099021639757313 7.099021639757313
Ni 3.7999523526651746 10.986166407519592 7.099021639757313
Ni 7.0821972079827775 7.099021639757313 5.852561119258565
Ni 7.102180762827919 7.099021639757313 3.436220071537227
Ni 6.459777426825706 5.109280514239747 9.589747997758293
Ni 8.787686769163054 5.874792600006586 9.57995907163523
Ni 8.787686769163054 8.323250679508046 9.57995907163523
Ni 6.459777426825706 9.088762765274883 9.589747997758293
Ni 5.012843372607438 7.099021639757313 4.603430971391466
Ni 6.459777426825706 9.088762765274883 4.608295281756337
Ni 8.787686769163054 8.323250679508046 4.6180842078794
Ni 8.787686769163054 5.874792600006586 4.6180842078794
Ni 6.459777426825706 5.109280514239747 4.608295281756337
Ni 6.439150397690213 5.083166863343977 7.099021639757313
Ni 8.791842402830653 5.862546064716921 7.099021639757313
Ni 8.791842402830653 8.335497214797712 7.099021639757313
Ni 6.439150397690213 9.114876416170652 7.099021639757313
Ni 5.815891833812272 3.148810259197087 8.367356684741932
Ni 10.455945515198056 4.6651589178394826 8.34935869212102
Ni 10.455945515198056 9.532884361675146 8.34935869212102
Ni 5.815891833812272 11.049233020317544 8.367356684741932
Ni 2.9453373709622745 7.099021639757313 5.8129328970285865
Ni 5.815891833812272 11.049233020317544 5.830686594772882
Ni 10.455945515198056 9.532884361675146 5.848684587393607
Ni 10.455945515198056 4.6651589178394826 5.848684587393607
Ni 5.815891833812272 3.148810259197087 5.830686594772882
Ni 8.150927364219354 10.32906862362807 8.413770976243347
Ni 4.356104075625337 9.09442754415638 8.424806128320439
Ni 4.356104075625337 5.1036157353582485 8.424806128320439
Ni 8.150927364219354 3.8689746558865625 8.413770976243347
Ni 10.491399629081869 7.099021639757313 5.792204283859884
Ni 8.150927364219354 3.8689746558865625 5.7842723032712815
Ni 4.356104075625337 5.1036157353582485 5.7732371511941905
Ni 4.356104075625337 9.09442754415638 5.7732371511941905
Ni 8.150927364219354 10.32906862362807 5.7842723032712815
Ni 5.1999224305723555 1.2737611495146293 7.099021639757313
Ni 12.058462208634362 3.501849621311767 7.099021639757313
Ni 12.058462208634362 10.696193658202864 7.099021639757313
Ni 5.1999224305723555 12.92428213 7.099021639757313
Ni 2.3879181397278493 5.174783193451176 7.099021639757313
Ni 7.4786821284437055 2.004612314480498 7.099021639757313
Ni 12.075884753588172 5.892968923910977 7.099021639757313
Ni 9.783828636356835 11.44889167756647 7.099021639757313
Ni 3.7999523526651746 3.211876871995038 7.099021639757313
Ni 2.3879181397278493 9.023260086063454 7.099021639757313
Ni 7.4786821284437055 12.193430965034134 7.099021639757313
Ni 12.075884753588172 8.305074355603656 7.099021639757313
Ni 9.783828636356835 2.7491516019481574 7.099021639757313
