55
Energy = -246.39825888 eV
Ni 4.354599614140643 6.044475785373757 10.19010127125671
Ni 5.916797875110988 3.9603982097172703 6.765716666052785
Ni 4.609468181607162 5.998406822457276 7.564967768765255
Ni 6.040784452787207 4.563753728744598 9.197348470874488
Ni 4.038619308064133 8.101200338745917 8.830748660682906
Ni 8.076655364820382 3.9987238646421552 10.564873964640745
Ni 6.020960988998449 5.946529115883924 5.186890140711734
Ni 8.091858280721812 3.8340522057428 8.028310089553166
Ni 6.789970972592201 6.063552588823885 11.283876635753426
Ni 6.069554295643023 6.987794459195856 9.11834894196571
Ni 5.3883096587250074 8.101465221663025 11.092559422358956
Ni 6.913777658680001 5.884202159920228 7.308938768693034
Ni 8.114426616208773 4.546948263851183 5.662426418136998
Ni 4.3551674976798065 10.15851196791048 10.19045889333979
Ni 5.883879164815777 8.098521372528152 6.68724707711895
Ni 8.060932594953766 5.870002140806205 9.355487976245454
Ni 4.609627860265077 10.20218754970398 7.564949104252142
Ni 6.069107575441085 9.213263670414573 9.11976377715005
Ni 8.124899014240127 6.029655447515947 3.6862607436264345
Ni 10.287954758046922 3.975179505609473 6.782218534229472
Ni 6.7750432484324445 8.096907889277443 4.149062898528861
Ni 10.121590514698443 4.574231340737624 9.227784272349336
Ni 9.364296995321993 6.063798011395174 11.29932428481114
Ni 8.697708864220745 8.103151605691243 12.463968701470469
Ni 8.118466541591738 6.9827645116117285 5.705267120092294
Ni 9.26705243366119 5.88349737232242 7.350797623672422
Ni 7.923190163232202 8.09833482991657 10.377266664576755
Ni 6.024643516378563 10.249931017460751 5.183762794858524
Ni 6.793278567534878 10.134844841788684 11.285071638373086
Ni 8.084774795923066 8.096691425784641 7.9585869187648886
Ni 6.04268137212357 11.63620759277507 9.194796812673719
Ni 6.913397287188042 10.310581505703082 7.306947399396899
Ni 10.230486351091512 5.993538450097542 5.2464396066597425
Ni 10.046503763603077 6.992498054735307 9.19221495057722
Ni 8.118712152034016 9.208990634806701 5.705012437360632
Ni 5.9173281212913755 12.235999002712214 6.761634279950781
Ni 8.061375862909596 10.327377859815186 9.354204670418781
Ni 9.443194610436061 8.095759611141276 4.134855120202003
Ni 11.55781413045285 5.982530270333974 7.6186979800981875
Ni 10.758096366287301 8.09897608644495 11.173431846114939
Ni 11.82065483454989 6.064359131365434 10.182940269863915
Ni 10.315209769068325 8.096144992853183 6.726317983346438
Ni 8.128477289193404 10.163372293419492 3.6856205077046855
Ni 9.367394419656488 10.136070890595647 11.297381019005229
Ni 10.044424601712487 9.199203805058838 9.19182805806407
Ni 8.081016403317308 12.199682711617749 10.56179480405617
Ni 9.267302626263685 10.309449543953065 7.349527218010868
Ni 10.229214147298329 10.19924581275284 5.244584150116975
Ni 8.11555906217516 11.646870287674174 5.660692228681271
Ni 10.122356542583407 11.62089428962596 9.222065597570946
Ni 12.071857919009991 8.096691576258644 8.80288856595617
Ni 11.81868544026385 10.13216135532437 10.180095710124226
Ni 8.092672278812493 12.361073470534793 8.024830244726365
Ni 10.288728696882858 12.217126507860273 6.778231865022765
Ni 11.557730748698205 10.21048916874434 7.618852602832803
