6
Energy = -19.44876437 eV
Ni 4.060781936146153 5.3831998171544475 6.078528555205942
Ni 6.24100186708791 5.014978179252594 6.798569881436445
Ni 5.508390149413245 4.306098130930388 4.700784504345931
Ni 5.421142488521048 6.634088810269032 4.6831887878695735
Ni 5.527878183146979 7.117906956525819 6.872663012609813
Ni 7.427622611183567 5.730545341366382 5.0530824940312025
