6
Energy = -18.19800859 eV
Ni 9.432047821798303 8.952000841228534 7.682561692337801
Ni 7.569871238614163 7.644864278537343 8.010760513093851
Ni 5.78039042183533 6.417432003414778 8.378186079619836
Ni 10.245165814372802 10.09884523716003 9.442517183366157
Ni 8.455223998349934 8.855738483996735 9.74558448771147
Ni 6.580868561907674 7.566306322684667 10.122240948259746
