6
Energy = -18.98352542 eV
Ni 5.373141693541763 6.362402945377897 7.078255686475609
Ni 8.947707920569771 6.999389712913231 5.620825015035717
Ni 5.128506380870755 4.643573592287179 5.657137558321825
Ni 7.05712555203418 5.79090416876851 5.629721944734505
Ni 5.666553813571721 8.10608198461638 8.46345209487684
Ni 7.31180507117318 7.58248797693988 7.035448081458332
