7
Energy = -23.98651783 eV
Ni 4.718425796769455 6.503807620748964 4.436184858862764
Ni 5.477321439282611 7.9611676698667795 6.203233355021376
Ni 6.839806412273738 6.2583859454973325 5.379815802449813
Ni 5.671857080866363 4.330644671035528 4.828694586274237
Ni 6.88838274388754 6.671126459083156 7.674075170525674
Ni 5.050035316489298 5.7154925883133885 6.603371483153294
Ni 6.982082059769271 4.4211083279838705 6.805733240759674
