7
Energy = -24.13850573 eV
Ni 7.044295757385429 7.474212003670046 7.370210343217719
Ni 6.658696837484674 5.248048312013161 7.926872585006621
Ni 6.25358723675712 4.753741361673664 5.70183129951118
Ni 6.643701038411659 6.981911587136879 5.13979155989588
Ni 5.479496851202363 8.68251510221624 6.182581022914265
Ni 5.057716345453708 6.470085323891163 6.738728427028722
Ni 8.244528843342756 5.771509217499603 6.322007670526245
