7
Energy = -23.77853092 eV
Ni 5.421127527971296 3.800224750205541 5.4318600766516205
Ni 3.804983487248733 4.81558572019937 4.206348303495547
Ni 5.935531779395987 5.50849251505858 3.862515485271429
Ni 6.98483773734336 5.501295472605077 6.0061387197895035
Ni 4.38493216202712 6.168379999585225 5.92842996483433
Ni 5.377825041248234 4.828764394672171 7.4567802757598995
Ni 6.098765683609228 7.385260566517622 5.115930593041746
