7
Energy = -23.77392096 eV
Ni 8.01682749668728 5.636337243236267 8.942513929748875
Ni 9.132476500880308 7.270365603006856 7.785917146639139
Ni 7.579099739057182 8.112469318526177 5.989253480151537
Ni 7.58900231983926 5.939341541135971 6.71599908418815
Ni 7.9825941423730375 9.279142527195951 7.930257383264813
Ni 6.7038901304972525 7.374252549365943 8.2950331977288
Ni 5.853425733521852 9.103076693624057 7.1021866700061125
