8
Energy = -27.85538652 eV
Ni 7.02368005669088 7.567335382485311 10.351604846640855
Ni 9.704804037426516 7.60975901265881 7.5421700017754025
Ni 10.309467939178143 9.542194537891469 8.638615043250526
Ni 8.146191273022492 8.845959670888101 8.822189550204065
Ni 8.952271879848025 9.665625424285418 6.803894506518207
Ni 7.510387321579624 7.911449781851908 6.532439980822335
Ni 7.865691741221437 6.49571401856236 8.48771904661757
Ni 6.06937625659343 7.933449306928545 8.303578588805392
