8
Energy = -28.11649311 eV
Ni 6.588158984861157 6.99869104139627 5.809591301174903
Ni 7.533569861234991 6.838797070324665 7.873769712713525
Ni 5.260069231124407 7.430549991054829 7.698999868816367
Ni 5.952357425853001 5.226177051646687 7.401372708894896
Ni 4.32642205540744 6.189640715716958 5.915049798091173
Ni 6.003573581442952 4.782951839460975 5.051785190707194
Ni 7.99401885371231 5.166622640086739 6.280437968692827
Ni 5.3516688773441485 6.667376365916578 3.929951978027876
