8
Energy = -28.37315906 eV
Ni 8.499164087284086 6.551731881541166 8.14816557178919
Ni 8.400019552044625 7.952997135139706 6.381251335511182
Ni 10.011208522353726 8.342667682131385 8.089007576093909
Ni 6.650486084167613 6.407772315821978 6.703013225452227
Ni 6.405995197625805 6.801117292832653 9.059500816498216
Ni 8.07282701175802 8.472167036102636 9.407474877284422
Ni 8.479352828317552 9.998073707392543 7.687937596827688
Ni 6.621102872683121 8.588128532802894 7.621778757135271
