8
Energy = -28.36931504 eV
Ni 6.767898917896359 6.879655237726402 6.820439128326768
Ni 7.207468861908597 4.616037672643129 7.162077347554225
Ni 5.003398025768887 6.016784835263869 4.987687828708618
Ni 5.713668821907748 3.885863508002688 5.606155749830915
Ni 6.44487651756873 7.806735654970502 4.728398926366124
Ni 7.251984595856709 5.598229801636512 4.984202491334173
Ni 4.633918402030634 7.718932654286839 6.509107330959418
Ni 4.99216526919108 5.493140047598799 7.217310609048729
