8
Energy = -27.91344175 eV
Ni 7.763753475283781 7.763753475283781 7.763753475283781
Ni 5.939535410697354 5.939535410697354 7.763753475283781
Ni 7.763753475283781 5.939535410697354 5.939535410697354
Ni 5.939535410697354 7.763753475283781 5.939535410697354
Ni 8.142379 5.560909885981132 8.142379
Ni 8.142379 8.142379 5.560909885981132
Ni 5.560909885981132 8.142379 8.142379
Ni 5.560909885981132 5.560909885981132 5.560909885981132
