8
Energy = -28.00642868 eV
Ni 4.39738035858451 5.9742763226742035 5.198116652680725
Ni 6.140575932315835 7.487487586507234 5.529216828057236
Ni 5.278586631077486 7.138327484009451 3.4132576070114857
Ni 5.243245301062001 6.305371505488918 7.35417119990988
Ni 7.387345838723739 5.80572992923417 6.587918920991199
Ni 5.651086739492502 4.290614701099568 6.24169896894952
Ni 6.537888763459282 5.4747487378054505 4.424487953692687
Ni 6.481679058861694 4.641232356757778 8.368920492284182
