8
Energy = -27.86427298 eV
Ni 8.20867223 7.34384977915861 5.716261038425641
Ni 5.256613646521327 6.121436097362716 5.716261038425641
Ni 7.34384977915861 5.256613646521327 5.716261038425641
Ni 6.121436097362716 8.20867223 5.716261038425641
Ni 8.20867223 6.121436097362716 7.74902483809569
Ni 5.256613646521327 7.34384977915861 7.74902483809569
Ni 6.121436097362716 5.256613646521327 7.74902483809569
Ni 7.34384977915861 8.20867223 7.74902483809569
