8
Energy = -27.51306626 eV
Ni 4.652844555095555 7.444982988017891 6.925195721562396
Ni 5.292948350605589 5.709571996524046 5.715796109474231
Ni 6.130021064830315 7.35966832060137 4.474110520519163
Ni 7.770745349240273 6.114388831038831 5.574137403143746
Ni 6.669053554147187 4.117060505572873 5.000839651581033
Ni 5.696133704303532 3.8981753942852824 7.1963174484893235
Ni 6.823908782301018 8.08373165786479 6.556935985203927
Ni 6.410817669184424 5.995756327248877 7.650560773798501
