9
Energy = -32.73717175 eV
Ni 6.246489519280039 8.115913783756051 8.453443929892495
Ni 5.894754646976285 7.292251779534241 6.2726745337054854
Ni 5.589971561854855 5.865614604324211 8.15654358834061
Ni 7.530936356919404 8.928420857866625 6.691803472434656
Ni 7.387430869952 5.700910307224726 6.623320548506083
Ni 9.044781777336981 7.323922646061431 7.033871492472653
Ni 7.763215781993104 6.522827499400555 8.80137564509152
Ni 8.502516220937267 8.762941200110944 8.835710240367323
Ni 7.890117912235167 7.337411969206312 4.981471196674526
