9
Energy = -32.7260014 eV
Ni 4.325084111111129 5.91367188888897 5.478133888888948
Ni 6.139722111111079 7.187879888888891 4.7286948888888904
Ni 5.700222111111156 4.271356888888891 6.040112888888912
Ni 7.530088111111106 5.5300758888888835 5.300563888888956
Ni 5.452884111111123 7.365466888888851 6.956463888888838
Ni 7.753929111111035 7.6043458888889806 6.403785888888834
Ni 6.826465111111192 5.719950888888915 7.522321888888833
Ni 5.772485111111097 5.0525168888888325 3.7941508888888182
Ni 4.499120111111051 5.354734888888867 7.7757718888888245
