9
Energy = -32.23605183 eV
Ni 6.994485089332309 8.387163700862159 10.384905259385095
Ni 9.251086130318113 9.235505441438141 7.109068201682862
Ni 9.13522682430914 8.535370924154906 9.392601483511257
Ni 5.737086245901415 7.719269013358313 8.378413205534152
Ni 7.485519644538286 7.673489181049697 6.802286605211331
Ni 9.285581246488622 7.666367973597827 5.397656371024194
Ni 7.276354807178342 9.432397332160049 8.350961403254027
Ni 9.628786453994307 7.031128646764708 7.604843914638991
Ni 7.738526509182624 6.741624255263979 8.949734699093389
