9
Energy = -31.76597435 eV
Ni 6.424994235425266 3.7607712608563766 6.426075813544731
Ni 6.426123556753008 5.120498115396527 8.288093929518695
Ni 5.138637859439304 5.752302367829799 6.426075813544731
Ni 7.714151432674713 5.749914796490553 6.426075813544731
Ni 6.426123556753008 5.120498115396527 4.564057697570768
Ni 6.427710237225868 7.316258885361811 5.209267196433551
Ni 7.583587454331913 8.851199633766912 6.426075813544731
Ni 6.427710237225868 7.316258885361811 7.642884430655913
Ni 5.265643602045031 8.846979961384424 6.426075813544731
