9
Energy = -32.52127825 eV
Ni 6.88008978618145 4.3644044488817215 6.404232671284715
Ni 7.962872711284269 6.4089899413681 6.254254579174686
Ni 5.926705771047679 6.35307688890802 7.3461802835781915
Ni 6.379623889902059 8.090865905965183 5.870505460482869
Ni 6.152963241938072 6.04766000994184 4.81804782513735
Ni 4.277286049705506 7.0707412014426 5.774915305109624
Ni 4.513197995558078 4.755968768923765 6.298227612421702
Ni 5.643441073928745 3.7929484772990754 4.529988294199402
Ni 4.034008890959577 5.437148372607997 4.121050564136366
