12
Energy = -98.1044082 eV
Os 8.255240334975053 6.722096689288708 8.666711080097956
Os 7.932367183824376 7.84747882071034 6.336725629400789
Os 7.0582533899099 9.0812656119278 8.401749745864914
Os 8.156352423523755 4.513058509169343 7.579683873008973
Os 9.369666919058288 8.849910604573498 8.172545363861419
Os 7.62889550323301 5.602288582113817 5.325057447794908
Os 5.7409882296666925 7.3415715495588945 5.23215471624386
Os 6.185880686660882 6.043111306877127 7.2852830008730916
Os 5.9412257795509555 7.027116309792717 9.59082701793312
Os 4.872320657554144 8.131216819585175 7.595433957191171
Os 6.1224364626866095 9.654919256005773 6.152416823220824
Os 9.729492176152899 6.179086142822641 6.654530407860975
