10
Energy = -78.26106171 eV
Os 6.0933545347737725 4.337925830383389 5.082335726531595
Os 8.490828876492218 4.759514386405428 5.046775187187075
Os 4.832509708955482 6.517981382837155 5.552110048287146
Os 7.020577063750612 6.6553745283821035 4.257897710446276
Os 6.3719272154816045 8.448317431790237 5.856763959057536
Os 5.058732139329145 4.833531773601118 7.446632921003362
Os 7.228226989459916 3.588402543923157 7.102178945981727
Os 5.114891663571264 7.279374372943603 7.903169358383456
Os 7.056270258686548 6.066701721813502 6.661954454201258
Os 4.1088801838201885 8.87913645922168 6.456442116324815
