13
Energy = -110.51225249 eV
Os 7.3612964659380165 7.786284393143063 6.811220400016639
Os 7.92702502649382 7.804762402017005 8.476723134641226
Os 7.4122159792122675 7.784919378977264 10.872843843408075
Os 9.01265114364667 7.764209351997641 6.23991745004119
Os 9.679539848989704 7.748229343520283 8.475490249543581
Os 9.081601677163293 7.76795090544458 10.3922571743902
Os 7.362955357366219 9.499377035784933 6.809645293811328
Os 7.928838993875947 9.482922664417613 8.47549024954358
Os 7.414506956650846 9.506072302928821 10.871567683879746
Os 9.01382496144901 9.519106773254983 6.238240317825983
Os 9.680578128890414 9.535709333061202 8.474503780972205
Os 9.082948322276787 9.52065363672211 10.390968247720933
Os 11.079184674447712 8.965428942329988 9.508298710606477
