10
Energy = -80.70607854 eV
Os 4.135140220675669 5.338767424961504 3.503904327750209
Os 4.6434196588342385 2.939311738820418 3.8964631048104965
Os 5.671889184963781 7.146765251240153 4.275793398650451
Os 6.2546261435952 4.7490773825033665 4.693063412056716
Os 4.359753416311197 5.828115658092467 5.947891698283787
Os 5.950585238531098 7.677108639440219 6.68679087346504
Os 2.8099196772624255 3.9845981621050135 5.106093190010307
Os 7.787143476549803 6.636177132131803 5.473673546275632
Os 6.5136629268972355 5.308630016324396 7.122075608129329
Os 4.889527463645506 3.407116001646669 6.309918247833774
