13
Energy = -106.7079044 eV
Os 8.024028180346352 8.773725180324739 5.644115261363148
Os 8.361067635161117 6.2019192796379015 5.049378399396063
Os 5.884174750262648 9.764163812214433 5.5456906144500095
Os 5.408373975330727 8.512380279229095 7.490033833046806
Os 6.134658359596652 7.189509169217294 5.537941825935844
Os 9.759534842064996 7.343758374152596 6.733631964870501
Os 7.838043545277445 8.297212693991497 8.11022000624635
Os 7.541744019369242 5.885806615562325 7.347534967594145
Os 10.439203494802467 8.130926133211984 8.829748590888311
Os 5.082704739344234 5.873722134788061 7.362351101678899
Os 8.94882494730639 6.417225110680106 9.41582730142987
Os 6.049829266138953 6.972681460377261 9.351341519612014
Os 7.687359592213994 7.855409933312274 10.772475439857395
