10
Energy = -78.23237379 eV
Os 4.627360209763222 5.7935602883173445 7.51611064946679
Os 6.427386704433733 4.163515798867467 7.500877719160921
Os 8.227413199104243 5.7935602883173445 7.51611064946679
Os 7.634443798964081 8.152269965151696 7.475773524151818
Os 5.220329609903378 8.152269965151696 7.475773524151818
Os 4.627360209763222 7.06121312055013 5.338662759400675
Os 5.220329609903378 4.702503443715768 5.378999884715646
Os 7.634443798964081 4.702503443715768 5.378999884715646
Os 8.227413199104243 7.06121312055013 5.338662759400675
Os 6.427386704433733 8.69125761 5.353895689706547
