11
Energy = -89.2330724 eV
Os 6.867367181182235 6.23496104373824 5.132859764293203
Os 5.580265294178446 4.204510535742272 5.989834890349208
Os 8.583137101086828 8.040876812342365 4.903375482858775
Os 9.28231576951858 6.083446564900951 6.140470233523817
Os 6.097243492517379 8.593518093057137 5.3384216721147055
Os 4.576047365254647 6.523700413403969 5.752213843484611
Os 7.572166444454384 7.77907254994381 7.177778129511174
Os 5.243133696794976 7.9680481068619615 7.651228007183826
Os 5.013455872639022 5.49209614516192 8.02622998435546
Os 6.7289383929009645 6.732036268455236 9.34794228740679
Os 7.3624531708053125 5.254257242940392 7.446169486251322
