11
Energy = -88.58320712 eV
Os 8.284016785162155 4.846918997408335 6.8784455897033965
Os 7.95824014222858 6.249865951565618 4.7360185135057495
Os 6.038957547704135 5.1282082257942925 5.825272471058477
Os 6.308873023952405 4.345169979216131 8.253177731392118
Os 5.570016976550381 7.059231903819019 4.3501429369075195
Os 6.624697917141733 6.779908180401383 7.6094522633312085
Os 7.223592343436077 8.36062083763641 5.792673125628206
Os 4.336445193580819 5.842641281437406 7.722509535491684
Os 4.818988855624361 8.082576082309284 6.491604234077827
Os 3.5980589833411694 6.077132292968154 5.4352754626498445
Os 9.116223904475117 7.156152308505887 6.8188333347513215
