15
Energy = -125.9537901 eV
Os 6.618359415053922 4.6032886778810385 9.428169869868404
Os 5.204650799878898 4.313656417012388 7.435292246510402
Os 8.326084637734159 5.36930991367267 8.085229583750348
Os 9.432669324619447 4.769677836050512 5.812112938734359
Os 5.919824871859103 6.617064329010217 8.039596215031887
Os 6.947122521698988 5.250287913777065 5.994010845011593
Os 4.509066044083174 6.128821623730033 5.925203757424276
Os 6.802096826425432 8.602845433119834 6.578980422942624
Os 8.256258964027749 7.9062712437945795 8.426775084187215
Os 8.928507055477128 7.071596453670815 6.280000020051266
Os 4.380197640162479 8.685534299894524 6.046132488541271
Os 8.266041171181978 6.0065782133691465 3.978886295495774
Os 6.337604772105028 7.291392259791577 4.567344798338624
Os 5.009344304501524 8.800937962641529 8.317315216254338
Os 4.006386938825214 7.603900319176523 3.9653805039672627
