14
Energy = -118.82464382 eV
Os 7.306483057878454 8.165548028498222 6.427225350169449
Os 7.32262873590576 9.621511066894998 6.4181853972287755
Os 7.600979442868391 8.217485054051558 8.898279775966914
Os 7.616534535708727 9.584665347822451 8.889555105530745
Os 8.21033511703266 8.186461451196655 10.5847719186054
Os 8.226372172520554 9.627044042838623 10.575749061480655
Os 8.7008099415686 8.151343948299319 7.233284518745369
Os 8.717012657621696 9.610446521371008 7.224203318621709
Os 9.124971809140504 8.131727059671652 8.907495535974586
Os 9.141528758073296 9.643914692830927 8.898279775966913
Os 9.729637297427907 8.172099137616028 11.323796122438935
Os 9.7455412785438 9.614239105658845 11.314817405352352
Os 11.32582530895709 9.30806995039789 9.651492812321765
Os 10.838109394514534 9.302040085089667 8.124546901596446
