15
Energy = -126.7896041 eV
Os 6.798114119692876 7.690171454576801 9.659630019977962
Os 7.907307429028231 5.8556755487495735 8.677697309458512
Os 7.9581834410666765 3.5184589905748833 8.404914204616594
Os 8.097424042152792 6.903526023946314 6.376279076199297
Os 8.035969997046113 4.482152277190235 6.158623634222867
Os 7.361009554307304 8.84356766594266 7.641753531524921
Os 5.848561996412287 4.548237597481617 7.47936379212524
Os 7.892866731088682 5.9971507591728574 4.071662682891397
Os 5.879049908483666 4.581966859596462 4.985810089181936
Os 5.567601378614099 6.993497844273904 7.650347404874983
Os 7.656586333681384 8.614549192337925 4.6063220597341665
Os 6.059710262931555 9.820103571552355 5.9130162939742785
Os 5.787999637316529 6.961651219865014 5.014044203980606
Os 3.9756077298974466 5.729356524171306 6.214944828797084
Os 4.142427884628386 8.424484443275006 6.1302565367766
