14
Energy = -116.67128501 eV
Os 5.122114603358869 6.936442752020022 8.433376582205591
Os 9.171495090798219 7.135691752344934 9.042972676582055
Os 5.038045916163563 4.478103195038874 8.66802723480574
Os 7.261943004555419 5.757222520812272 8.538104278393606
Os 4.557950838683047 5.576776720537774 6.402272021618306
Os 6.544528494593343 4.179444465499532 6.72113619109081
Os 8.187693562457879 5.950947623817901 6.2066754242962086
Os 5.485767040852756 7.916373089273853 6.193147527862934
Os 9.816189223024452 7.617161448147884 6.763309798273695
Os 7.495712674252853 8.115793675635054 7.472760261712602
Os 7.746468632038494 8.172585512145941 4.947995347985902
Os 5.184895055179121 8.064175443300844 3.8246580151506215
Os 3.947920749972352 5.999930705024122 4.1105540489785435
Os 6.391264824898192 6.051340851614625 4.627000279678262
