11
Energy = -90.21420352 eV
Os 10.432325328923387 9.615395306732598 9.163501475941151
Os 7.734825715329631 8.38284651172502 10.15855609089653
Os 8.61257655593132 10.282232029759529 10.665944049689891
Os 8.024013031732414 5.933750713688779 9.499050889317312
Os 10.328898994094487 10.343304250540882 7.022144288646499
Os 9.388135529448576 7.768569774708844 8.651190511421095
Os 7.597282848283555 8.802259392303828 7.96399357910187
Os 7.959964154038793 6.571196704645885 7.285007620055456
Os 9.330387722327213 8.468952418142306 6.420086086151743
Os 6.1064495860715935 7.113391463263332 8.657095760540951
Os 8.612576555931318 10.84553545660201 8.46325562612492
