12
Energy = -97.94326696 eV
Os 4.346142626987441 5.095034858504861 7.040245485476563
Os 6.637777669061133 4.264730975825565 5.069067211378813
Os 4.757189892072271 5.698069272532499 4.74556846182146
Os 7.553531319810897 6.266197431141001 4.000166738413139
Os 8.664454051705347 7.706927733250379 5.800093896828331
Os 6.1710794250666945 8.61517849598682 7.888106779163719
Os 5.270537558449716 6.557434885566985 8.86173635711024
Os 8.165195113393022 7.351971891378659 8.094801229474616
Os 6.186252757030437 7.430897206534114 5.68391964028753
Os 4.062930952295781 7.54101512229302 6.93555888583556
Os 8.823387101417357 5.2574220427275815 5.855100048049871
Os 6.790986889450622 5.496128479934297 7.2237210987976
