15
Energy = -125.46884626 eV
Os 6.096584651618202 8.838677479864874 5.577992097407727
Os 8.132406223249337 8.183067363923312 6.833551067825287
Os 7.882258117897588 6.982779486044861 4.697607208538884
Os 9.99671818152043 6.684566039824856 6.431086570335407
Os 5.778353322977093 7.389770331938846 7.747679269186675
Os 5.4590628473240495 6.482263966348824 5.207745103648985
Os 3.851629860702588 8.071499428856493 6.346043725238062
Os 7.897204936769963 5.935588751534219 7.81506904417401
Os 5.82997210666994 5.2439426993936324 9.03591361065145
Os 6.670834567555863 4.6033134283414325 4.152255503784473
Os 8.583881260554206 4.85016198952521 5.712103986688545
Os 2.813348536395608 6.156488049109586 5.1020559481210705
Os 6.191284535027756 4.351472994922634 6.726460299350762
Os 4.377204439398116 4.19584605778235 5.04398885800518
Os 4.04558438808747 5.616794943857876 7.210403421578522
