12
Energy = -97.64657257 eV
Os 7.902562319454202 7.622153498195249 8.039023478736572
Os 7.816759149094433 5.900180317294049 9.648598602001838
Os 7.219621273966296 5.354517844278301 7.1702272294799165
Os 5.603780877859555 7.258170889802021 7.42601724019232
Os 5.565783272143114 5.499194398345122 9.068980532524824
Os 4.799318435005817 4.907812266440156 6.637465879497413
Os 6.561648566221687 4.892604090905665 4.723857256749732
Os 7.3679681156924435 7.2386878522544045 5.506204498343434
Os 4.950461853677428 6.795932128057408 4.986952244726745
Os 6.597499194865777 6.661137326820241 3.0798866800797113
Os 4.253026178513814 4.533975885169193 4.112131729711494
Os 4.328249152283384 6.286840934662565 2.5245829813722787
