11
Energy = -88.58566083 eV
Os 5.095675764325293 6.112285202409183 7.488821216832312
Os 5.097639826333671 6.106356119845804 5.005837627752081
Os 4.0269143505822065 7.96433149378616 6.242040848084008
Os 6.906854815992517 4.76010528211755 6.251991385053248
Os 6.5377844463921 7.8465399520481816 6.244315876374206
Os 2.8209254813992155 5.8396171443815135 6.246194611138395
Os 4.492630879496506 4.055160951241343 6.251747202929734
Os 7.726630934700497 6.428670017548673 7.914518987332713
Os 7.729317025065734 6.42070642705113 4.58283740963683
Os 9.290993266721648 5.391717009670822 6.252416579497268
Os 9.001765486073161 7.801642580626282 6.246410532451628
