14
Energy = -116.20359081 eV
Os 7.838672942249336 3.640807265160539 5.384004569863337
Os 7.1618435742543864 5.860964102435102 4.54738714947198
Os 7.468735890519901 8.047016457969601 5.735881341340634
Os 8.398332359277287 5.820134949802704 6.716789125517065
Os 6.995953123474064 3.9404467742212383 7.581465536280343
Os 5.522724326118652 9.568885788882914 5.313422130216538
Os 8.8665370106627 8.009834683669116 7.792367406057345
Os 7.987872329541751 5.881336758025368 9.178178036828937
Os 5.416772807021856 4.6781350863719116 5.730161364386718
Os 6.853655357417987 9.820538861869633 7.368723255193948
Os 6.838397077556987 8.03981291517962 9.122897253769253
Os 5.948930824629614 6.231491927666495 7.689013047267503
Os 4.779240160536228 8.55133173983768 7.555594608048705
Os 5.03669707520527 7.132862680821634 5.51245645755235
