10
Energy = -80.84476828 eV
Os 7.838624396617128 7.234909520738317 5.8520823478720825
Os 7.950017025809167 9.106250261158216 7.475450592300814
Os 7.597526263125399 5.170975404606603 4.4099356211717025
Os 7.613484426570115 5.02686741001702 6.932105323226249
Os 6.713302768826383 7.021905409756003 8.077250721277533
Os 5.800905550454029 8.7894481474801 6.38701645002056
Os 5.744644677274372 6.855574706961262 4.773775422285173
Os 5.579652916093165 4.780827486676141 8.405386555817431
Os 5.57779704067844 4.616907068137637 5.860908889539147
Os 4.631728391804956 6.640116032299089 6.974404133243744
