15
Energy = -126.59824638 eV
Os 6.302282041366482 6.376298765731884 6.477495718630638
Os 8.785317213270108 6.3674911233391684 6.484430000018903
Os 3.5175149923720284 6.6242796830439366 6.467467004348777
Os 7.6036633660555255 8.491469806058026 6.469927622329034
Os 4.842914632137222 8.535045734064603 6.461487523103696
Os 7.382569309666018 4.0103879856643445 6.4927762898991555
Os 5.058903276768874 3.8821131558005852 6.486354732110094
Os 6.107187682511475 7.841511490932908 8.518952644183972
Os 8.52178288015168 7.6418926588746565 8.776174735286181
Os 7.4377824483659465 5.473491680148088 8.540463791764036
Os 4.741704889948164 5.522148310160092 8.248487091334276
Os 6.119486771957482 7.819558260010219 4.418933585133409
Os 8.5352396858966 7.616802563340566 4.178786749026542
Os 7.449552958038108 5.451578305668501 4.429951572019488
Os 4.7515336718019485 5.503366320427319 4.705746761119089
