15
Energy = -126.10901623 eV
Os 7.446817109229646 7.648564547418013 9.623794298911728
Os 5.5524982624477826 6.017158907541875 9.939250584429919
Os 5.164412695430189 8.348749588526221 9.072651003599232
Os 7.366486527568419 5.314948530949683 8.40675515191617
Os 5.205802009453382 6.457562708702752 7.44801366806045
Os 7.121169474907994 9.657898632632623 8.032635919454576
Os 9.48659416706794 8.381433146495308 8.304080535490833
Os 9.691415519524355 6.1251004477700945 7.581308680969075
Os 7.558492895665736 7.36433411728556 7.014860924489794
Os 6.875915029110918 8.015411179022978 4.675406190321677
Os 5.870574379987941 5.88189700909781 5.180464827478569
Os 7.875923786103537 4.9659619088535685 5.902413682190133
Os 5.477310070502755 8.800804573714569 6.4525723123441505
Os 8.964106069481884 9.19336197479873 6.0503600380913625
Os 9.291683614406123 6.8734593466419 5.239873214832648
