14
Energy = -114.57638681 eV
Os 2.8075756214820053 8.024333415768211 6.356795020394373
Os 5.130598448147492 5.297562129607154 3.5686860372089146
Os 3.7512483130813434 6.081302099255733 7.4598512462906115
Os 7.031056877245376 3.7207891844138024 4.196197830814137
Os 5.063907317592864 7.142256501560423 5.589016546752203
Os 3.084622083412025 5.833283929866456 4.986348791930874
Os 7.276177040212276 5.963554035824255 5.15803963093475
Os 7.634114529996504 3.9953087075374216 6.686661312294661
Os 8.91881629356302 6.212769258814361 6.958957143510307
Os 9.351802711571906 4.504298381540034 5.05047881338449
Os 5.210635776093038 4.570455814221749 5.893337162287105
Os 7.324640533817381 8.187531566412021 6.756905729940936
Os 4.9739887675440535 8.329385668357233 7.733794239913044
Os 6.367989862435034 6.103918703063845 7.582153354463455
