12
Energy = -97.74634663 eV
Os 7.45216426258206 5.55394739943496 9.117723872981095
Os 7.298497862550914 8.252104946707579 9.44578647807342
Os 5.952859847251241 4.9182863069826475 6.878995969565917
Os 5.744096481810845 7.027853998967865 8.057412079646165
Os 9.086916038001965 7.190387057180202 8.144702903847682
Os 8.344922157029114 5.387106813594189 6.757421037739339
Os 6.997427862736662 6.077088791597352 4.841249514499702
Os 9.207748422924118 7.504292100814716 5.6618096100126145
Os 5.853140228105238 9.505499229010725 7.814562659322589
Os 4.7916035196410105 6.877572780217276 5.782071795388362
Os 6.84182827860255 8.251796035509976 5.900581101511176
Os 8.333448360202551 9.405953249924943 7.412164235357629
