13
Energy = -106.71871102 eV
Os 8.776907350474245 6.285067997788737 7.86451671164701
Os 8.72981457704417 7.153082832524527 5.249512610108832
Os 8.077546100338633 4.887291993546878 5.911792370573216
Os 7.089813653279163 7.825203435869539 6.95440252623683
Os 6.823348473049627 4.736314510471306 7.94931374252494
Os 6.34686025953764 6.850012045338334 9.085887412205356
Os 5.773681638305448 3.9174611151916703 5.841191225184618
Os 4.4615821698418365 5.365096257765785 7.814231989210845
Os 4.650067236450783 7.82045733237916 7.567601387554625
Os 6.809909905156611 5.642808945133303 3.956822410280764
Os 4.843202358328905 9.21993313509964 5.6423357790829956
Os 6.5551779383358415 8.034070844366193 4.493063315668448
Os 5.132514262707186 6.28394525360889 5.63430950830448
