12
Energy = -96.1426876 eV
Os 3.9789392705983126 5.25861644388128 4.076227597970462
Os 2.432147652833904 6.197910019709987 5.640261515100565
Os 4.880609273166875 7.274290587167024 5.384241014341552
Os 6.334984249742163 5.339813952895143 4.576847103268109
Os 3.5418815231698604 7.068697928118144 7.570369239544622
Os 4.724427371786382 5.044001782826143 6.530327577319411
Os 7.586793388740118 7.233832374290387 5.733649855395417
Os 7.390254662745913 5.013648452831235 6.885921924320055
Os 8.735193169275549 5.174616899385496 4.708957197047439
Os 5.948414576484861 6.969782642319158 7.6746893511846475
Os 8.30186525543637 7.0341620146434165 8.186883534289146
Os 9.844261761475043 6.0802278749905705 6.625886916004301
