15
Energy = -125.1504199 eV
Os 5.94792694144635 6.362640277745208 8.953675536645218
Os 8.403426257035974 6.660645392120483 8.926754263060548
Os 4.86196643331453 4.151444394855433 8.378566422140183
Os 7.341103050454213 4.587401667553668 8.085552693177313
Os 4.42946869420634 6.215688471076844 6.9925614219868
Os 5.891858004665596 4.353758636947121 6.078351389075502
Os 8.31756697230346 6.091846123344058 6.351992300749873
Os 5.447355803647494 7.909897401801006 5.394535608600131
Os 8.886640306100185 8.424920600672653 6.052632569974368
Os 6.844610394513175 7.9826373904152925 7.279437338381636
Os 7.569280289074548 8.350124288412031 4.140868606392674
Os 5.560063591839707 7.388255748763426 2.920528228529783
Os 4.428258390893087 5.7607268274253 4.401341805923811
Os 6.994026710914222 5.935571577947266 4.4176103064193954
Os 3.4563482823142677 4.204341390054421 6.00549163166635
