12
Energy = -98.83732727 eV
Os 5.524489851584993 7.538306401419878 8.480445580870311
Os 4.87391113953636 5.697088878435722 6.7496708459269685
Os 4.505149712052291 7.994955700043677 6.288873226693827
Os 7.307264426251032 6.10955210594905 7.192967240044614
Os 7.001345516287696 8.436989626029469 6.7486489713692075
Os 6.225363808243245 3.94272847447834 8.01507587988391
Os 6.1999848430709035 7.830615053764076 4.354772302918561
Os 4.1524452896954225 6.48800373440444 4.3765984192133045
Os 8.441876684373879 7.295027409980042 5.147354067539148
Os 5.484392171385467 3.405931953869048 5.818499163250897
Os 7.936366951702628 3.947360897057175 6.165539101341704
Os 6.534757840268475 5.522488475561822 4.871391707285857
