11
Energy = -89.8759799 eV
Os 9.114946184201044 9.63943162116624 12.310677370593941
Os 7.199243174113533 8.24781016946837 8.135621024611138
Os 9.029609391857344 7.5025644803586315 9.769328186701149
Os 10.084415472171967 9.870241655401443 7.418674747021147
Os 11.274804591567579 8.160907833955175 8.810087728460203
Os 7.998581852887092 9.427621390370682 6.068419069728564
Os 7.392461343696205 9.298525432675012 10.497186455429075
Os 9.794577859818661 9.75635206378798 10.010951714310869
Os 7.8999792088791425 10.485244306228852 8.360207890182263
Os 9.380335395124655 7.627438028627686 7.21814007601715
Os 8.428593580523222 7.442819536212123 12.045716103323375
