14
Energy = -117.36620723 eV
Os 8.603452704075098 11.158890122904353 5.942211992001567
Os 9.15855851060447 9.038977837761585 9.119063311368462
Os 9.739718992165662 8.898025434366211 5.9547104077271635
Os 5.758548948666135 6.9168509769357795 10.556701384110868
Os 7.937618981866228 11.041102126728028 8.289091255710677
Os 7.466671876853088 9.060527748625105 6.86726051936141
Os 6.335641630269783 7.084650607578056 8.05893895281551
Os 8.829667795023253 7.051481270168078 7.583958054629917
Os 7.79316713750375 5.821771334404435 9.593347298340076
Os 10.401641323460652 10.608077159621574 7.601765089955654
Os 6.644682946315217 9.046393759318006 9.404707230390938
Os 11.175781348735677 8.17463611845478 7.903523630225168
Os 10.134151515790425 6.725193470279701 9.714892259280749
Os 8.068485351522465 7.746489325411654 10.963634038138288
