13
Energy = -107.60090138 eV
Os 7.455769939714804 8.202078997518354 4.86082232181684
Os 7.184238950686082 5.689622800503578 5.263433527208003
Os 9.33760859655319 6.737219857985462 5.508614958208235
Os 5.637425920081079 7.307674802525332 6.606960971617696
Os 6.343580155598876 9.711969184262191 6.588624770288007
Os 8.879886719836712 4.26501439830914 6.385466663661649
Os 4.429557070916343 9.132046653605352 7.948696983390178
Os 9.495778584094126 5.990435052415573 7.939124870307439
Os 7.0745745342371045 5.530923013805848 7.7111789409632445
Os 8.060266721909413 7.9799394021464245 7.29368270144072
Os 6.630066832012082 9.205494503424038 9.105809746273444
Os 5.43397618460017 7.047817038268133 9.033029257088208
Os 7.898380007148617 7.060874512619433 9.615664505125324
