15
Energy = -126.0874561 eV
Os 9.850507396893818 5.333335811116216 7.339387891051688
Os 8.398143507482603 6.334791687044587 8.917786408617857
Os 7.150391230595251 7.511965540886423 7.231086978038996
Os 5.24950998897761 7.175208245760907 8.907386902194563
Os 8.652275326979048 6.306028798290183 5.509765954390292
Os 8.171634064961744 8.605366038210875 5.236912332376584
Os 6.588285966165487 5.096965971879942 7.9631274498314895
Os 8.120836302633721 3.965553542808033 6.441124653611149
Os 4.740466836730018 7.954536962107368 6.68023324525675
Os 6.171249667674675 7.519779600585393 4.609235893472813
Os 4.323076723591227 5.582517815843216 7.138869220762488
Os 6.130500776015928 5.011691292317125 5.4359865518208315
Os 4.081600024368718 8.624837335305589 4.257134228191831
Os 3.7570429054797723 6.362645409051016 4.822086327166884
Os 4.0690553283617765 4.032213348025283 4.958070304305383
