13
Energy = -103.24322236 eV
Os 6.9718356535139625 5.658410450908301 9.085848388390454
Os 6.940740808073691 4.460980623763398 6.853652874860554
Os 5.827032428543363 8.106218220340079 8.93514589386591
Os 5.553712803972491 6.0409813603435145 5.122646018124564
Os 4.828499367917609 8.099111404955364 6.42077163504781
Os 9.170424446280487 5.756745511161341 7.506572506418868
Os 8.076546822021841 5.816675354081266 5.035032954871294
Os 8.449110680651597 7.940863257310111 8.787864983387086
Os 6.960157280105793 8.269247202930343 4.763984460792816
Os 7.087425195517152 9.49565354751233 7.0887690975245246
Os 9.150960459595877 8.044468923123516 6.2081368717184215
Os 4.8344847102825925 5.941578060726601 7.748417205804749
Os 7.005730467316569 6.992224822790387 6.968651270082384
