15
Energy = -126.28539274 eV
Os 6.8563239669393266 8.014841412146248 3.149455347296774
Os 8.55032190204613 4.920920320629682 6.4925967635299795
Os 6.714820467432975 8.993430957487261 5.301085349562119
Os 7.052597251497597 6.445032695562692 4.7879888328367874
Os 10.220385712326209 6.483549967844826 7.077592098035327
Os 6.630964302830215 4.177351823945475 5.164641103718517
Os 8.041908344872537 7.592836137820889 6.834272215669475
Os 7.125083919451574 9.766269894070222 7.652400273058817
Os 5.404751383083921 5.598849150141622 6.714076385561495
Os 7.208397969400308 5.5621060828347995 8.39165850961798
Os 5.298963010505267 8.184628348138132 7.165937271487793
Os 3.751191738803907 6.634523112782786 8.101956292041377
Os 9.006162126638765 6.925554147408339 9.110472359272293
Os 5.7453482874946395 7.14248116982293 9.424055243568741
Os 7.531513996037233 8.693051771117654 9.771491650947839
