12
Energy = -98.32878505 eV
Os 7.551645409360969 5.897675006400373 5.430754315290106
Os 9.220426176765754 5.911876349288306 7.138901349728372
Os 5.732266686728997 7.293403516994342 8.940072967015904
Os 6.258132906101069 7.8911987799674765 6.510628797917243
Os 8.633353301682881 8.096585957214973 5.706705741590072
Os 8.09582873714528 7.883861856508492 8.187933520456951
Os 6.586430131695341 9.376632036869617 9.738889651856635
Os 7.028752688127323 10.090436771127852 7.568364379751494
Os 7.154230241639473 9.947042663642971 5.232048371008638
Os 7.716233584420862 3.8560874630821433 6.8547075498150045
Os 5.7553384108742565 5.489086466257102 7.082839869563774
Os 7.433937877183257 5.432689356797836 8.774729492880242
