12
Energy = -95.91898543 eV
Os 6.135313044867804 7.326866065428252 8.083424552617611
Os 8.250690285005446 6.400266703138348 6.97124116393859
Os 7.171596849601289 5.128629044770011 8.923521030162561
Os 6.407232632601424 7.532342837649815 5.467281856754928
Os 4.653481793475983 5.569897585556154 8.759455640445857
Os 4.133863928855355 7.002561536034806 6.43595951013969
Os 6.002696228553168 5.117400299961885 6.715325518972122
Os 4.357091595072023 7.995151137506922 4.0970145074794155
Os 8.227792880651373 4.006587972130984 6.876386125705146
Os 7.603811970121417 5.479708433357779 4.612788616874982
Os 5.053754194139293 5.672130224578968 4.447336087012381
Os 6.440188664208929 7.081964981542121 3.0033847095156365
