15
Energy = -127.32038167 eV
Os 9.325768702518651 7.732182798077287 5.132236364888808
Os 8.706999484604575 7.7313258935538665 7.442431343150346
Os 7.021922107906946 8.156697253381022 4.659278941729351
Os 7.840855503923936 5.726645597195343 4.968201321601079
Os 4.72804764717829 7.87489538227328 3.9098550941640418
Os 8.138930151464209 6.44024358293594 9.404662856536422
Os 6.413210353680336 8.16447876177628 6.932663118518672
Os 6.46871832115505 3.858867478221786 4.518629135074241
Os 7.683032201245207 5.3526111119961115 7.250912251109776
Os 5.828009856090553 6.962153102667994 8.873624136426288
Os 5.239167459258276 5.849302349534411 5.193967463246124
Os 4.134849205443775 7.956406624912838 6.248251769316504
Os 6.55422591787112 3.234253449791793 6.801701130458159
Os 3.536784117703766 6.75406009466413 8.22671443194105
Os 5.098795339766118 5.0056964142287415 7.35249067874352
