15
Energy = -125.96618255 eV
Os 5.084793077119847 4.128168713642088 2.6465589731376022
Os 4.699901896678824 6.917016507872302 2.9287510088705546
Os 6.421142497499419 5.645548542011447 4.134641519111394
Os 2.969273423557937 2.9953197315680664 3.7116121007798473
Os 7.340714907594344 3.3594847538239 3.721653029027058
Os 5.272260734552039 2.237823203822717 4.208871097216648
Os 6.0298495447890055 8.04205988411602 4.750012106467279
Os 3.620447734338133 7.658668333107855 5.161515374542374
Os 3.7191957918012566 5.29663384060029 4.485719112139407
Os 7.640210419275679 5.643091481700117 6.289920924537296
Os 3.65069228721277 3.19897830000843 6.08029797013913
Os 6.100308063751178 3.8210616404424678 5.965945472125016
Os 2.874124210340674 5.648710648243471 6.782471179924163
Os 5.290052179791202 6.30753209625376 6.412157425973724
Os 4.561276705235567 4.374145796324802 7.994116179546229
