12
Energy = -98.31370536 eV
Os 6.154750358109705 4.823057172808535 7.334230798012634
Os 8.30211665047638 7.746504280899005 8.517676107188526
Os 4.889539129546413 6.247589266731416 5.813310572744862
Os 7.0759010563724765 5.188855979154427 5.041705387169852
Os 6.677341237520243 7.710162690559281 4.789814915841524
Os 8.490218897662285 6.8661950809497405 6.248077275478799
Os 7.937262962731376 9.281096920008633 6.2987830136145195
Os 5.490977483119792 6.005576182025289 3.4199737343632353
Os 8.456028430977714 5.258160622966919 8.07422909527715
Os 6.12880222723554 7.90928231468261 7.264792048022647
Os 4.1262660606779376 6.347950247434236 8.10571430611178
Os 6.389720601861285 6.347585323607545 9.195056870654877
