10
Energy = -80.63475669 eV
Os 6.41745463319278 7.839385021689492 5.144029177045312
Os 4.823399759656812 6.724572699838906 6.882185708164934
Os 6.079208908868666 8.910809584466096 7.479008530162044
Os 8.21216572370352 7.760063590938455 6.7877174018776305
Os 6.2020617987042295 5.37319620639745 5.320804602002016
Os 7.901681971903645 8.764049826528677 9.054766231534243
Os 8.391275505086881 6.423871650913656 4.647339549134881
Os 6.662592176065511 6.67366152344025 8.480109795566502
Os 7.956624609864382 5.303923730332763 6.883174778300236
Os 5.6618832380080155 4.512997016861524 7.627850938485721
