14
Energy = -113.95461709 eV
Os 8.06505316089711 6.480841396073157 9.09306384254279
Os 8.442868985164154 5.229609489049944 6.7650476087724885
Os 5.620558967730573 7.539150398047757 9.00247773997216
Os 6.26837582264939 5.637662553881341 5.24798321313351
Os 4.548055859125955 6.939911426097017 6.679213480803629
Os 9.462144832320892 7.668853230782674 7.185050716249726
Os 8.4178779471134 7.039084353869641 4.904337927734772
Os 7.77519659072644 8.99166719655077 8.626431452393764
Os 5.998886527429289 8.111445190551047 4.784641392194615
Os 5.55109219852953 9.331742423341096 7.233591843859985
Os 8.032087581369648 9.411622782860839 6.019056876436027
Os 5.98979347323593 5.16999548417921 7.842160528843377
Os 7.004110920182353 7.322477314350187 6.9359009344996645
Os 7.912077747159979 4.055433871781943 8.851516758270105
