11
Energy = -89.47504222 eV
Os 10.022874958307836 10.589047777425163 8.713812296478775
Os 7.703044155071078 7.713684772822623 5.296910921854368
Os 9.440550839841988 6.913297700730546 6.984463208259238
Os 7.739836858076267 10.72803077126471 9.008832140841777
Os 9.946339872431793 8.267687025169069 9.097404956845825
Os 8.455548275281071 6.201393324680647 9.169230001883419
Os 8.510275518156668 9.118767915841136 7.1189122766682695
Os 5.866589873758011 6.523918931408861 9.241777311812495
Os 7.155516959112718 5.962511314232332 7.083637957197176
Os 6.212644597146546 8.082157947788444 7.321778806783519
Os 7.452707395876365 8.40543182169706 9.469169424435465
