14
Energy = -117.18327328 eV
Os 7.937510808352285 6.091809278003615 4.274216438200346
Os 5.654072472585733 5.050134786105642 4.742120596778344
Os 7.4778947639273605 4.1986153796244 6.288309557462981
Os 5.945092376231074 7.2644765137160245 3.412201264760913
Os 8.700693034823354 6.278687362831695 6.655522811830338
Os 3.7157252773733855 6.107777353196669 3.41188693784769
Os 7.085695980668327 7.925529973778489 5.618540443697963
Os 3.418107613604405 3.919314290113074 4.560721455805805
Os 5.812251189372644 3.9231860645457934 8.220673536449913
Os 5.28928991424805 2.8960483444366862 6.023362130792389
Os 2.279224368967486 6.12269363602557 5.434154360765917
Os 3.9950996536719683 4.890970681897527 6.755683595962553
Os 6.207459484264538 6.16078395897536 7.150505292694105
Os 4.542035660483388 7.183812550964926 5.5151707014982545
