10
Energy = -80.60683395 eV
Os 6.32524437782889 5.065778059430563 6.565140187691657
Os 4.901586826432167 3.2584476090985555 5.8939266312957574
Os 4.227612537512527 4.661917225214386 7.893617523708057
Os 6.652299105924238 4.236744867780999 4.178017690999995
Os 3.0760958075899563 4.791644948673093 5.609770446446596
Os 4.054579460072774 6.307760999514711 3.7726258074002215
Os 4.37567238364641 3.960492900287115 3.5185281772851424
Os 4.5009711537430634 6.600125379628223 6.2838961122822035
Os 5.857630175259511 5.5357230149785766 2.159491324703246
Os 6.3196988665290155 6.578258798643066 4.458775749712153
