10
Energy = -77.49107365 eV
Os 4.924578738672989 6.12710969683212 7.819344835653464
Os 6.159945233281322 8.06391236557462 7.736630526984778
Os 6.169718521503111 10.327694965825764 7.324977385272766
Os 8.05992577695864 9.021074506379444 6.302840005918757
Os 7.247038593172179 6.276215998428232 9.083247377320887
Os 9.130576528830662 7.204481467597674 7.7649234681018555
Os 10.333237952926568 9.133327750802335 7.365494493771304
Os 8.43223698124634 10.37883564106048 8.180151168555142
Os 6.918822855348788 5.084869063955016 7.093825698829384
Os 9.152059048592841 4.910618701652286 7.856705414976174
