10
Energy = -80.14624987 eV
Os 6.9433652513038355 8.97549810346054 6.567864689443559
Os 5.84924833388693 7.574526628357698 4.849879525780146
Os 8.27555154595656 7.144235853770023 7.049502489341551
Os 5.889376109275239 5.493055629600877 3.5488568585247444
Os 4.994050364516133 7.604807682960663 7.191129602746986
Os 5.088340776700198 5.468852072083016 5.92456410250574
Os 7.538320959929721 5.619226466614739 5.199227060033263
Os 8.491587990304414 4.6813095557210165 7.166208367880657
Os 6.5112273818256385 5.661616168261911 8.039498871981893
Os 4.188627169653888 5.550458265372308 8.263640855277734
