14
Energy = -116.00014542 eV
Os 8.274510085397836 5.827600277006173 6.127033891283423
Os 7.020751885360628 8.030667657471286 5.157264416936589
Os 5.928276953743797 6.26968481470294 6.676212168328206
Os 8.940576853008631 8.110153188259321 6.712083867518621
Os 5.124317715212164 4.866957350130094 8.512178580764544
Os 9.858313087984664 6.431723688899491 8.275730370029143
Os 7.532374740309119 5.373020819035662 8.424433815576199
Os 5.783055536957135 7.09153886137053 9.075776147447932
Os 9.995828755604096 8.91374201100758 8.941471418104696
Os 5.556492888046818 8.768837958965191 6.986330200469605
Os 8.305902312847856 7.2329814955654035 9.991067245437721
Os 7.538030567480525 10.283511281001632 6.275030992000096
Os 7.421242064414529 8.935218064182349 8.517508951554738
Os 9.754264258087488 10.522192767243784 7.170606381252986
