13
Energy = -106.6367259 eV
Os 9.549597816265196 7.090472359520693 6.328473214289865
Os 7.926411472132171 5.192584383415192 6.368971092402294
Os 8.368012818968708 9.228935583472264 6.685967351296154
Os 7.38303237923655 7.37719618678158 5.181749537891413
Os 7.315182495644233 7.271139346311207 7.759765362547334
Os 6.516515112919801 3.185524783210997 6.2549524325965535
Os 6.442484103214353 4.779955127274353 8.274528631619576
Os 5.796352487189731 5.382360068742443 5.02998145139787
Os 5.866080875865608 8.85780216775731 6.453887602098009
Os 4.710375809654672 7.670367948811128 4.707697009056178
Os 5.020397910195244 6.476333236144127 7.161579978876774
Os 4.378338467673493 4.118129611633742 6.823413601691969
Os 3.25155823965937 5.878584382573851 5.408513016894571
