10
Energy = -79.46639428 eV
Os 8.677354449994334 5.129242757781566 5.910618566442007
Os 8.841656236699897 7.642491954403596 6.381942916831488
Os 7.319265617683832 6.76097821794611 4.546343300679483
Os 6.4150715416739095 7.882900223795668 6.539686959980238
Os 7.556146893962383 8.508508031828798 8.63833379754553
Os 7.818518437417399 6.1173531505591106 7.954491626485007
Os 6.236972503254692 5.2811676262772105 6.118753697972814
Os 5.76960146588405 7.029932938461756 9.18374316325331
Os 4.36891625633675 6.318161244526864 7.364313107018302
Os 4.703187530395804 6.965125926504451 5.043993254566835
