14
Energy = -116.78624921 eV
Os 5.837338607659036 5.893966483725592 9.602762794791918
Os 9.917598619070038 8.604145439681036 7.757739070769402
Os 6.156333513000003 5.403958950250354 6.292728542412139
Os 7.868772302303988 9.088564375925447 4.979422704736292
Os 10.106394091108791 8.125755217074836 5.346399799128996
Os 9.585310770047139 10.414408249891597 6.1364322808401
Os 7.962244824634822 7.401336662984809 9.001802987747427
Os 8.202323732640865 7.05586047437921 6.541672864725932
Os 7.623245941316771 9.41365039045015 7.410381058288925
Os 4.436135621450899 6.242871662186559 7.695506166357842
Os 5.374757047201115 3.86858638511988 8.068652671314942
Os 5.649714705120001 8.244384838054618 8.697104718357812
Os 5.874009278776969 7.917488164827618 6.269667101269234
Os 7.556958445424413 5.063823983949292 8.206004567797002
