13
Energy = -106.20176965 eV
Os 3.595376566662907 5.0499686011819 5.118227772959869
Os 6.066697405499177 5.100612774181293 5.053458234988193
Os 4.889085434323807 5.068348064797964 7.3592359485123975
Os 7.110644133562278 5.565364695324033 2.851481802163494
Os 7.419310451012105 5.072782001024214 7.170529142605636
Os 6.273610279478265 5.114259773212397 9.439454845146251
Os 4.720987078688988 6.275108137552734 3.2275807750981054
Os 4.607706031101968 7.157897411853132 5.9962707290560635
Os 5.2951876195917515 7.256322449215087 8.45653780815106
Os 6.507984250020156 7.525068115114395 4.293263727724976
Os 7.032994912068959 7.516923791405142 6.759166251700673
Os 7.781245445313551 6.899732527154434 9.015393169851961
Os 8.412446636245035 6.110887924509228 4.972675966739099
