15
Energy = -129.97580736 eV
Os 8.469386360543371 4.5664583772317195 6.09557635093965
Os 5.5404809546918825 8.408470008423894 5.031461298473653
Os 7.488912181595956 5.743411478732293 4.083775848864527
Os 4.537809479903875 4.60572888743454 8.037149672439924
Os 5.035122561314769 6.366735438626745 4.054932796465206
Os 7.993183696589895 7.795970908706047 5.068725146579186
Os 6.013436573890153 5.157685915309042 6.061449248421772
Os 8.963091864181626 6.579713231211168 7.064085539556579
Os 5.028417480945243 6.609311894529392 8.997625546807429
Os 3.566554828199656 5.8046647867767875 6.033074127005348
Os 7.011729357385248 3.9822501022071353 8.0675157455437
Os 6.518863782403406 7.210156098278629 7.046764679028777
Os 6.748453291933844 7.84891284803377 2.8144758798970533
Os 4.063945219847767 7.814836479228866 6.993913071514499
Os 7.501533982544637 5.986615161241331 9.030396664434207
