15
Energy = -125.96813283 eV
Os 8.293181956743958 5.0714917296841735 7.760009223490172
Os 8.524945200151933 5.872018109455106 5.069826668552924
Os 6.149142622557587 4.175687988619569 3.704527368086124
Os 5.743774294688546 5.352646717058121 8.396095327834503
Os 7.207510519695654 7.126051503615607 9.062143621430833
Os 8.699684181702354 7.3121015093225 6.938868049894863
Os 7.8941257380570535 5.513821030990112 2.818985374294321
Os 6.163233218418097 6.646466945994577 4.2692071423685105
Os 6.490836783656805 4.86989468567291 6.06294996238157
Os 5.496839574924042 8.743685550632799 8.820912563014534
Os 4.058492850599959 7.061662448321605 7.998899146667654
Os 6.243070488248662 7.587857682163782 6.70745504748169
Os 4.023287703713429 5.112919193049703 6.263566590471467
Os 4.064661077293642 5.367120919963292 3.8278273342564604
Os 4.073151889299383 7.378956471155767 5.415154374691833
