10
Energy = -82.64957174 eV
Os 7.054673489583398 6.391043393580573 7.079747670226023
Os 9.436803526656321 6.39103265081119 7.079679607971689
Os 6.980958462716385 8.780123243556902 7.106680468908246
Os 9.510589765902232 8.780106702425545 7.106577063343797
Os 8.245830553457868 10.886951624647157 7.100991030308031
Os 7.054784498282235 6.3909519634950325 9.41177817228583
Os 9.436915122911014 6.390925266549914 9.411708945043422
Os 6.981034208306972 8.780023940652212 9.385079671921769
Os 9.510670818725364 8.780000836543449 9.384976504809247
Os 8.245830553457864 10.886838430471974 9.390870865182183
