11
Energy = -88.75285516 eV
Os 6.4342227655685225 5.1157557009819685 3.3282567162231698
Os 4.323756933339202 5.67241193763397 2.042168318085455
Os 4.448950234040065 3.718924381184004 3.6391919134898467
Os 5.165407477397709 7.006143882879564 4.02570245537501
Os 3.1732319446942108 5.626631742756127 4.289012541562869
Os 5.971054473892985 3.967509146857802 5.617527229148982
Os 7.045588849249829 6.221979912321753 5.529090298084102
Os 4.6837474974664755 5.953822655919619 6.369590589422588
Os 3.489559029637968 3.775195330830225 5.994553741556358
Os 6.864621979531646 5.606059029738707 7.858248886850558
Os 5.086360544870085 4.0220680085855305 7.9931590398897505
