14
Energy = -115.68459173 eV
Os 4.734859218523535 6.089743985095199 8.060910965515287
Os 5.777071915003771 8.373441274522612 7.906004752949776
Os 7.558997668391398 4.359731001968267 6.604600712776499
Os 5.6865016686971 3.7837956047678873 8.076160762561175
Os 7.020416035800277 6.850069445560147 6.46250782375548
Os 7.878150223152093 6.4607780978876805 4.17062112552915
Os 6.044757909708885 2.5965786962668864 5.625943218028472
Os 6.929879020878275 4.253955476357022 4.103431498336501
Os 4.557845413029017 7.52868008620432 5.842971131223475
Os 7.150905415016823 5.7276608608816595 8.670786043070374
Os 5.298444734358454 9.987422364933574 6.260613753213305
Os 5.2051496795667305 4.930489065803199 5.852479156996091
Os 6.430233291189862 8.594750505764475 4.710886869587557
Os 5.456632282737748 6.425625399315877 3.7620053824568678
