10
Energy = -82.6492069 eV
Os 5.302985027080952 4.640741436204721 5.3242750014621985
Os 7.685572202793299 4.640843655231399 5.324544147942593
Os 5.226983602419628 7.0283030319639135 5.361381076368663
Os 7.761256070397533 7.028310927644123 5.36179447300535
Os 6.493973795101472 9.130510728507687 5.342243364747023
Os 5.303450418891349 4.637024864576075 7.657163436833282
Os 7.684041268643895 4.63659008577415 7.657433168220879
Os 5.230723439691719 7.0294466005014895 7.639669061329458
Os 7.757303549625638 7.029068256186414 7.64007822470065
Os 6.49458368565772 9.140033473713483 7.632291105693476
