15
Energy = -125.93326293 eV
Os 7.333881108921173 8.143317920965995 7.843183114211474
Os 6.1056452954362745 8.064696031495354 9.833482854213907
Os 9.45801456411316 7.5282318564139965 6.250849778484283
Os 6.631692584491275 3.766753598544475 8.25690453981639
Os 7.69012688848883 5.942929299329036 5.042313637434584
Os 5.833977252385088 5.29250414324118 6.547046848181021
Os 9.894311878765427 5.2494181214858635 5.75900206345977
Os 4.853033082220691 7.3337897245211785 7.745122541165595
Os 5.53999060127884 5.315126934466178 4.135093580740917
Os 6.260770704324092 5.786539881917002 9.306653593956407
Os 8.744021220660208 9.769786172471877 6.722063714668057
Os 3.309251678230118 8.357508235002738 6.461648830919641
Os 5.0598513560773295 7.446055763986687 5.169531762178721
Os 8.152215826828304 5.754802661345489 7.570741476785271
Os 7.251114642083055 8.422938199429142 5.302739753943051
