14
Energy = -116.40102252 eV
Os 6.482504931343371 8.443017090980517 7.02642374623829
Os 5.5328274724466 8.293364938481266 9.313006576730022
Os 8.437498593318836 7.748828323456185 5.553588887604663
Os 4.956976577699211 5.952673463295062 9.24153934499941
Os 6.519424760447645 4.354283954225653 4.832843752972891
Os 5.7218836613198 5.2632139797285555 6.982125782159615
Os 8.018474870751318 5.995173351956012 3.8540962217550407
Os 9.594763159367844 7.3353611624584225 7.721208875689282
Os 8.19748437597777 5.3889726273324 6.3972540128182285
Os 6.064534245546071 6.9264748734857555 5.120852296359598
Os 7.375656941145751 6.554107580312896 8.42492167471403
Os 4.311915699097621 7.303032582979287 7.20647343664916
Os 8.014120902901862 8.804936402828414 9.230554916630489
Os 8.790159178960257 9.65478532850578 7.11333606228022
