15
Energy = -125.52530827 eV
Os 4.070563723721013 4.884986345863131 2.4241972321203624
Os 5.115028259617716 7.117929236582282 3.2920754891690898
Os 8.362024456087473 5.015436277086593 4.647543442917635
Os 2.7097595655449584 6.288077195011022 3.9267372826132085
Os 5.93829240074094 4.871395787741138 3.9738999326515927
Os 6.9798434617067615 7.133386207687389 4.945432470179458
Os 2.4738148506797124 3.797006734598563 4.025048475716334
Os 4.669947296732128 2.7988739272939216 4.220865844973877
Os 4.4832115910062775 6.391319200313588 5.580312994106849
Os 4.299138543094517 2.7449022524416264 6.635954750470621
Os 6.610167576248474 3.5604248214195606 5.955697633909686
Os 7.613493692737161 5.682900552746564 6.8748501677216085
Os 2.8629457566956686 4.685305437600619 6.242857993255121
Os 6.016243511605626 7.494946286530531 7.259881188345037
Os 5.252197588940688 4.989782012242018 7.4513173770083645
