14
Energy = -116.80483652 eV
Os 4.793796999109405 7.949492084829003 5.034254393743182
Os 6.023939210043424 8.712138903305872 7.10661789696766
Os 7.503351100433486 8.439541746917207 5.195541024160875
Os 3.1547944102917778 6.115447489729325 5.130611040762996
Os 6.498007167246441 6.175731886024827 4.930339503753961
Os 8.930469119939788 6.218787985734995 5.231615358358417
Os 4.857598210116639 4.341045669389713 4.991583346178488
Os 6.113667390196118 3.5713127946288394 7.042059427244678
Os 7.577658267794328 3.941256688479004 5.136259497350796
Os 3.939311896195372 4.853501682341396 7.1791640397422
Os 3.897698387910616 7.352576965606413 7.209789515288854
Os 8.317963533967808 7.465872293972662 7.310874638482098
Os 8.363288139056655 4.890485165524131 7.271346715816956
Os 6.194776228341952 6.139128647800408 7.396263606432025
