15
Energy = -125.78000549 eV
Os 2.766929871356031 8.409528755395998 7.486971782672587
Os 3.7986574229030405 7.351152764835083 5.695071043317586
Os 5.400724067451702 7.475505625140102 3.7707316892631146
Os 4.6748401743821315 7.238767320971046 8.10673802586147
Os 3.8817164429414985 4.998315203379192 5.64867687832116
Os 6.363903946457423 7.422419521408009 6.134889467239492
Os 7.893167413744003 7.155478825845867 4.153291930248716
Os 8.799585775346257 7.03179284672859 6.6400193280466215
Os 6.166143703869826 5.314631019300977 4.738916748710978
Os 7.14363376631641 7.241538548685617 8.556558716883806
Os 4.699973591960702 4.893990085238583 7.891431949519116
Os 9.556221311103037 5.565752246771307 4.88008087556355
Os 7.041754798074928 5.195868533618292 7.140969837240315
Os 5.887791836618611 3.2266904852607534 6.09931769361024
Os 8.121069955069583 3.7730913412186013 5.313051431486147
