11
Energy = -88.85561863 eV
Os 8.464738837048412 7.139944783569517 6.95916319102401
Os 4.530195796249823 6.172531514844554 5.333134744495598
Os 4.491432623817138 8.580289588945027 5.832962504660205
Os 5.350595682494233 4.374328446733178 6.943220888806851
Os 6.673639067228352 4.9221096333889385 4.840822543216775
Os 7.799856519515481 4.828236184764443 6.962690405536454
Os 8.866399561693244 6.031279185981836 4.802531441314933
Os 6.8943808296029685 6.285351827191393 8.768895499055233
Os 6.327462094163055 8.398462999896031 7.458693400808487
Os 4.681171917897633 6.6612424281649485 7.680520654988313
Os 6.706265800623623 7.392361914158004 5.203503456426384
