13
Energy = -108.58623794 eV
Os 5.514623869507983 9.009059161720652 7.1083464244423835
Os 5.737456172409989 6.46539773284626 7.267939877006864
Os 7.997704212911343 5.41386307872159 6.472305177624034
Os 4.606016905121192 4.982440174853048 5.518035055993958
Os 7.445745892311778 5.443602802006035 8.874672485156925
Os 7.139023557601377 7.910924735671498 8.8451632699573
Os 6.369046873408403 6.5136625223180085 4.729236516251639
Os 6.218993843155864 9.00221446216995 4.668987362815495
Os 6.146837948313931 3.9423091816786013 7.167845464790177
Os 7.672461849205306 8.020452366753238 6.441271804672499
Os 4.279225096316659 7.580913406048858 5.48606222690004
Os 6.839011545303646 4.067458546644213 4.724850013330029
Os 9.305941864159301 6.919791458294578 7.96737394600095
