15
Energy = -125.08605575 eV
Os 3.2659274525161157 4.873774940260283 3.5329431638813777
Os 1.8944711437959652 6.486695905874982 4.84137949419151
Os 6.809694776711322 4.448832626319672 6.360206394188723
Os 4.401836953553553 2.948431159256484 4.71866513994077
Os 4.6600412932583435 3.52450052451585 7.098242852154254
Os 3.9500810426481534 5.519429307182369 5.875901576972517
Os 6.213432505264983 6.79425410465461 5.856863852035085
Os 4.936646228654842 5.745021780814469 1.7873762590882196
Os 6.939377125477421 2.1855519492372966 7.264350593107207
Os 5.8066310536028 5.034404669245416 4.091124554253643
Os 5.700531581362357 7.4128170196761145 3.4555399092644237
Os 6.8091946319925905 2.581038774877724 4.766792685517683
Os 3.9319218701984813 7.896471862092372 5.1917476928106145
Os 3.2577591677203643 7.217116156389744 2.8429113596830415
Os 5.191270988110766 1.1004770344700665 6.084772287778226
