12
Energy = -98.04334326 eV
Os 4.893792156969647 6.994540727569101 2.5265363614731515
Os 4.549526171739493 4.738456166815736 2.991023556042747
Os 6.808829535952131 6.938163300146967 3.8959765160232496
Os 4.592588451372658 6.320341263883259 5.032072109035419
Os 2.864396351244502 4.366016071864072 4.625656731092891
Os 6.453911958985817 4.660791685455939 4.476636812535165
Os 7.289031540860967 5.01801006929899 6.853129322168399
Os 4.59625337406862 3.848073431520711 6.085144289092954
Os 6.430665850474399 7.520925443113225 6.271003321192421
Os 5.026235606732762 5.87941279031156 7.484753790860509
Os 5.928392979619381 3.551865989289127 8.038072849093664
Os 7.2387278727619355 6.835754911514538 8.392346192172353
