15
Energy = -126.08007364 eV
Os 4.472967089812699 5.563988921195587 8.024661419276192
Os 6.272142886101265 7.819169141718638 4.417599970914147
Os 6.630410281933856 5.7291824290033535 9.21929950585802
Os 8.494199966536744 8.160842270538264 5.327511680076637
Os 8.71251959741352 5.728247298419425 5.489251217166924
Os 6.609859752588084 5.423777994954421 4.275202419841313
Os 8.715389917098593 4.797559280158274 7.902863290915957
Os 6.269434213470475 8.168029820013311 9.02779884248162
Os 8.01297916402734 7.111560834569961 7.537090469531315
Os 6.578734989620201 5.030256970991541 6.736717994772264
Os 6.909906680199945 9.400219924377257 6.88470673063103
Os 4.392504679108099 5.750479531603894 5.478166443733427
Os 5.364489866248512 7.564659318777158 6.720376867197948
Os 8.322914722580363 6.876865023087624 3.2027478492837687
Os 4.384417855875469 7.018032907103951 9.898876960935024
