12
Energy = -97.54288983 eV
Os 8.420862288315021 7.958792994074141 5.21635976223418
Os 6.014054287684206 4.37436109065484 5.205743372311323
Os 9.141747300958045 7.7218304221592495 7.450840429006957
Os 6.898128603302157 8.988387382863932 7.071357961993153
Os 7.043669167753352 7.021261511906916 8.544289522780073
Os 4.213104700839824 3.3824450745112564 6.425253977564747
Os 4.7497773208981435 7.450862056818744 7.546885469944173
Os 7.311368679540193 5.959562472045823 3.9317264854426495
Os 5.519547917150397 5.093943026551962 7.684524758307318
Os 3.985533819028062 5.803741255523804 5.876047351031619
Os 7.607888189428328 5.7688233116773615 6.510476670044595
Os 6.005391619760074 7.385108967025233 5.451165242343286
