55
Energy = -522.35383541 eV
Os 7.652697985880489 7.981994695824202 7.436858439397579
Os 3.3301491210934757 3.900660158448204 6.531981994995567
Os 7.632537413569253 3.8626455538941222 9.732251776754701
Os 3.228629576237308 7.850505827153079 8.852853104973052
Os 7.801391297138311 6.558389701088556 5.139208932057389
Os 7.58315291256301 6.564862529076652 9.835859695782757
Os 7.592096960416705 10.498866184664603 7.48546374180534
Os 7.644066855001128 9.211342169489736 5.13753885713475
Os 9.67091289110461 10.484518947858467 8.996840806359579
Os 7.660008746467169 5.140633421534746 7.441076464981951
Os 7.656745167611511 3.9042937537440388 5.145512247136137
Os 5.298972065674688 7.841027570299901 10.490542980622479
Os 3.2350162023296902 5.254708793931808 8.856690339490848
Os 9.830606753070326 7.86071557214635 4.458445512459162
Os 3.2159337309994895 6.555922846472668 11.030249620594992
Os 7.611368900928429 2.623959844665593 7.497282630688759
Os 9.836834553516752 5.263859568778922 4.4622517076250166
Os 9.72366137002866 5.183330344829178 9.086695657975508
Os 5.2639118787404655 6.556926062123954 8.203922332353649
Os 3.373405459028407 7.950283201898505 4.262371043551994
Os 9.689755679822117 2.6529399019858335 9.008825552570256
Os 5.402511175708927 9.196005524637995 8.219196536054714
Os 3.3803198048378085 5.1419171186705075 4.266446882012705
Os 7.619091284569693 9.267013138737088 9.724201862756685
Os 5.415571561404369 3.9183061131794026 8.22719603931316
Os 5.533830676443973 6.550276578354468 3.475591332556439
Os 9.716848322809762 7.954404633399133 9.08248441997516
Os 9.797602616038898 6.565592625423602 6.8172320189695705
Os 9.913461251940312 6.559259458180731 2.262056182263832
Os 3.430309564656273 6.54289142112555 2.061243228949493
Os 9.75453393847728 9.20958319880454 6.799221855177671
Os 5.47899358474142 9.24162523894328 3.6006416774904335
Os 3.527509271825105 9.035094162664747 1.9158301755521994
Os 9.767579745076752 3.9218095164410265 6.807256307247856
Os 3.40002555007103 10.474271613823632 4.309201770794401
Os 3.5396629669796087 4.051084014839171 1.923271426302946
Os 5.417061476859358 7.992305600280557 5.891855645765053
Os 5.492488656623209 3.8593307162650827 3.608820515453191
Os 5.686906498915589 7.928273333190966 1.3446492845651
Os 5.456257412629315 10.501503460521477 5.848006423978617
Os 3.4196054218432725 2.6183615998267347 4.320950423954118
Os 5.693436564365844 5.166781391783243 1.348796548200769
Os 5.424140455882384 5.115199573632012 5.896220297991643
Os 7.811498030216263 7.824978084856231 2.8404800658698863
Os 7.64486087529745 6.551125809281355 0.611241030912592
Os 5.475404676442271 2.606031309501521 5.859955493318188
Os 7.817685075342211 5.284779523758759 2.8441571279119793
Os 9.645939257719565 6.57195538977738 11.270206486725584
Os 3.272970251135085 6.549148218970895 6.519686378163272
Os 5.304947166372832 5.27992999426769 10.494461712630148
Os 9.45545242284975 9.066269495582455 11.437766561048704
Os 3.317128274817712 9.198293092717575 6.524130936586126
Os 7.319340834895244 7.857924864893792 11.981778008919122
Os 9.467491803038858 4.077347521615464 11.445349039444759
Os 7.325574906823644 5.27683691101532 11.985589762705121
