55
Energy = -515.3359756 eV
Os 6.959328092905876 6.959328092905876 6.959328092905876
Os 6.959328092905876 8.339307594394022 9.163661759839098
Os 6.959328092905876 8.339307594394022 4.754994425972665
Os 6.959328092905876 5.579348591417727 9.163661759839098
Os 6.959328092905876 5.579348591417727 4.754994425972665
Os 8.339307594394022 9.163661759839098 6.959328092905876
Os 5.579348591417727 9.163661759839098 6.959328092905876
Os 8.339307594394022 4.754994425972665 6.959328092905876
Os 5.579348591417727 4.754994425972665 6.959328092905876
Os 9.163661759839098 6.959328092905876 8.339307594394022
Os 9.163661759839098 6.959328092905876 5.579348591417727
Os 4.754994425972665 6.959328092905876 8.339307594394022
Os 4.754994425972665 6.959328092905876 5.579348591417727
Os 2.6038018078232277 6.959328092905876 4.336523164010352
Os 6.959328092905876 9.582133021801402 11.314854377988526
Os 6.959328092905876 9.582133021801402 2.6038018078232277
Os 6.959328092905876 4.336523164010352 11.314854377988526
Os 6.959328092905876 4.336523164010352 2.6038018078232277
Os 9.582133021801402 11.314854377988526 6.959328092905876
Os 4.336523164010352 11.314854377988526 6.959328092905876
Os 9.582133021801402 2.6038018078232277 6.959328092905876
Os 4.336523164010352 2.6038018078232277 6.959328092905876
Os 11.314854377988526 6.959328092905876 9.582133021801402
Os 11.314854377988526 6.959328092905876 4.336523164010352
Os 2.6038018078232277 6.959328092905876 9.582133021801402
Os 6.959328092905876 11.333175006628792 6.959328092905876
Os 6.959328092905876 2.585481179182805 6.959328092905876
Os 2.585481179182805 6.959328092905876 6.959328092905876
Os 11.333175006628792 6.959328092905876 6.959328092905876
Os 6.959328092905876 6.959328092905876 2.585481179182805
Os 6.959328092905876 6.959328092905876 11.333175006628792
Os 8.385114480516187 3.415337709460722 9.161875358410374
Os 5.533541705295564 3.415337709460722 9.161875358410374
Os 8.385114480516187 3.415337709460722 4.756780827401382
Os 5.533541705295564 3.415337709460722 4.756780827401382
Os 10.503318476351026 4.756780827401382 5.533541705295564
Os 10.503318476351026 4.756780827401382 8.385114480516187
Os 3.415337709460722 4.756780827401382 5.533541705295564
Os 3.415337709460722 4.756780827401382 8.385114480516187
Os 8.385114480516187 10.503318476351026 4.756780827401382
Os 8.385114480516187 10.503318476351026 9.161875358410374
Os 5.533541705295564 10.503318476351026 4.756780827401382
Os 5.533541705295564 10.503318476351026 9.161875358410374
Os 4.756780827401382 8.385114480516187 3.415337709460722
Os 9.161875358410374 8.385114480516187 3.415337709460722
Os 4.756780827401382 5.533541705295564 3.415337709460722
Os 9.161875358410374 5.533541705295564 3.415337709460722
Os 3.415337709460722 9.161875358410374 8.385114480516187
Os 3.415337709460722 9.161875358410374 5.533541705295564
Os 4.756780827401382 5.533541705295564 10.503318476351026
Os 9.161875358410374 5.533541705295564 10.503318476351026
Os 9.161875358410374 8.385114480516187 10.503318476351026
Os 4.756780827401382 8.385114480516187 10.503318476351026
Os 10.503318476351026 9.161875358410374 5.533541705295564
Os 10.503318476351026 9.161875358410374 8.385114480516187
