5
Energy = -33.99666634 eV
Os 8.915176998849315 7.839875514013729 7.474965919803074
Os 7.776937258803952 6.260617953890645 5.998311187849734
Os 7.022192369866367 6.3914090732271935 8.30869882872869
Os 7.2022644743275475 8.718769498539478 9.007711692673313
Os 6.553812996296812 8.275638665855256 6.698729266650518
