55
Energy = -513.32134855 eV
Os 5.649839287071191 10.58062971553482 9.666423979721303
Os 7.198636745752039 10.763792456401927 7.428440197295794
Os 7.878446084211063 9.376790739788749 9.449854068047756
Os 8.210765132350975 7.164426466453509 10.853745505070037
Os 5.575216177701615 8.158345710063383 10.150718061271716
Os 9.525041453645757 9.588896580567038 7.375565540209296
Os 9.688044065916651 7.4687937642828235 8.90336602861456
Os 3.3636649759601562 8.84057431679858 9.14739944690088
Os 4.607048001655458 10.485569958524637 7.481318360432447
Os 5.8376345142611985 10.61939110341904 5.20221472903905
Os 6.094659007163868 8.564012446670516 6.649082829489598
Os 8.57438197293624 10.905602493051735 5.362768607107605
Os 6.230619110764582 5.655488083840571 10.455968562187566
Os 11.485597104365372 7.9459997835647584 7.060335680516536
Os 7.21082035529298 7.036020210060483 8.5578628891396
Os 3.0906527201087757 8.616449063139122 6.639607082882971
Os 1.6923745257134413 7.154764112033537 8.166051105792315
Os 8.74490500317618 5.0757620560941445 9.065985113766407
Os 3.797164751750618 6.238077703474252 10.182636984459913
Os 10.143435463683423 8.777468035723677 5.071395468668513
Os 8.390813938934967 7.4233650201490535 6.278720009286002
Os 3.4196594308723713 10.335867126827486 4.804580344481327
Os 10.20357787867167 5.737340477108448 6.978305032626343
Os 7.630912418200834 8.858497823662352 4.337362080250535
Os 4.671260033294774 6.982840065351487 7.96505172460428
Os 5.589515198511016 7.094686497857458 4.767160337027843
Os 5.299998161077257 9.048421335412485 3.2086896433660868
Os 3.170319603736501 7.997544574740958 4.180726973054018
Os 4.509179524184291 3.7495656642903787 9.391429176291663
Os 2.868733263378359 5.022472383608356 8.076429885278827
Os 2.278239518530369 6.274906202073337 5.802219251394041
Os 6.443368956836146 4.558766313365559 8.132986525271798
Os 7.408139738104776 5.151140265515479 5.424540487866593
Os 4.662525880782334 5.207394099921671 6.154400997917791
Os 11.40218162631421 6.486588610088881 4.94012189166048
Os 9.085107319321056 6.651721040342449 3.922477418191487
Os 9.758950990043914 4.349416637991652 4.846464531633318
Os 3.633160767597025 2.669994048067651 6.996727509599355
Os 8.561493647763756 3.525635009382618 7.021292388217265
Os 5.78418840988446 1.8461885678721046 8.341815106507365
Os 1.9057442868911567 5.765191470015566 3.402487839980931
Os 6.801007847853613 7.046086146584663 2.5370984049058714
Os 4.1213410897710325 6.326365454597176 2.493830798318225
Os 5.5747239200508165 4.6067463873151695 3.7132165888267186
Os 2.804554590009764 3.874742234279382 5.028366637714657
Os 5.9934464803242875 2.994558734309105 6.1148495742629265
Os 7.956687819446047 4.623990734765456 2.8741327250015267
Os 7.724099175031028 1.2227923887097585 6.411456798991097
Os 5.225638829989202 0.6407552458564877 6.241165399772475
Os 7.681589620164326 2.5269953708899195 4.213342104688377
Os 5.834035470577421 5.028600825698806 1.2273848172809625
Os 3.448457513077963 3.830073707731081 2.5982986394172425
Os 4.63753402314632 2.110527157081674 4.099508744825733
Os 6.10613317682405 2.6779446226917747 2.1637269042362184
Os 6.471990890882557 0.3926804499194551 4.0961499601990115
