5
Energy = -33.84075767 eV
Os 6.284499615583551 6.354263845437282 8.728384123457493
Os 5.790044947029819 6.8491073660943895 4.689854306607315
Os 6.460615296908305 5.2771199907643265 6.496832619788407
Os 6.492051053602064 4.746394534568043 4.065965267596335
Os 5.8567556510120955 7.651971900665373 6.8876385163467315
