5
Energy = -34.23655609 eV
Os 8.061762179211962 6.00229161787221 6.822767427345071
Os 7.621714432618952 8.084293140801233 5.518454473463925
Os 5.832088631191334 6.618828851354675 6.35208885724282
Os 7.235226545753327 8.312663671068373 7.838842241522575
Os 6.5206691122929525 6.247186128610987 8.715055278835845
