5
Energy = -35.39586547 eV
Os 5.138672700585483 5.946589934769675 5.890198987550488
Os 6.054060913435816 8.084139008612327 6.91071714215162
Os 7.47577678136915 5.08157398600276 6.301495109521245
Os 7.2732382323147045 7.021900150685228 5.019774797675436
Os 6.301041968419178 6.108587516054337 8.12060455922566
