5
Energy = -34.12448734 eV
Os 7.086614131150497 7.925143322077257 5.92949095983606
Os 5.562256121342289 6.114187842486832 6.714997599816331
Os 7.804451513273789 6.52294415113527 7.732031320606783
Os 5.695514787292642 8.157559886258046 7.854533909650789
Os 7.518568016014885 5.301376853784643 5.703189860738555
