5
Energy = -34.67562289 eV
Os 8.026558349682563 5.984989586938484 6.768820405547159
Os 5.921338832458051 5.592444123520943 7.721412048678066
Os 7.096806935796138 8.135201537134972 6.5776139467900245
Os 4.961601215481691 7.215375151867447 6.229582562512112
Os 6.295614564259394 5.627460596817187 5.139795597176161
