55
Energy = -472.90215341 eV
Os 0.7356723777587972 4.263847265488383 6.045284953526941
Os 6.442523487006771 9.499875436651694 8.070679264273636
Os 11.900389512604583 9.81746464184002 5.506242639411677
Os 4.230153528571675 8.011724831168287 9.046445856766232
Os 3.1670039564229944 10.051885976367748 3.481446836900644
Os 2.045566509780175 9.018757610958238 7.506376561904749
Os 12.142009530517116 6.368545147923381 0.7846993073044881
Os 7.02718060572832 4.679147130708437 8.567606696463024
Os 4.915992879794007 5.692082834152815 9.929674949817999
Os 11.613889977494894 4.23796378220884 1.385437312630146
Os 3.229668451775456 3.060998269219285 2.0198938028214366
Os 2.774862733624754 5.147720235315695 10.672649182924227
Os 1.8632504415085749 5.810188295458168 4.479602432076019
Os 11.727783908176418 1.7544374765247253 4.861723673394814
Os 5.492729025279294 3.1242406939876224 9.934488445575456
Os 4.131254779775319 4.811181906311453 5.3297073474446615
Os 9.211433060421806 6.259612862042912 8.680301351320571
Os 1.3255408196066367 6.628821413151174 6.828683237578892
Os 2.7496675539599678 2.9000782898178374 6.585960517953458
Os 2.130429611362048 4.668247855316857 8.275876965229507
Os 7.89834901735103 2.73498639706403 9.828234937004018
Os 11.754288630983549 6.552304898928768 3.0546467211472357
Os 3.072215864700603 2.4201047990676394 9.038965985718153
Os 2.8094841399852197 11.283843461709397 1.6563261087553296
Os 2.9778909037091017 7.566341664557016 2.7649806942967023
Os 6.740486712798453 7.0889952486616234 8.928570107898643
Os 5.793273086886666 6.217973949775286 6.706884263318329
Os 10.351678593635915 0.8029425677006035 0.9568215783751399
Os 10.823646542241702 3.5453509757960817 6.24689335542593
Os 3.5268344610170344 2.944619973028826 11.39990483275041
Os 9.367731464890934 3.811626300274843 8.172263720351117
Os 4.637080499344282 4.2443060127663115 7.806791299550211
Os 1.9575782622138298 7.05505979807543 9.314085404685624
Os 11.424388101596977 5.455245732898582 7.989147613368443
Os 11.499844362425241 5.84769434482091 5.591113696682876
Os 12.053821401690671 4.144263508057297 3.81661255079788
Os 12.95619035244414 7.818656462994841 4.61784743966502
Os 11.80432744066596 11.727628600927346 6.914119511287265
Os 4.810088001830473 7.038114260026029 4.589967075946789
Os 10.15067009399524 9.794482049332435 10.3323579257199
Os 10.823678625335212 9.843925735529297 7.900711163273
Os 8.519869993297343 8.919171704445432 8.872586181080084
Os 3.734519268211928 5.281992860647027 2.780762977485907
Os 10.651128790974438 2.0208807258812738 2.8461434821556604
Os 2.4143343487628735 3.3235294466969574 4.164681856197869
Os 11.042340847708395 7.694304352621796 9.351363748891407
Os 4.116137346036823 10.531134427088505 8.413205240081504
Os 2.380168226577105 9.495471571945796 10.0625015929436
Os 1.799827978062882 11.419269705730327 8.423543869341787
Os 0.8153377613128013 13.35353602193555 8.285439121126563
Os 9.963364843846053 3.020603492517969 0.35665165729260717
Os 4.668773083557555 8.583468253947311 6.691709907480762
Os 2.695163945584221 8.130458102895817 5.168077565324659
Os 12.026713771131725 7.891016042429026 7.034483319954517
Os 3.0767770800146708 10.58488119060301 5.92382875529603
