5
Energy = -33.88892328 eV
Os 9.435174476582626 8.93042178896952 8.011812036948237
Os 8.340437665330102 6.820122562879833 6.8937313426918045
Os 7.746736287227387 7.625044816717073 9.201135710434174
Os 7.154434172787592 8.974368908366094 7.1991630494998695
Os 6.1613224206861705 6.505016737787934 7.517243288988289
