55
Energy = -492.50140536 eV
Os 3.2899331803435103 2.2407759224094295 6.3228371613592405
Os 6.894294504578834 12.909131126135673 7.30615407589854
Os 8.312416328616253 3.008055327005144 3.6104878227217325
Os 8.425957304076535 12.909131126135676 9.82973034697772
Os 5.847961459731774 6.839514120035867 7.23502691755772
Os 4.6186949416005385 8.183598801457283 9.127175397113017
Os 8.52367743680176 8.239226214207587 8.698003755413394
Os 6.610359192274393 8.662874615511559 10.550003179547454
Os 9.150446329900086 1.374008685128185 5.366467970177405
Os 3.721512921257215 9.473361712029115 7.205464315929704
Os 10.669646016127311 5.418084367814423 6.414569763845689
Os 4.686114908837063 8.197166814055883 3.32938545880274
Os 5.992139334794222 4.169947551102001 10.679106345733627
Os 12.300287784162986 8.93135231165586 6.740265623689084
Os 1.9543568433782235 5.674231906058912 5.5009428194260375
Os 7.498062485062413 9.974482414508607 7.171116518779054
Os 6.923372863190994 7.184819260922701 3.7201052286777956
Os 3.8808777782612243 4.399353676585111 5.196136111856083
Os 10.243125093661606 7.75231938045242 7.098937964199751
Os 8.274991961690251 3.5649017263652265 6.167285800545141
Os 7.652192702062391 1.4843189984411376 7.503926311898337
Os 3.7006018897084334 10.409616502749643 4.530460421629707
Os 12.686539516552166 4.639179493209654 4.845645580228991
Os 6.944165052467151 3.739203130020207 8.432982186996753
Os 0.8061441802767095 7.437699936468883 4.291200230994544
Os 5.614780652642828 10.469886290991372 8.980501597503814
Os 4.580453246063755 2.9625415818577463 9.028043471497192
Os 5.755368192409021 2.780514467160418 6.195914346978242
Os 7.058033425293318 6.386768705343103 9.555226502460984
Os 5.154464038128175 0.7712098440067378 7.516321262809946
Os 5.1821163043901155 6.620718136786294 11.218076956126753
Os 8.015022930998303 10.616225471017243 9.552267491002295
Os 7.266735639254002 5.040862546520543 2.341302393470889
Os 12.352809162223933 6.904831196913603 5.610151792988679
Os 9.197387635530777 13.34441175196052 6.930397557116724
Os 10.515836785590453 3.5245235042227603 4.787718508892663
Os 2.8998115155617774 8.073720696854528 5.140281614088327
Os 6.501837424263401 5.343220422255361 5.4578724856888705
Os 4.061270286069973 10.452753542443899 2.1169715205985806
Os 2.228722640786479 9.115163550988788 2.9102817548014217
Os 4.528345062479195 5.450576415374007 9.09333524258411
Os 5.907287831096441 3.2572362953885823 3.724249669304774
Os 5.275633363137691 4.05175426341951 1.4719494764655128
Os 5.697265437690799 8.864026567864762 5.611206943925196
Os 6.932736404080211 12.354357519612188 8.012680381959674
Os 8.40146805963266 5.712021336853251 7.5053080202989175
Os 7.972311303807953 7.644143696850893 5.984090167322847
Os 5.447020053992672 11.286520118019366 6.303342497045389
Os 4.893491568871482 5.694289803228994 3.262209800504141
Os 4.461855308627008 12.765044325342926 1.8075281864874655
Os 5.214701325236004 12.16347965982359 3.880350326120104
Os 8.877171089268622 5.4683469804038225 4.454979971639911
Os 2.7713533253842257 4.396757316050003 7.604505762946189
Os 3.3321351564824484 6.846239086235267 7.296243825542647
Os 3.052056294464307 1.170192307441495 8.530626634699955
