5
Energy = -35.77872389 eV
Os 6.484213552983089 7.2776749020213805 7.225975989271721
Os 7.420850772524529 8.797997271386798 7.6368799208859
Os 8.223906624182394 6.44974177802664 7.636879920885899
Os 8.00543885678743 7.79931444640208 6.421646987383487
Os 7.6388921500657085 7.448572558705949 8.85191713811597
