6
Energy = -45.729138275
Os -0.011687499999999924 0.4656695000000001 0.046439499999999974
Os 2.3579715 0.5080225 0.03420749999999987
Os 1.2083375 0.21095450000000004 0.046209499999999994
Os -0.011845500000000004 0.46618650000000006 2.3234465
Os 2.3579955000000004 0.5080055 2.3356225
Os 1.2087515 0.21100249999999995 2.3235975
