6
Energy = -36.15587331 eV
Os 9.009110473365663 12.438122526664243 7.447746352473088
Os 9.416617194709398 10.767415117020564 8.700058910183703
Os 9.519374041367882 8.850123605558366 10.003865695696144
Os 9.592879449985801 6.828375895051488 11.212972671988782
Os 9.57338897310249 4.81121721932384 12.340611042788057
Os 9.162919900736904 2.9764830138928002 13.345703996654185
