6
Energy = -42.50464253 eV
Os 7.353303091513063 5.73815587008821 7.880024531551381
Os 8.687006403128116 5.872078784071812 5.730752206023673
Os 6.151535529650456 5.453043443318927 5.626263512488404
Os 6.8917760471789915 7.679398112964856 6.239132278675479
Os 5.109684559545459 6.550079118412832 7.68152636276784
Os 4.473331365067613 7.3536094234038645 5.45429070480196
