6
Energy = -45.02268984 eV
Os 8.089853455200311 7.03928584823219 5.676631554871065
Os 7.8564064253312615 5.923184516995236 7.838350731918472
Os 7.209399510088923 8.272649902719522 7.587020882561546
Os 5.505438947911152 6.543950749894416 7.915876960849513
Os 5.718384786654758 7.667097927603043 5.754434229120026
Os 6.377030211245328 5.329747870311692 5.978793191771347
