6
Energy = -43.57498621 eV
Os 3.3035177495268795 4.798232432318101 3.2843781766168454
Os 5.314765151968613 3.4739975387755933 3.2515650131102274
Os 4.186389329667452 3.888359777792689 5.47734036237701
Os 6.673447791769236 4.138468882351088 5.071976054256977
Os 3.4696179648478354 6.2883892541221735 5.127555500372422
Os 5.52552193628676 5.885812038707398 6.2604448173335605
