6
Energy = -43.3595236 eV
Os 7.584940249679619 6.000366966932101 4.502298860811089
Os 7.399404746187751 6.81569250668791 6.767270364903044
Os 6.631353507507453 4.492387635938584 6.196734591105591
Os 5.437055377389146 8.165644007030684 7.164909514458387
Os 5.4013428770010155 6.53210655983898 5.384229872620567
Os 5.341149886225219 5.789343885636618 7.780076996279311
