6
Energy = -44.27881553 eV
Os 6.563070803307933 5.4049601326846695 6.613103156712517
Os 7.883220073134285 5.7128706202589585 8.46903256593459
Os 8.025640351730845 6.968347525584957 5.663716032837117
Os 7.718487219242927 7.968566133390267 7.989165819410244
Os 6.482662801246429 8.652577975572784 5.927993133531648
Os 5.3314970444615915 7.266859992706951 7.319321275685313
