7
Energy = -52.21342038 eV
Os 7.329440608146903 7.884141266994504 6.062408319243766
Os 6.626744918845637 5.883483036791781 4.924183750429432
Os 8.526301033368492 6.029051594981309 6.857968273857678
Os 6.20452236877807 6.88900281205616 7.940791514983976
Os 5.013246930834405 7.961924372233644 5.713812550629131
Os 6.623178584570367 4.600798377842977 7.050778940980833
Os 4.651624564715967 5.710164204525801 6.405112266278106
