7
Energy = -52.12951049 eV
Os 4.336561413962024 5.217292593292228 6.783890952482045
Os 6.591351705315098 4.768371555184276 6.783890952482045
Os 8.881752585828506 4.744804487603523 6.783890952482045
Os 5.629436228638535 7.192833855227883 6.783890952482045
Os 8.006459162505513 6.957845324914911 6.783890952482045
Os 5.8646627951317 9.415618582639436 6.783890952482045
Os 8.17701270356728 9.1904701960864 6.783890952482045
