7
Energy = -52.50138067 eV
Os 6.079311539813874 7.320684993083617 6.180593075557553
Os 4.143544405134665 6.453228262156322 4.880158691861131
Os 8.231314608618924 6.707857278423377 5.083194061616782
Os 6.276971817245177 5.403230181655594 4.59986671943409
Os 6.012561660383252 6.50713580587988 8.524271761999973
Os 4.842782132219565 5.260602214820845 6.838626919550961
Os 7.491618124389297 5.425365551785351 6.971393057784509
