7
Energy = -51.08321158 eV
Os 6.5298983449216506 7.628734091578555 4.740517994055737
Os 4.9607910811388445 8.266695686107742 6.369335087423969
Os 7.760241663785211 5.730102067772121 4.1776108515775805
Os 5.636110278505007 5.888749603480545 6.142505256564915
Os 5.109215456319248 6.872195358494388 8.306354562675512
Os 7.897393134010326 5.055830165603355 6.385481268763465
Os 6.511793535232899 4.939272121760865 8.270129371504524
