7
Energy = -52.1344882 eV
Os 7.9586458756656615 8.089440079844355 10.299514474798817
Os 8.992151641940916 7.235151479907585 8.22120976910197
Os 7.3782367891779055 9.122655719724502 8.12468598090759
Os 6.5827564345091965 6.84146727095528 8.71496370586749
Os 9.702589418167957 9.520309602962024 8.877092869635852
Os 7.352990642046644 7.38132907699757 6.381343701832735
Os 9.296523696513102 9.050157713179138 6.537687128731582
