7
Energy = -48.65348331 eV
Os 7.592265105236597 5.667060616350363 8.694501300000002
Os 6.46614729220422 7.829222183234707 8.398998337502642
Os 5.340029479171841 5.667060616350363 8.694501300000002
Os 5.340029479171841 7.26523396805808 4.23779328440844
Os 6.46614729220422 6.46614729220422 6.46614729220422
Os 7.592265105236597 7.26523396805808 4.23779328440844
Os 6.46614729220422 5.103072401173729 4.533296246905794
