7
Energy = -50.87656556 eV
Os 8.597138007254769 7.587774366056269 9.050663385835124
Os 10.023188818229169 9.1517573480257 7.712377616280407
Os 8.290937805709286 7.9083936229652725 6.419699777286977
Os 7.483135608113192 9.62083864132759 8.245892583977493
Os 10.293972619805555 6.795797097291473 7.159194426959083
Os 6.230350350650456 7.429425216654636 7.754815162510647
Os 6.106193582736607 8.171997907843886 9.889311479238865
