7
Energy = -55.24889924 eV
Os 7.708685350695095 9.446111675371695 7.609338320543328
Os 6.205401627845185 7.981322733613051 6.811560671451131
Os 9.21841390209136 8.17961795647073 6.96839877886666
Os 7.708685350695097 6.746468593987645 6.333214576541457
Os 7.706077027544403 8.014958514292594 9.469882400099706
Os 6.588838656266197 6.617951013400561 8.22228164213704
Os 8.875567328929076 6.772499268797301 8.344253366294252
