7
Energy = -53.21417918 eV
Os 8.506468611538285 8.704595293322338 6.741463646529121
Os 7.653978308093092 6.818417986044246 8.080571629232816
Os 7.720446364658206 6.72942688136989 5.581273350759545
Os 5.2684635148946315 6.21755250478329 8.009648884165411
Os 6.034005568711418 8.112523437328745 6.707708871695921
Os 6.9380284697635295 4.7849289381978215 6.874436613086559
Os 5.360611725691002 6.106663268464109 5.491702107149681
