8
Energy = -61.80952819 eV
Os 5.462331326138854 7.497867941662744 8.50497058116891
Os 4.654414924246247 7.518604831287898 6.198205171978098
Os 6.672330092018535 6.547271825020476 5.080789065647916
Os 8.91646672659238 7.08746345336248 5.991592226258686
Os 8.002828539316852 4.841964244688195 6.292158850283095
Os 5.713693608197625 5.46595105857618 7.105515534374768
Os 6.914556746890634 8.409248108418177 6.709378946787616
Os 7.733685128590392 6.519782580829248 8.098884478576476
