8
Energy = -61.45843075 eV
Os 3.476785392747611 5.854349428597588 4.072606023389667
Os 5.719033404713203 7.118015964070267 4.511056667019751
Os 5.6964494818147475 4.629377947393462 4.383989733715352
Os 3.468884966698744 3.5109351487518037 3.967202036477968
Os 7.662230869746443 6.027472987649362 5.162801070632991
Os 4.387433370127276 3.400937193372653 6.096966302818177
Os 4.386476272427071 5.902260001805304 6.285569953926022
Os 6.475907092054976 4.82985217868937 6.793009062350266
