8
Energy = -62.06510175 eV
Os 7.466656309407665 8.465022521312411 11.251616944324319
Os 10.647514904542842 8.50493219253345 8.367306038448326
Os 11.272017676501324 10.785185094736237 9.289389101622263
Os 9.397675787936691 9.559135845822636 10.244807206843769
Os 9.279104490693065 10.454221688159906 7.916849042547937
Os 8.5277521039611 8.262494769923267 7.032986890866841
Os 8.73082533817076 7.326705448494327 9.360650059074656
Os 7.290908320323957 9.234139986118741 8.950965271549917
