8
Energy = -65.6593971406
Os 0.016804000000000107 0.006825000000000085 0.0013879999999999349
Os 0.002523000000000091 0.00756099999999987 2.350359
Os 2.3658069999999998 0.009471000000000037 0.016062999999999907
Os 2.351518 0.009870999999999967 2.3650379999999998
Os 0.014412000000000149 2.355946 8.58000000000088E-4
Os -4.299999999990109E-5 2.356411 2.349834
Os 2.363422 2.358343 0.015438000000000033
Os 2.348958 2.358974 2.364421
