8
Energy = -61.74466107 eV
Os 5.107029944175413 4.66376514671725 7.227354139723177
Os 7.516181125649759 6.17384023492266 3.907305439095508
Os 5.693590681879263 4.904566111687136 4.599862456326468
Os 7.173140843286024 5.873199502144999 6.4063331005667115
Os 6.427623626981302 5.706843489884241 8.833767735827958
Os 6.230995036234566 7.77231524525835 7.78483532679476
Os 4.924668385758548 6.757743855953172 5.994068969618561
Os 6.803198186804621 8.024154244201695 5.1229006628162335
