8
Energy = -61.04329286 eV
Os 7.17009287696077 7.52424770834928 6.259630354226955
Os 8.10573937659243 7.137143562323083 8.559547358932498
Os 5.8344115692783625 8.030259970801984 8.362738057693686
Os 6.273443650326856 5.68126149965177 7.5629316261302195
Os 4.661019802927301 7.2364410583228524 6.397441387074623
Os 6.899044346602496 5.208820170303227 5.193433998788739
Os 8.688768955501386 5.561573347944427 6.803872930883308
Os 5.5215124921551535 6.8475784747516 4.254017605541351
