8
Energy = -62.38892845 eV
Os 6.185034049689903 9.488157516657287 9.010922860309176
Os 7.438926594502489 7.9575954398333035 7.3281658199405255
Os 7.599620320687858 10.403847534883598 7.420846373233274
Os 8.04262557640752 8.340420771101638 9.754746951983481
Os 9.767972936389844 7.930852356946119 7.3406235976789205
Os 9.662261615759899 9.931720715360376 8.544608978697099
Os 10.164258141128574 6.794695595097485 9.323206032102938
Os 10.337259204880379 8.736346429013368 10.536820276644455
