8
Energy = -61.85843459 eV
Os 9.430753741726663 7.797014042862283 8.366830863145887
Os 7.9690384188559396 5.963487393500329 8.561462262816194
Os 8.5528263183377 6.7927626675144275 6.249981359162376
Os 7.934894785349813 9.092399463274555 7.1027897802848985
Os 5.865937447599534 5.246255871379876 7.850354485628669
Os 6.020471029065059 7.570916236950565 7.972490019646202
Os 5.823100883352072 8.986326774003553 6.126902148018736
Os 6.373924059058739 6.5295063508958275 5.734859400180866
