9
Energy = -69.38313151 eV
Os 7.177094488980169 7.877655354114494 8.374359922825528
Os 11.18946112116878 8.549098519525803 9.184582245645485
Os 8.963123552055883 7.5646610454678065 10.048106649468675
Os 9.784495759164281 9.911720384338084 10.867803235455368
Os 9.740073730871487 7.201098218888153 7.737611387782018
Os 9.08098573902404 9.543971733208279 8.442165908816719
Os 11.064842295163743 10.998324608774192 9.059777084100789
Os 7.328149958183565 9.564810544907404 10.150602821748464
Os 8.509604525598789 11.67024036855244 9.68967976279855
