9
Energy = -69.67280885 eV
Os 11.241787507753374 7.091618947521294 8.884976539253767
Os 9.429258298982376 7.638300731758105 10.399039290102671
Os 7.063742059686017 7.219127204020632 9.749909516267094
Os 8.827934011099034 7.419155942683575 8.012289715716905
Os 10.403348261522678 9.269620110907145 8.533291054175246
Os 8.690996544045973 9.736143628824575 6.930039852382175
Os 7.944976313786056 9.48875938193923 9.298556651288587
Os 6.450645510328718 8.423935575157534 7.648850522358829
Os 6.681444567786761 10.83635864514221 7.50298835429303
