9
Energy = -69.32647073 eV
Os 5.2037531653245575 6.123296619831498 6.019705870207436
Os 3.941516173399166 7.824652845180289 7.016383850722244
Os 5.771761808396273 8.981056983732536 7.737229790469941
Os 7.083879770742813 7.240880001528647 6.793837903317092
Os 7.782055274485419 5.387862341792761 7.940070943693097
Os 9.975341573755022 5.859761952935239 7.241865177672015
Os 9.325167358265867 7.761104564867244 6.1698454148009345
Os 7.995725013011651 9.62140317918681 6.981329275612334
Os 5.934473343741049 4.21365520934363 7.113405327052267
