9
Energy = -70.70788421 eV
Os 8.164183411576357 7.216914905960401 7.739950411148241
Os 8.071078647548534 5.223893564499472 9.053915134250195
Os 7.6658884106106 7.375961364955978 5.347065320074399
Os 7.13184272760619 5.292941012198587 6.536944414691209
Os 6.183101727427174 5.612131540995839 4.288067842068686
Os 5.985989301768066 6.264130647980047 8.52604952462373
Os 4.830082749425982 6.136900289570862 6.370358172939196
Os 5.283439813614891 7.858347340472352 4.524052669825361
Os 5.927841941411031 8.28350054359721 6.818864525036106
