9
Energy = -72.42919047
Os 0.37842399999999987 1.0579199999999997 0.8725839999999997
Os 1.115258 1.104534 3.189025
Os 2.71538 1.0776139999999998 1.3840239999999997
Os 3.559823 1.06103 3.7233889999999996
Os 0.3623759999999997 3.4464010000000003 0.8772139999999999
Os 1.099629 3.4005989999999997 3.1937149999999996
Os 2.699071 3.456486 1.3890689999999999
Os 3.543547 3.4752609999999997 3.728376
Os 0.3623760000000004 2.2805769999999996 2.003025
