9
Energy = -72.43063064 eV
Os 6.960003931965065 7.654341064438055 7.447083479441802
Os 7.690024502786872 7.694482915913495 8.599841578798436
Os 8.125751439199778 7.666552207508079 7.982830818130784
Os 8.996270141700885 7.649359539220276 9.139921366055626
Os 6.9438117772729315 8.850022212049796 7.451829820780706
Os 7.674468401789446 8.810533858698378 8.604417625576893
Os 8.10957772507004 8.867449088992654 7.987593315396273
Os 8.97990620124458 8.887149823684258 9.144771972794063
Os 10.29455950538877 7.694482915913495 8.588179396607186
