10
Energy = -51.50558566 eV
P 8.897966361183231 7.4585099954976615 7.295059217054156
P 4.805162978476019 5.596538180251695 4.74894719843091
P 7.255957733290934 4.13485581914532 7.2362193612768655
P 7.287041312395622 7.4551376605931114 8.882083701870245
P 5.987471325410149 8.61307985898339 5.953149639597093
P 6.343316111630356 5.76473746230112 6.300563150190502
P 5.4513703927024535 7.276655226041927 7.696192063274531
P 8.426162221978755 5.511428423128223 8.424477038417498
P 4.536152705315033 7.62612992415377 4.492674361844103
P 7.745448740013571 7.2862752312193075 5.436475456171928
