10
Energy = -50.97304557 eV
P 9.614530484789828 7.37689887151128 6.556631192874264
P 6.876869475028296 6.643995276580022 4.866113397314555
P 3.5917363316493356 5.232664342062349 7.281872174476035
P 3.69760456765597 5.260212601346414 5.217570355269578
P 7.176978030303531 5.009438529279382 6.401552092234614
P 4.771766606491759 7.2012724627445435 5.199708960940408
P 6.733148420894094 6.583647311438363 7.967247958678402
P 7.504704197121364 8.102220186901222 6.476977844431455
P 4.669564709400469 7.1667643185795535 7.465019336543558
P 9.377327299650998 5.330463652281494 6.509491894798223
