10
Energy = -48.74241698 eV
P 6.46430521007135 3.207682944847215 6.934979459722858
P 5.721470173524704 4.106526252132222 8.55326417306251
P 6.510056142868686 4.858424586639094 5.416240398455228
P 8.255829156565687 4.685709363985201 4.123690609024374
P 8.57477317425724 6.736199323788403 4.364101184094283
P 7.4381476586233495 6.690189922497904 6.235994432979789
P 4.350806525258926 7.372055863318871 4.784314073754272
P 2.9738272840101443 7.328411696284375 6.407132463074815
P 5.836083587531775 8.225879615756083 6.185144217132643
P 4.607888558303007 7.326847564635667 7.775849747878672
