10
Energy = -49.05855079 eV
P 5.3821493221262315 6.461437111632654 8.855155473980494
P 5.3677829493250035 5.673111872014521 6.895194635133705
P 7.701716366841513 6.066542837398361 4.631812880628895
P 5.892843979211909 7.243309538771011 5.457113655974083
P 6.478718651975701 8.264928984809913 8.446546423701703
P 5.931717677828852 3.4872656372565953 4.472638893461989
P 6.339965231912796 9.0461722212507 6.435447658642192
P 6.696494360032419 4.8282562587615 3.0751048530818306
P 7.105180699466834 4.472203970954898 6.065040866239344
P 7.466147431763277 9.171237026114333 9.894523621620063
