10
Energy = -49.23846504 eV
P 6.873692701915228 6.312426583383903 4.232887693516307
P 4.618029566532564 7.346697250015943 7.459392658113331
P 6.695135077583148 2.2252190919269186 4.609583376638125
P 6.386677085388762 8.752468802996296 7.05500606917902
P 5.0017377627365684 3.229484286646489 4.672402804318493
P 3.789876448758259 6.6347488800915455 5.565706097225875
P 7.749645049213814 7.026329760754487 7.679301576175752
P 7.6888377600109585 7.783591036757446 5.580752050680242
P 5.998432958212553 5.610416353250955 7.770785588551802
P 5.531285277581441 5.335277808125821 5.5915243621848925
