10
Energy = -51.61167415 eV
P 4.309961065874709 8.317655218924548 6.110674737242438
P 6.3456482569941075 9.255305354623127 6.267647296069309
P 5.805691756454976 5.238295344281342 5.54942881654497
P 4.936549732795125 9.457902094308025 7.943351874666008
P 7.914885979084624 5.921281789726833 5.0659103146285505
P 6.511363870074569 7.861446930662944 8.020573602037548
P 8.760411675112236 5.026298849147089 6.945689839195501
P 4.9518209245411375 6.4464184520999 7.186553219967581
P 6.9440939586708685 3.715558009699323 6.75671752291653
P 8.525712601614519 3.7659777777441406 5.159592597948699
