10
Energy = -52.41121495 eV
P 9.095986352377535 7.041490445596589 7.28369359350453
P 5.73897729522445 7.603207056546691 7.898730020800501
P 6.115743115310315 8.25354971240993 5.8228512468558
P 5.966485973115495 5.439021574923939 7.732001092223903
P 5.720049353932084 4.886847726448629 4.587805486098852
P 4.677042212312044 6.848604319503154 4.786616739106849
P 7.733348408443153 7.31968328025191 8.823324846391628
P 7.4606515422333315 5.1329355190218875 6.058063024368061
P 7.967322572131768 7.1438832016727 5.379029274963075
P 4.25662771400963 5.201116282065095 6.228087661519234
