10
Energy = -51.09993262 eV
P 6.960779121256997 8.448028448711895 5.707966473170878
P 8.69385352332907 7.785147847490195 6.939548530212466
P 4.77945779346571 8.165697518558536 8.366089918065901
P 7.71282944448176 6.303618627408079 8.322949465230016
P 6.260771261004208 9.337488720043924 7.58208514970581
P 4.281600112913144 6.522860494921688 7.010919884919773
P 9.600669330578121 6.173388413735962 5.739373056574046
P 6.188813735350575 5.268098700111321 7.085676260269073
P 8.896056699967039 4.791758801933892 7.11218972359372
P 5.769533521090627 6.574712627573933 5.343376928208822
