10
Energy = -51.92367025 eV
P 8.557545517562174 5.8239798589958545 5.121921055579039
P 6.553768150860922 6.797365021563448 4.810524938112731
P 7.383517900704623 3.9743099763854883 5.565575726906135
P 5.455649786659198 5.26045944154607 5.9981741059913665
P 6.634343984112081 8.591856769466684 6.064278855989787
P 4.43231593486443 8.420777589550562 6.082717515964907
P 6.618545677493445 7.7877326937204305 8.197749492680273
P 6.469094632520735 5.614996505977828 7.9574972554722585
P 8.500210734698593 5.044110884262249 7.175886219372518
P 4.417284155406425 7.706687733414139 8.04795130881374
