10
Energy = -51.65032318 eV
P 8.126772250438432 5.626356502995292 3.688701583976711
P 6.587225835541475 7.140232485632874 3.321999706996797
P 6.072279380281936 5.33691372346187 4.542726893189459
P 8.147448877959429 7.514736678297943 4.903624350533626
P 6.858659165219884 6.4142999358950465 6.37466124844537
P 5.139679657047582 7.647748351588586 7.062457525050973
P 7.8602177630284915 5.414488335301365 7.9106320976751885
P 6.345166784648993 5.823430053049584 9.432753979998688
P 4.330119967449809 6.189249820020071 8.555827933771488
P 5.553521076675179 7.913634872047897 9.22770543865264
