10
Energy = -51.44597693 eV
P 6.268789184789001 4.587873361271162 5.4310349264649895
P 4.315376548274457 5.391839351251838 6.0860119075305255
P 6.362984454828479 5.979983637659728 3.481027860001432
P 4.203262648781536 6.016076222622725 3.690529256884252
P 5.523196409482288 4.20383340036483 8.065002138767687
P 4.417480209206661 8.134240538876488 4.476008873109654
P 6.432439336787955 2.7019752716809866 6.8010843795680955
P 5.113272979825171 7.444273957722641 6.488343454152458
P 7.531509122650293 4.55957127409936 7.268681142182427
P 6.60512068103731 7.77418639715953 4.8450491928737796
