10
Energy = -51.65751712 eV
P 7.472710372404311 6.110295060164905 5.712104072989172
P 4.175153544192607 5.613096925354191 5.047700708079493
P 5.666728354930262 7.275626809830245 5.12776787939968
P 9.09272515827775 7.7014040310505045 5.450107508064825
P 4.716787394139628 4.115705913106611 6.596752806204327
P 6.33078058115043 7.237181513662517 7.215787595700845
P 8.995230186424624 8.595249769308413 7.487870359678443
P 3.1617385018164685 5.638879557116585 7.036908288434317
P 10.327997327650495 7.084389639764797 7.1715661348095505
P 5.075768248240998 5.643790449868519 8.169054315866642
