10
Energy = -51.60254106 eV
P 5.60396166857597 6.218354088046495 3.4091027764986794
P 4.055180483351518 7.523391959645045 3.576378179965683
P 5.951657672672208 8.031463245705826 4.63270079507294
P 8.08581354497451 4.831593780538952 6.785929749249854
P 5.930324007364831 5.118689075810139 6.505043372396861
P 5.405676851524005 7.240344146105748 6.687298893646892
P 7.064126795543163 8.070772281562515 7.850796461861114
P 6.633401765356455 4.589578372590622 8.50051261822232
P 7.433677886362291 6.58384701380542 9.40338210706436
P 8.845379600833335 6.801166312747386 7.6580553225797185
