10
Energy = -51.81883662 eV
P 5.893574663685481 7.013914326132329 4.246767496163585
P 7.963960738796585 6.363048109999219 4.617954592625593
P 4.704726928014892 7.954493864747435 5.917711932448175
P 4.527161404260694 5.771470584180058 5.495585007334266
P 7.916461841502251 4.689395468343207 6.0880132625058385
P 8.877112506294392 6.616235311204668 6.668108862615854
P 5.857259924012794 4.752966180608823 6.99572651932854
P 5.59163389783787 8.192930073704305 7.919680904659229
P 7.701818107481654 7.496255333949889 8.310733072873575
P 5.974315776599812 6.157316535616743 8.747744137931777
