11
Energy = -54.97357821 eV
P 5.68302149182908 6.425920825783316 7.906411083663293
P 8.205973300470438 7.89662620351721 6.481285393752888
P 7.174749467114929 4.9491755040099905 3.3352563683490923
P 5.5079282496679545 5.361527157132129 2.3214556240240007
P 6.592013673005557 4.876073010545062 5.487028384832058
P 5.184736733955036 6.605265961579384 5.771271038176737
P 8.506195503162418 5.696755124837933 6.271075149396528
P 4.609423741072582 7.768704311676352 9.214311218057526
P 4.371670732773619 5.716376191636385 9.455767336892293
P 6.306723409278247 8.42665841980966 5.578088919599069
P 7.8599909836145745 6.4990363219922065 8.244165612928075
