11
Energy = -54.56519261 eV
P 6.831374594571542 5.0436248820286105 4.95573292463659
P 5.710491257365533 7.556369892215034 2.5900185109062464
P 4.011217660923621 5.8904318132195845 9.365818277777377
P 5.902865853143025 5.983840692273995 8.472244255728834
P 8.624362301907366 5.014011317395202 6.21736012573167
P 2.5298447630233003 5.20026672797738 7.99851940794756
P 5.341609542392329 5.298247625094622 6.572432250160477
P 6.904292235340043 7.127736045969606 4.171089781400315
P 9.526324232055918 6.865885617169426 6.030117819746116
P 8.463799662371011 8.331563701382386 4.920924784699136
P 3.369607099582251 4.767951626141857 6.1272244984410404
