11
Energy = -56.01902157 eV
P 4.821061403835649 7.31543810868529 7.624276199993115
P 3.5645570933873656 7.079000158405671 4.5119252971442325
P 6.845386969772469 4.796244974197554 7.952581468293189
P 4.890358936341805 5.095962141944741 7.016175936341452
P 5.43904755110399 6.087018849781967 5.109283150940223
P 8.122829312889795 4.185066583078443 4.4288514945533946
P 8.570534566738367 4.605490673259944 6.475277448973733
P 7.9826426327447235 6.627681744983254 7.341831001222508
P 6.372309241928995 4.9593427951621045 3.542923803278266
P 6.528488281277251 7.726651697751893 6.1340473793228805
P 3.1251137164402807 7.942184398647625 6.36697644517965
