11
Energy = -56.93832023 eV
P 9.185190746359229 6.694687802501531 5.538699963314503
P 8.366970885977041 6.044171990161158 3.581950323456722
P 8.05171237792145 4.7846611764517215 5.383253923614263
P 7.574525822493444 7.890278650491298 4.549729550655611
P 6.699913423819379 6.956648129416274 8.825900180967158
P 5.957773420836214 8.374878985909215 7.338184024456305
P 5.615466520506998 7.313862062896218 5.41447714067828
P 5.874971845856354 5.004261136186259 8.020753939389353
P 4.508165564347389 7.655333408577119 8.874777737622626
P 5.90976256008246 5.141531950564138 5.834753252135182
P 3.793245105596582 5.677382980641862 8.175218237506792
