11
Energy = -55.11371006 eV
P 7.037329035161807 8.220914772757434 7.76275467613298
P 4.849810861233371 7.240002774975009 4.5692239280679035
P 6.057842876312032 6.97586461257977 9.3843218900989
P 4.3926651434436375 5.1606451328380185 5.154106588160935
P 6.193275451451598 5.539544924667854 4.074963940565567
P 9.602467542754695 6.98268142369771 4.410208051406713
P 6.575086995934239 5.054146417529939 8.348853186742188
P 8.154814101409514 6.008275830880102 5.351468327958094
P 5.08507214260813 7.8609538836789605 6.767400254034355
P 4.660846682607757 5.939250708614175 7.741364330273248
P 8.196101174179743 6.329572973601298 7.548587789075848
