11
Energy = -56.66495612 eV
P 9.023071710141577 7.453070746819045 4.387684007089188
P 7.237479616263202 8.697094489733205 4.0058765544334705
P 7.808749058310932 8.194153918179666 6.101413754529272
P 7.246622224696723 6.566832321587526 3.325772761361785
P 6.164262075006339 5.950684281191687 9.890106763406985
P 4.473810908234699 7.279879331797713 7.028589800741853
P 6.399895308519207 6.519843638773368 6.462913454045393
P 6.207150305741053 5.2812326227633175 4.7217328615255925
P 4.199188464826392 6.056639023213339 8.793085803457371
P 7.299886495785637 5.310488556403271 8.087590876682857
P 5.463158037386878 4.2133552744516125 8.718507567639149
