11
Energy = -55.04811972 eV
P 3.9668134008423603 6.9414970826645215 5.947366668261746
P 2.3687041102711213 5.369791557590127 5.766556505282519
P 5.25715349591436 5.581633725223668 7.192722606974212
P 3.21124386305317 3.4966197880900234 5.305942604415817
P 8.725426472673872 7.009330351816871 7.179393987233543
P 4.997508649073309 6.327933894488618 4.056102778436436
P 7.088281729604104 6.837065549997415 4.491629995340169
P 7.6310381476853415 8.37965555737446 6.044928799775832
P 5.230935759313469 4.314567354864618 5.408633361517113
P 7.164370751959908 3.438667858567457 5.701450837358532
P 7.3241389445486105 5.547942049295634 6.273672855034585
