11
Energy = -56.63359302 eV
P 4.388064353201058 5.534706025842527 7.658464819604802
P 5.875162110445323 7.0158139997620745 8.434099330520539
P 5.878238024215676 4.907060957215291 9.154381567846148
P 5.666479844775761 7.336593980943847 4.959099469110144
P 5.218794158372015 4.8570830242917795 5.646771018770578
P 7.4263223424024964 3.8162040159963415 8.038392401638982
P 6.661560302097194 9.661891241557578 5.23155676482372
P 7.080523675375522 6.869654623248172 6.533874229034038
P 8.443540030107775 8.603352757705759 5.898543997715721
P 7.348310935415573 4.702961023052391 6.076538893049409
P 7.530613370849483 8.212287497642254 3.8858866551442066
