11
Energy = -56.85358638 eV
P 9.25802586310177 6.923938127934775 7.10611442964795
P 8.415928806544338 8.89379515696644 7.783654872273987
P 6.916821346960533 5.223252922208227 5.42859623115031
P 7.885442940247186 7.186681638115913 5.384562542448599
P 6.544184273766644 8.618184826715348 6.449218691953655
P 5.0834442311711205 5.683253330263459 4.176352416250752
P 7.9399890527972685 7.0133176363986465 8.915095174008655
P 5.62214204028499 5.262070858279301 7.315074401335583
P 5.889382560001365 7.284594184813459 8.117712735035818
P 3.7992112376852645 5.611662509105557 6.009245751939126
P 4.159161595430142 3.8129827571901496 4.828106701946447
