11
Energy = -56.62832823 eV
P 8.816285893186622 6.670731088714181 6.227927667313776
P 8.822749347401084 5.33527968590462 7.956763097450916
P 8.12906796327013 7.517110720897701 8.133273004769231
P 7.266030782341451 5.8145435600950846 4.89562574641544
P 6.646796851830722 4.621984221445055 8.168678303003452
P 6.35920108044947 7.749463694762956 4.242649966873886
P 6.120201175648762 6.717636909997256 8.827762334924987
P 5.6468042606543145 4.957963319119055 6.1517710426804175
P 4.606853806074254 6.649925641329586 7.168328037994417
P 4.278391631932433 7.1533010212495025 4.007278566902583
P 4.839790209381813 8.344233138655813 5.752115233842204
