12
Energy = -62.52994514 eV
P 5.45658719122396 8.537397621154247 6.636295717047073
P 6.488627454350996 4.22648519694129 5.355717730979151
P 7.251419032951279 4.75147556950814 7.3764058265201315
P 7.175440619735906 8.277965602809822 8.04834700147347
P 7.806482044553125 5.269032304642366 3.9570932400481733
P 8.407713368275981 6.656863622806173 7.18481934196066
P 5.368840471228232 5.260169206313959 8.4437787551889
P 5.574300501690575 5.784928606828425 4.109178004211605
P 8.334609049497319 7.228763116799696 5.047911952392067
P 5.729857138053748 7.167133799704934 9.452334585208243
P 6.2226711340246315 7.882188068472822 4.679159929678915
P 4.213113897318534 6.987259186922541 7.738619818195501
