12
Energy = -62.59483399 eV
P 2.8538477504027346 6.93931737137765 6.215937806241949
P 4.036535342799011 5.856161923318846 7.799634004119785
P 4.6701977789922 8.249641376890855 5.994379578359417
P 3.5820179050528895 8.058193853639134 7.949408475803444
P 5.872394171506111 6.467518850635847 6.677225083116825
P 7.654923249059238 3.9102104711212555 6.864077605270222
P 6.6075849877181065 4.9405684500761735 5.298662436279036
P 8.090497907459357 6.407515993315759 4.359919144115458
P 8.933698640783634 5.478452163744783 7.6103814178544225
P 9.81643581879009 6.385368356828375 5.689134068497832
P 7.587876830314267 7.249502135344652 7.780835906567357
P 8.33972113759084 8.103280574175287 5.80613599424273
