12
Energy = -60.60484523 eV
P 5.010112392217334 7.069116696216193 4.264494995765049
P 9.681426563469829 7.194660314612911 7.750449981943693
P 8.291477159151952 8.88845609577466 8.117934747514457
P 7.130922608814061 7.954589612267154 6.664009414884617
P 7.843532462145332 4.7822931003339155 7.832775262889373
P 4.4105432822468895 5.335843935365364 6.999572724956654
P 3.206361202771424 6.5266806155675425 5.529860797578923
P 8.955573101687218 5.781778637740978 9.273851485747226
P 8.370654057095301 6.183690790480473 6.179892224198519
P 5.768284301790993 5.16313728975363 5.222673060249783
P 5.871643432210211 8.835904370284174 5.272814138704867
P 3.669712261230089 4.362705803858614 5.162143813695029
