12
Energy = -60.50167228 eV
P 4.980774495643395 8.129153685904486 5.976726005144659
P 5.091540120486973 7.27411947599914 8.085308890352701
P 4.955780607208456 6.0603588653663705 4.929599122679619
P 6.763238768863976 8.432182364334734 7.233031256513896
P 6.826957532818456 4.946918075564505 5.616897098196833
P 3.991051348123933 3.7250521915115953 7.802149103056491
P 8.630726593622851 7.424467392709991 6.480857589229507
P 6.00103976348011 2.997948299068899 4.985055013790323
P 9.520312541740388 9.44925985187174 6.066210616620306
P 8.622018133582378 8.45744986315523 4.534263342998357
P 5.151559645743456 5.3049288105982875 6.997421922407474
P 4.430809953923342 2.392047642890992 6.2267138116690335
