12
Energy = -62.96909232 eV
P 7.908834542871924 6.5328583107338725 8.098516535340307
P 5.847156501910153 6.1578398075982825 8.807251867426544
P 8.169316887160885 5.301301600574504 6.246663449028677
P 6.915466244129502 6.00682888514196 4.564773911539057
P 7.3945242782410805 4.54714362058925 9.040680594009169
P 7.587982403314227 8.105884348159114 4.4615734639854745
P 6.945135562271132 9.030495041204626 6.405044396919208
P 5.747124828702935 9.363557590692757 4.562945852423232
P 6.844097109644967 3.688518369726832 6.954861371413155
P 4.849595473805211 6.191054540536399 5.390294010282504
P 4.954684569814384 4.872969164851338 7.2310799666724215
P 4.871972875409069 8.23743999746654 6.272205858235603
