12
Energy = -62.47764807 eV
P 5.070955314740971 7.417097242900374 6.339000032877909
P 6.951436418281243 7.080252729038515 3.3392606984020343
P 5.64913193919132 8.504994280099588 4.464669202355519
P 6.543279210467781 4.49583366872275 7.724773853760998
P 7.602113915483865 5.657502387735405 4.945299775107747
P 5.588653579366996 5.3501318158435405 5.777116388281634
P 5.4874806160052945 3.5263534884423806 9.358959240480448
P 8.485479543453353 7.367993587151324 6.143489680748177
P 7.855865516770866 8.801586120929963 4.516953745699333
P 7.003320595317938 6.30729251866204 8.979153046148197
P 4.902216850176445 5.524704598154016 8.929189353590587
P 6.882496116728398 7.988687178304974 7.504564598532152
