12
Energy = -62.42731898 eV
P 5.499958414562046 8.717976095183426 4.806277081757094
P 7.66852009124625 4.256009576225327 5.187247960657421
P 4.485590646878977 6.805119270732238 8.15876292422628
P 4.42234450015697 8.54133804246713 6.684460986905906
P 5.767502604352163 5.256194480642151 5.867932147678714
P 8.00233453081772 5.973606692101184 8.312431955323365
P 5.814490138573151 8.580899089573174 8.545884990203783
P 7.661638073532318 7.966952162126364 7.483407186542338
P 8.558058033870932 6.272420938133886 4.662791828832365
P 9.176006381772558 5.176017372790756 6.5515127360245184
P 5.936531945657222 5.058744792572659 8.02628677872987
P 6.764445840112553 7.238270654558117 5.591356486655293
