12
Energy = -61.73051804 eV
P 5.142093642536589 9.09817269824373 4.30419582745582
P 8.649835873485047 6.5641550794399 7.0251237017434685
P 6.0740880830443436 7.960401544294283 8.350452452456945
P 5.290092216415177 7.105809315977454 3.4204696145056968
P 9.009120745021425 4.468873291750318 6.733249818891631
P 7.855555583421681 6.786656088920963 9.096509380407573
P 7.08138979223357 7.971807926960192 4.466539328297129
P 6.371228662193036 6.9690173557250255 6.35388566459411
P 4.269544253165755 7.367741710926441 5.389897841685189
P 7.180931573795633 3.458033337034368 6.8968612859216885
P 5.864461751286499 5.848890518701993 9.099065604328105
P 5.605803371734846 4.9040135157034 7.06286751673085
