12
Energy = -62.61121771 eV
P 9.438300607240754 5.359375424078273 8.306222965082286
P 8.627446640612474 6.0097287591775554 6.328200549558665
P 9.454134163383168 7.192660695094177 9.570894472118974
P 7.2130491974777815 7.59998841956676 6.854779149868766
P 7.345615749376846 7.717277540925566 9.07945596791494
P 7.844258360403949 5.682503709277333 9.815305299865921
P 6.488317678981584 5.5106211923483555 6.651034380520128
P 3.558322983235455 7.7665514618879 5.0531380624978475
P 5.399407762894849 7.47923917135746 3.809777680232148
P 3.520341824828593 5.5260082792644925 4.921319927243721
P 5.7436729411976595 5.363189080190142 4.538991433799645
P 3.380859076632684 6.80658325309778 3.0846070975630315
