12
Energy = -60.94640022 eV
P 7.537187224967156 6.777389497306987 6.7551326744765445
P 3.781066811308551 7.403717363114689 6.795297924768653
P 6.306361981838136 4.0009266388343425 9.172426217946462
P 5.643034776196276 7.9446786840454 3.755581179294709
P 7.6079575107657575 7.7956929066072425 4.818540110618996
P 5.042081062758979 5.233885314467398 7.805255804542512
P 6.582645009763083 4.334333739171363 4.187235743651599
P 7.057218862200639 6.238329796865679 3.3010689099077055
P 7.336540149236584 3.1724027103401795 7.581223647462776
P 5.6802954527785765 7.361424178389571 7.924429969547147
P 6.627221462754202 4.783340029429559 6.2338115640250775
P 3.787977842320682 7.4016293284146695 4.728781391757176
