12
Energy = -62.40498175 eV
P 3.643673737929838 8.818658591722306 7.221502363262608
P 5.086648099525733 8.795762319201835 5.531647328388126
P 5.8267155008816545 8.967916576424336 7.623325756834114
P 3.8494231035646593 6.997889478270059 5.9638960275684365
P 4.991695638257773 5.621229472965461 7.266482220627579
P 8.447601487513646 6.991047141864418 7.530176075194118
P 6.368135461968634 6.949803826091159 8.355875597148906
P 5.928879925006249 4.495263510608564 5.570507811516831
P 9.045823866546822 6.574342206549569 5.471192385541435
P 9.323998966138168 5.043742678999493 7.116172181312209
P 7.625366267249777 5.150871920743333 4.3623599752982845
P 7.865031815157063 3.596466146299087 5.9898561470475125
