12
Energy = -62.48621835 eV
P 7.0807953122667096 8.505276319521666 7.230204316289532
P 6.10373060672638 7.160630100566249 8.725129489091863
P 8.266613542568768 7.031033709577747 6.1206402648845035
P 9.341082009506632 6.014571880397227 7.843666187694588
P 7.73573665514309 5.753011177953045 9.356954121746075
P 5.029720550544635 8.098025790860245 6.302481490666878
P 7.932256048276845 4.257585804699519 7.732418037679768
P 5.219044025756608 7.850890940085012 4.064630285544299
P 5.065558853915207 6.01462969572373 7.132724234559189
P 6.836700695583985 5.3291857209552465 6.023110607052892
P 3.706520830906897 6.2882580689778855 3.823305046305901
P 5.687319413242763 5.701979335120551 3.6498144629231777
