13
Energy = -66.06204823 eV
P 7.787642190557947 7.3958134107054585 4.324184646113416
P 5.861269730946284 4.322660170073147 7.682630669388497
P 6.132927473483301 5.122470852073493 5.6456920479583355
P 8.398980832145664 5.360246159229502 5.050071871241267
P 3.77089260076967 5.378347567496555 7.287669805642646
P 7.7123680360213385 7.25051821150863 7.791275639684874
P 4.612633796485392 7.41937237264887 7.7240986437519314
P 6.210784217185235 6.558720267665771 3.0005819936246643
P 8.731750372231632 5.420603511143546 7.174278929086858
P 3.958927535190402 5.106986404960245 5.070907172979414
P 4.564410340824576 7.152144780709837 4.294133658847086
P 6.176807199149743 7.297293383344717 6.050430864037126
P 6.093919468795277 6.228136702226691 8.917357969965169
