13
Energy = -67.47203272 eV
P 4.137553951646831 4.91201407760407 8.656638044264106
P 5.22882656604022 4.39359767671602 10.294743001716045
P 5.42836912610844 6.47769736332246 9.534192282127789
P 5.6832102176277335 5.115118186790308 3.387014378006869
P 6.397046283661736 5.5454921773372945 6.353914435825641
P 5.319647804706506 7.402480357740252 5.839805377438284
P 5.549988377633621 7.285124912133213 3.6043671153932837
P 8.318384833948379 5.868692813212191 5.334601769502471
P 7.277493068754898 6.092632854426961 8.293018277570154
P 7.5245090025403165 6.284437774229563 3.2720228568336203
P 6.838215305261798 8.975196114603861 6.1875796880041545
P 7.993203961644157 8.172230079668584 7.9046340940461395
P 8.815151080311008 7.986885192101156 5.8490682591569465
