13
Energy = -68.22264031 eV
P 8.91517307099807 7.846360998637176 8.574646833981973
P 6.649526510708793 5.5043713644582235 7.8976768940179864
P 3.5107964672220113 6.308204671729121 6.604710181664944
P 8.723189534088519 5.939505951672603 7.353869311232095
P 8.834386317020819 9.068265583372105 6.659334759620377
P 7.116776822795404 8.994338518300736 8.035778069849947
P 6.198319989884729 4.079009363081791 6.297338732012453
P 8.609011935995106 7.161169931819179 5.443213498732311
P 5.659254940849001 7.322393090003511 7.083281921827917
P 3.9358526974706938 4.15030690184234 6.501809362988138
P 3.7981092474247093 5.410519857989354 4.61657337665848
P 6.059789002609427 5.318627342377342 4.399795075448939
P 6.471758841026076 7.378871802810019 5.013917360057547
