13
Energy = -66.63513819 eV
P 7.98194628177889 5.598273768953859 3.152221291735183
P 9.541703074570737 5.719971046223674 4.528213545705637
P 6.005199782719394 5.476019539670218 4.065904306217274
P 9.25567646709834 5.807460569691146 6.617735418521137
P 5.618519099416052 4.915541231539518 6.331329175553099
P 6.897114528873774 6.302546928946023 9.162027393988014
P 5.069164065616819 5.08641128430977 8.89765861330642
P 7.198173508506977 6.364846361110796 6.935707188847092
P 5.242239125302859 7.474875200641977 4.467735247945839
P 6.518069758162041 8.337464529701078 6.228304837741282
P 4.886706343882746 7.24114793015058 9.246445975747127
P 3.943302443653653 6.367309526778665 5.966792060583859
P 4.534052130845237 8.133253896106142 7.183886814633436
