13
Energy = -66.33189536 eV
P 4.503676173995232 5.216035006972241 4.349894780537107
P 4.32912539002238 5.172900691287037 6.528757336012424
P 4.467463727147454 8.321905144232153 5.876451530151515
P 5.308794373037924 3.542515415408347 5.492729664707249
P 5.926211770870187 6.602728802844639 5.616948741611953
P 4.868410140336647 8.712100055131675 8.023255890557886
P 5.579558613743326 10.161719512057783 6.520227017610789
P 7.445700227289051 4.605516655651256 5.861232702777369
P 8.007776325854753 4.825851052936433 7.9754743081726245
P 8.734039468404356 3.1052360312059264 6.826529381810865
P 7.089168345814415 9.00922029371492 7.686825726198927
P 7.88345759728196 7.839981948608796 5.989911292542726
P 9.126933459278998 6.116409349764639 6.484774605716266
