13
Energy = -66.99999379 eV
P 5.516884804513689 6.269125256371867 3.8854773918779295
P 3.457804114906305 6.341486554088297 4.613399132354198
P 7.887114974413256 3.816113303055594 4.432431550146843
P 6.709801830159964 7.090045488100871 5.583623966595118
P 5.7744932004926115 4.067801173797722 3.8686232178156112
P 8.48737778403329 5.754391474051424 5.466213120152321
P 3.179193735264756 8.525793186011626 4.813837173062414
P 6.242484319942416 2.9805646405023407 5.750485379821117
P 5.6891247061901495 6.308731163104257 7.42264267039541
P 3.56880081917202 6.202786810473509 6.873568963445214
P 3.239671500060581 8.40007332593652 6.880779318827262
P 6.355037515224531 4.215027818330032 7.633470521238968
P 8.485780110052485 4.621629220601856 7.369017008694101
