13
Energy = -67.7389322 eV
P 8.601206840828047 5.259807404657574 8.80373288132692
P 9.339773858215741 7.3454557564016705 8.27305733635538
P 6.49437045176875 5.8104318147714755 8.207561976150213
P 9.764058083355138 5.617259574501246 6.933063296812324
P 7.230654443695038 7.87909994660157 7.70514803043728
P 6.630004135279465 4.654455238654486 6.3379251221970785
P 7.635433908020802 7.848319737101908 5.562175407056709
P 8.239200045780962 5.725184281289777 5.282822186518559
P 5.157745050926261 5.386020463279544 4.8360605857063215
P 3.2563003970773625 5.864356795091347 6.011561009713199
P 4.001958913820407 7.848574460888442 6.719598684843908
P 5.375049278653202 7.613317191806195 4.971391995728441
P 2.7889594961541513 7.662432238530383 4.870616390729141
