13
Energy = -66.73094273 eV
P 6.595941574235802 3.625226738000996 3.181440856285487
P 2.5536250821514797 6.511125410039554 3.7935035274390985
P 4.387037483635152 7.969284504663893 4.3544400095991485
P 6.162977221895153 6.722813056449303 4.2190846256162
P 4.461624273297702 3.0894595760179957 3.686145442340489
P 6.928836049488753 1.8287439627143274 4.506314840917004
P 4.954616468341879 2.214168886294007 5.638964354218544
P 4.03320793049411 7.413745123491836 6.50630947264869
P 7.679541283338965 3.857417811337724 5.1016495571443565
P 3.176635355543543 4.690930302763248 4.779123455261406
P 1.9984234725890886 6.565085982980424 5.960388962309597
P 5.045872022309343 5.637953630059762 5.66708360514941
P 6.067121010051814 3.9195042425594253 6.6510105184432
