13
Energy = -68.44976455 eV
P 8.992807872497387 9.159146328737847 5.324290936464827
P 7.097164869640224 9.958237702281272 6.124632431747393
P 8.438937002543154 7.195639239771534 4.411251537922474
P 9.331343379758517 7.252454766911301 6.437953590970953
P 6.2360716440884785 7.095768561145632 4.756247075143634
P 5.983441373987936 8.153566124927783 6.672370783189289
P 7.596040454653002 7.210313565681874 7.839186581525006
P 3.6276406090629254 5.587544318453889 7.765908451391223
P 6.312295497466322 4.984223993082588 5.41752127631088
P 4.162020089087645 4.647837291277235 5.81868773295749
P 7.20085820792908 5.063048860881556 7.488002288848702
P 5.436728577111754 4.801200041015031 8.799012879905248
P 4.111310365551848 3.4176791492108634 7.671594377001009
