13
Energy = -67.56007787 eV
P 7.784077078574773 8.060406140246588 9.652045801523856
P 6.352064467915104 6.423094576901778 9.184116768804353
P 5.729062127973204 8.56426413584032 8.971805751961172
P 8.168360001053822 6.6853106845373445 7.94211974268962
P 7.796185137124068 8.121472721554461 6.295641983403866
P 6.564042190811751 3.8116322121739823 6.233082496426595
P 5.796060013306708 8.958973807330942 6.778691470312753
P 4.310810263128501 7.398613103961673 6.373149900678471
P 8.055570228046275 4.912178316224975 5.000512932211714
P 6.626390433752511 3.5057706359647707 4.025364424099883
P 7.291200822045408 6.909530987706161 4.454961392656719
P 4.84430253813113 4.439327836072217 4.970349957374052
P 5.070391882919637 6.597942026267683 4.506674562639581
