13
Energy = -67.59436518 eV
P 9.0185944421082 6.530939021241863 8.064078547700166
P 9.753919869747039 5.564688411039629 6.209697900247266
P 7.6650088252432145 8.213445620594394 7.357383799890913
P 8.042178866340288 4.630012418304914 7.352899052439456
P 5.8756726017267376 7.200680113521949 8.18206798681169
P 9.199105758733197 6.791864907407137 4.517635605578242
P 7.460072126238961 7.954814241345291 5.137551439538233
P 6.019768977174466 5.451948601469935 6.840421462975156
P 5.9826344379631 6.346946094233356 4.798881640675281
P 4.279056533578219 4.301962978816028 7.079978691219042
P 4.089277594839292 7.429034332714334 5.104160463683774
P 4.062092313981336 8.041292342029589 7.283296302762665
P 3.087186982318676 6.076940247274026 6.60651643647125
