13
Energy = -65.2072787 eV
P 3.853692758208122 5.393223417056795 2.9350750551658953
P 6.652030204422117 4.846976054324282 3.8407239669328868
P 5.6094959405598 6.671129175931208 2.9875560418285074
P 5.609874864130725 3.017867477213878 4.312905830272393
P 2.827093124739686 5.2581589720565765 4.825412235674152
P 6.186184474148384 7.919014165036666 4.662752276571631
P 4.992840480058819 7.673181964452996 6.45085850886907
P 6.929134629367855 3.060428897330085 6.203737900393888
P 3.73458006879132 3.3147861332358066 5.528237443524407
P 5.048839735366407 3.8641714798695523 7.275626087823838
P 6.048687178454314 5.763503524204362 7.064122648476092
P 3.201321854903599 6.444879197436945 6.583446029835265
P 7.7193289535354195 5.185783808537824 5.742650241319092
