14
Energy = -72.32514262 eV
P 7.938122791300404 7.323127649586922 8.610334383863275
P 5.1705116135205 9.54663848995053 8.242981624913893
P 7.157059791961155 9.94439931423198 7.811333152715363
P 5.514639269467909 4.920696152643293 8.350072382857439
P 5.242194075594074 7.915010304642216 6.392941158608811
P 7.140726374312668 8.820259142978033 5.722221082987988
P 8.800152198872322 7.7224578623818285 6.626154496086339
P 7.743794211574862 4.9360947834210736 8.600616387877425
P 5.759950885967771 7.211878424898574 8.394927639858022
P 5.753507799286546 4.3472896947677695 6.1707867075030665
P 7.960217051514476 4.237160259459088 6.463800531193207
P 5.329912508950252 6.072180305267505 4.84611664851755
P 7.21183792662509 6.6984331560173525 4.045395565144003
P 8.86404205764133 5.891043253412581 5.3089867944631095
