14
Energy = -73.59657778 eV
P 7.617665500572827 6.206613594201864 4.7706549762127475
P 7.5943049089491605 3.5978864830851407 7.433220204694388
P 8.099360758550814 5.737950834893041 6.892160301623031
P 6.279698490462519 4.652363663709321 3.9094252987546456
P 6.375825544590148 7.975763489613907 5.267878464883337
P 5.060400736534173 8.039006549702467 3.455095527357916
P 5.5081785635664895 3.050093169161952 6.980193838404371
P 5.031015293896519 5.961746137419326 2.604870943137094
P 3.302994910808872 6.7107877441579085 3.885177838165529
P 5.865868780946386 4.351436010065721 8.722571732198215
P 4.597473507297039 4.0139733889659315 5.1846602153760735
P 4.883430754154801 7.389314579653806 6.800025016658051
P 6.3924682564580575 6.480471876429334 8.159989977382969
P 3.5725001756968573 5.824780795998585 5.914637889161882
