14
Energy = -71.71478648 eV
P 3.900806727405229 6.3749899920476665 2.621745824247944
P 2.544645336796727 4.663522167874037 2.6084500495568257
P 7.412994308222254 4.748554000058791 3.1196940343719173
P 5.183314735662624 2.7426313472693966 4.288614894824727
P 5.105859890322828 4.969134061917643 4.166516680860316
P 1.5799360580966368 5.604341540947034 4.345302373091182
P 2.916702558517869 7.346123661244983 4.314229599555108
P 6.17307268581698 5.581636097865185 6.10942050168422
P 7.475417936404868 2.8670477409884283 4.299559308651277
P 8.233350328166916 4.801123016004216 5.082324610650887
P 3.3054973659232014 4.881759034050487 5.568347381830192
P 4.038896956438939 2.7750789646766463 6.184335189515902
P 4.198034288170205 6.008132079002276 7.2060694672185335
P 5.355144522982181 4.059599994980961 7.50906378286857
