14
Energy = -72.99015752 eV
P 8.21692839524551 4.343977654146246 3.29548910222797
P 7.256368357465866 5.826048315427647 1.935064554366209
P 6.920996665407224 3.626338197830196 1.5951076222655833
P 6.521625162150388 3.8704168047592593 4.71630247489886
P 5.935463741778329 6.028958514481331 4.950533337470348
P 5.184031791526927 5.965814109853346 2.8353877423871663
P 5.095621881353415 3.7144261580411824 2.983201225092226
P 3.2607175055748394 2.4593175971385586 5.7834702371865525
P 3.9396159765059995 5.970793047465108 6.064773294423243
P 4.069293719673373 4.030392778631137 7.077150919970193
P 2.0599017680937624 3.5424054290656444 4.176496771228462
P 2.346851934875902 5.665752741955994 4.576541473246792
P 1.983854757902855 3.4621361155133 7.366844781569361
P 0.8167045328016586 4.628063004234603 5.740168468067833
