14
Energy = -73.68157272 eV
P 6.664293159504735 5.142528743511353 5.752129240728858
P 7.258505621578786 3.7399862432815336 4.049514839330216
P 2.8858881546444635 5.029379178807549 6.800400388096963
P 4.242326169507956 3.215620753674748 6.500238347098576
P 7.39276533800688 6.944182461989854 4.576995864537364
P 1.9134640805558256 5.36576073349723 4.864992912552884
P 2.4830476314019023 1.968410806842765 5.787658543838692
P 1.104939596781908 3.793188879260265 6.141767693269627
P 8.040512718549046 5.513805896384444 2.8769652656889972
P 5.262451133499705 6.569351900936158 4.865603981489581
P 6.211635906220385 4.489302197033222 2.275452352138158
P 4.013532270154847 2.66321875961289 4.395638839128324
P 4.598885884339261 5.846868108970675 2.901198206871626
P 3.0158118887261556 4.283387384940327 3.3000638598718908
