14
Energy = -72.60502517 eV
P 5.3616630675090144 6.045969495187405 2.448140574836057
P 4.677918335010873 7.991101881420311 3.2517927204994024
P 6.748091136709184 7.814429203914613 2.4351892752787907
P 4.386175196954602 3.3298792402482387 4.216680306196501
P 6.767427878221664 6.414049901301686 4.178077576304475
P 5.755555845436582 2.824531855048163 5.887106091561404
P 3.243869420380457 4.980734487273681 5.2083759833388
P 2.923193895817571 1.9381455064758881 5.340709986800579
P 5.550010320141165 7.729742329471881 5.384385912694037
P 8.09184667089807 5.333298997565984 5.405358095506184
P 4.589886609274452 6.084701998745834 6.570389053623997
P 4.088003186596962 2.226514068883616 7.241416331284009
P 2.416048762824811 3.6167174663569606 6.752728983709635
P 6.460352109056449 4.7302260029380285 6.7396915431991395
