14
Energy = -73.63903891 eV
P 7.692063331436888 6.23573448842206 10.566453240449011
P 6.51818364819165 7.278578084261603 9.046692757536041
P 6.285458416806127 5.108250695401605 9.202547783884784
P 9.492084756440335 5.314122464708933 9.424464197093274
P 8.008955611941742 7.778428260794147 7.5179727550182625
P 8.056021821125103 4.230107893453178 8.053981631430595
P 9.213866929018677 5.954857021418044 7.356949701815083
P 4.799956587876152 7.478284337594608 6.077830080095416
P 6.937469354290236 7.695756119627847 5.511645826294981
P 5.91331523100305 5.719694877808377 5.40294422878066
P 3.8461839027525757 8.262956469993622 4.215271899981214
P 5.569745067442008 5.710420947323499 3.1943702632931648
P 5.216930470717339 7.803719680034754 2.5319972740889427
P 3.491435541817271 6.470759330017028 2.938549031097876
