14
Energy = -73.42301741 eV
P 6.762621391722959 5.412809487839118 9.98963062682266
P 6.8615305033973515 6.5990662007039935 6.768873839048747
P 7.223010396466744 5.345797512861036 4.930674375461929
P 5.124347316369187 4.420169204328969 8.838223368236646
P 7.192000580883905 3.5880995059854786 8.800433578415237
P 6.473310763508451 6.773172276763502 3.3971336892912243
P 8.118088682626036 5.524177183408662 8.229865280148717
P 5.290548165985436 5.3441565216917715 2.1985042130101284
P 4.689028028227656 7.959784627127618 4.029307507008443
P 4.853306023978283 5.612976156657426 7.014089440004241
P 5.436735453563416 4.061284176533141 5.487175755020283
P 3.7293021794665817 7.0602178420667165 2.2016164781997336
P 3.9866546549095463 4.506918747955747 3.8141873005575464
P 3.0554897397601057 6.473466306942431 4.269847194930051
