14
Energy = -73.4085574 eV
P 8.189216666177636 3.5381396721594203 5.497858051835404
P 7.334644561749718 5.299633364121467 6.529713410337732
P 6.5332899244967395 2.48366585750873 4.432270396323626
P 7.019612087490418 6.379358865521178 4.630045539474888
P 7.229513064561262 1.7473871208054952 6.413063713618052
P 6.649439507133034 8.545559021333498 5.070868931708665
P 5.330448322738227 4.528953943951843 7.188101951736312
P 5.179834257213538 2.557307757791912 6.196498924677806
P 5.557349253649805 8.806721032887552 7.040416153620193
P 4.727525721155269 8.315886397584169 3.909645877903449
P 4.8660092767101615 6.053302311219199 4.078939505826768
P 3.8262353566281866 5.625776846407909 6.003507861695268
P 3.8350960822628952 7.458523781057836 7.2408315348642125
P 3.6389808732251283 9.074557347397171 5.790315295463942
