14
Energy = -73.41493548 eV
P 4.374746767984281 4.077365377752118 8.642611595507587
P 5.631925432471341 4.9420799563119315 6.95304106126667
P 2.466597278313019 4.919448365738123 7.814477619671783
P 3.1744660723626668 2.961275830228336 7.114159199023055
P 8.785861612746306 6.214520914520175 6.797044627444615
P 5.541597413002215 7.131245863952063 7.377311977262061
P 7.662345497932797 7.611283064420906 8.071375786493121
P 10.348067796328534 7.675759506187963 6.034627960965844
P 3.6294583283242523 4.798934798551686 5.89762995109089
P 7.226418187136522 9.232308517430896 6.606697522668656
P 7.690909245560078 6.352420261330613 4.852144464625112
P 6.111487214883655 7.827853456700712 5.286664414820864
P 9.161673360186416 9.487819256150406 5.53166496889201
P 9.241655910057288 7.814894948013145 4.067758967556364
