15
Energy = -78.62329843 eV
P 6.531159323538887 6.295651627246261 4.407907107756267
P 5.604475806211998 4.774657995409466 5.757225628601346
P 3.4613896001133706 7.542384620711791 4.833862343799154
P 5.583952718596944 8.22607777259024 4.858253633913289
P 3.492533417383198 5.340224450300898 5.387928016917782
P 8.442138554012864 7.076489044562411 5.215814135103938
P 9.66565566261302 5.310263191195856 5.735223070209491
P 2.930427870727983 6.923967078263231 6.916044713816785
P 8.043109528563853 7.817156907941643 7.286829161972636
P 5.980281732289013 8.708646553701952 7.023577532508804
P 10.63479976300111 6.211564896705381 7.478152439066381
P 9.12005536108205 4.669001974610071 7.815063635458159
P 5.625130817969576 5.243169138808199 7.940021415880037
P 4.73480163184213 7.236479853347894 8.188606146117138
P 7.582359478137531 6.056536160687944 8.58776228496247
