15
Energy = -75.93817529 eV
P 9.331734080378535 10.791962871541465 9.045002809080303
P 9.357021944426752 7.540222570679756 7.345249308924604
P 10.478025004367991 9.262953320204968 8.00192292931115
P 11.277360423307153 10.99437667392746 6.955045141865755
P 7.599966621764949 8.135681644093026 8.366823589274185
P 13.184023744491688 10.55445739251234 8.010556976865297
P 5.723805895139579 7.257004131414267 8.013584696783532
P 4.5794217783716515 8.340274193635235 9.414125565008346
P 12.422173263047299 8.594977985054843 8.898621374629094
P 5.660037502045567 9.554902452284793 10.741432493361522
P 12.74631656957271 10.356934620865204 10.189203340921955
P 7.73995344696203 9.343299951044465 10.197723103214795
P 10.753095188918804 11.191561789954235 10.691047474138797
P 8.745033752631416 8.609816471560658 12.044818726498338
P 10.527574508494384 9.597117655147652 12.210386194042567
