15
Energy = -78.30058667 eV
P 6.67321268273458 1.9943574644084718 8.604589498623858
P 8.430480444305111 3.240946348709125 8.194479192233453
P 7.069367483080641 6.821770904650006 6.4809035797585395
P 6.528562749087791 5.347946719393842 8.04678458227199
P 7.381425085805248 2.279169680298269 6.523566622296519
P 5.621727610578604 3.4490772075695357 7.232109167115338
P 6.672697377453666 6.073077941472733 4.4246093367691595
P 4.807937880575863 4.896623385284248 4.617388481531587
P 5.871350627191291 8.008467468761735 3.7724488572586066
P 5.030637602556064 6.9448446318386665 7.461492273631127
P 3.618727534049153 6.2765089546539805 5.871201066068267
P 4.9406546730168355 7.203150266774679 1.8911242063820524
P 3.9035834368226907 5.371538478080363 2.6224605063445052
P 3.8309942514259507 8.1422386130716 4.736287802092965
P 2.885199850425899 7.336341334574961 2.8593397608886195
