15
Energy = -77.6419974 eV
P 6.959608147702454 5.921476365553763 3.987155072216255
P 4.962396215292958 5.378028850292336 3.191025832083389
P 6.143902797677442 3.855621808421603 4.335672649801959
P 6.21451889968046 7.320092089340562 5.55294092650871
P 5.974425676504467 9.102695187281059 4.400139851309816
P 4.083389794655304 8.521142583071482 3.5204017654757966
P 3.4390890253861794 6.556948011857934 4.323790649412232
P 5.609191858795083 3.5158215909851456 6.478971961093154
P 4.204580366254894 6.951777820403873 6.341187492846675
P 4.5405302214185985 5.136038206303381 7.586769695229346
P 7.678500010023126 3.5844314163239206 7.284913153484763
P 8.774967058415495 5.4923081807119285 7.319368007405627
P 6.00647495606101 6.282106982288154 8.783771820845505
P 7.444803404848666 7.330829645714251 7.393256943497118
P 7.626105478703515 4.7131651728713795 9.163118090209942
