15
Energy = -78.72737408 eV
P 3.260901674154589 8.178145740749878 2.0904912965157223
P 4.645784823683543 6.453592722224735 1.8745553659309617
P 2.4482935416873053 6.117115823652034 1.949026943874343
P 3.5333390193959486 3.3705923773077693 3.8524036026958357
P 5.236856197232182 0.6012562724016894 5.438192270762722
P 5.512430455950895 6.252908739303488 3.8956749235154744
P 6.578588202900808 1.4932845736850195 3.969258766861045
P 5.6827132950927135 3.9619151705007565 3.9451459687742925
P 2.1917758879003117 7.297492450831793 3.830898854001674
P 3.7774285532177285 6.65060356634944 5.228238960373225
P 2.816616299153072 4.676393174255459 5.540613657118393
P 6.9608991335637205 1.8416834563672535 6.115174039828764
P 3.441575616357416 1.9629062315871435 5.581041560323874
P 6.151926893789275 3.974947836291417 6.103931865040381
P 4.153909826708695 3.560201285280329 6.978391345170607
