15
Energy = -76.75108169 eV
P 5.693363584480001 4.7566531063200035 2.5714112703331993
P 7.441910076823198 5.9458046274859075 3.3489060250751943
P 5.685214194407737 6.990374208433043 2.4803900410288087
P 4.862477249085506 4.513185022702273 4.669885878714761
P 4.295690052815539 7.687319864284704 4.187128652102381
P 3.0962883895466864 5.87048768615759 4.650325999798335
P 5.745456027339249 7.7306784030530835 5.833401142264409
P 4.680030484558794 2.5528727396093407 5.458339939384367
P 6.671270634526692 5.646830204001172 5.487663537218961
P 2.6957844126962414 6.154720725492358 6.760598643365985
P 5.91065679328866 3.01021724482526 7.1819714259884435
P 7.619726592211467 5.5929712681184975 7.578862349280038
P 7.685042109341725 3.732635688345528 6.155450960115558
P 4.534615236914927 7.020922086853774 7.558058092547969
P 5.636820386305669 5.048673348660307 8.331952267124432
