15
Energy = -77.06991053 eV
P 5.8249424871732165 6.598110106992302 1.962071447229346
P 6.75254545972442 4.520749290711948 2.2785377007157788
P 2.908316848674141 2.260795420911688 3.8546183945269514
P 4.80085242522362 6.544288201146153 3.962287105461978
P 2.122746684218695 4.335878620032092 3.723817301292865
P 5.848944523119665 4.5413084476955525 4.30012551936785
P 4.962270111145274 2.5696735589731032 4.69380174958962
P 6.639133607932591 7.759641189633468 3.652834581372442
P 0.17400450566569345 4.132985995795031 4.673771779074664
P 8.078742380135305 4.797706561072607 4.051280582539463
P 8.388810933899943 6.830679997271919 4.507882780023715
P 2.43907828295355 1.5196120785769627 5.958890226679122
P 1.8126415702441858 5.072742463597453 5.778263812656976
P 4.320315365349688 2.5276038945966595 6.848294929292928
P 2.3031891212391296 3.3647584796927896 7.130056396875265
