15
Energy = -78.55466201 eV
P 5.162188500008295 9.10943080344969 4.748515698288851
P 7.116925599821723 7.1115585217332775 6.387786780524832
P 4.934712884689342 7.358389495187694 6.180781258490009
P 4.723493250578294 7.938386506634338 2.9213184585449414
P 6.807469733345301 8.481488974566242 3.356999443133423
P 7.592386598262982 5.038106696505984 7.0486252428330705
P 7.706968978114895 6.644253568936387 4.310295357824144
P 6.106321899714061 4.624615311175671 8.636558345216336
P 4.3643175780184436 5.936673780845816 4.604849550555288
P 3.9682639736500223 4.727707997977834 8.107282260019039
P 6.997324210420108 3.6572309144164166 5.339920974306845
P 6.255179080507631 5.054983801978164 3.788230662413943
P 3.5456323646652694 4.276978192688723 5.934658054406587
P 5.122353823617629 2.73251637364531 8.128030357720862
P 5.085140680232504 2.6685632942068285 5.843169524127402
