15
Energy = -79.09011096 eV
P 6.228801203142618 6.684068830248447 2.537670697305507
P 7.941483113512012 8.139529256864552 2.6393894864872522
P 7.279760930528346 5.643740189657208 4.197618681116226
P 5.875762418797373 8.752020744650649 3.2842882470581114
P 8.432729291608611 7.449303228556766 4.801023787161428
P 5.654140824240195 5.404320777708724 5.660734103482973
P 6.723003108214319 8.772052359737653 5.338867578816782
P 5.2480784523442106 7.532981113125788 6.405224200130758
P 6.803233521547069 4.462574481220017 7.295951095355838
P 6.14062622934543 7.58153140143721 8.424150938588255
P 5.032631655814841 4.231031421436877 8.633907464155552
P 7.839024344312368 6.210418086589723 8.146912900026688
P 4.587399445555472 6.278849345791825 9.3584171225983
P 5.8275431048276065 4.9072251678895995 10.602880315975424
P 7.925437434337766 5.4900086732135005 10.212618459868246
