15
Energy = -77.02683616 eV
P 7.33654207072235 7.760788240402057 8.856373284198698
P 4.328594154288362 7.741448848542421 7.2243036670142375
P 4.885949163436798 5.559774254401856 7.488947004967044
P 5.9655029081068065 9.135295049534939 7.771582253602737
P 5.292405111655088 4.826498492431948 5.454439331359005
P 3.7740046402042178 6.060857908543679 4.406637056503456
P 6.595073340432785 7.942319662121764 4.464266556864646
P 9.045172203788079 3.499547813253136 6.480212481347625
P 6.916807880861218 5.311768501476874 8.33235280498615
P 7.306880821479015 3.03219126986135 7.363385668276961
P 8.842552595617054 7.931461331549631 7.242172521409951
P 7.184138026882045 5.804249194490229 4.766178706701978
P 8.295505104756595 5.73473469576418 6.692712761909518
P 4.439912023695597 8.062793112796887 5.036849306812948
P 7.430007585622883 9.235319256377801 6.058634225593932
