16
Energy = -84.35677586 eV
P 2.9784256032294896 6.216304249818904 6.13722696141576
P 2.5948895920927426 4.925909807493473 7.687313494111733
P 2.9138107783764124 7.05338628653177 8.200615901512379
P 5.750457807122772 5.755002640267408 5.903500237197725
P 6.0541461408219455 4.09890208682668 7.332063482602338
P 6.188971722577478 7.578361270026993 7.0939764528328
P 5.0862104270563755 7.165187513197135 8.933981164986609
P 5.55771982631044 5.02098690509616 9.312651309820222
P 9.633564889376338 8.34129831524585 5.277990102113783
P 7.671884019706094 4.8781706496178465 8.656087016315048
P 7.808188168317991 9.071985102631086 4.23793939443486
P 8.113058835298895 6.959793443740169 7.955908106556188
P 9.39605732430995 8.021289362172189 3.0891084766863326
P 9.234367704274785 6.340960991691499 6.141167931108549
P 7.378584246908639 7.104039078503999 3.28704368055987
P 7.662291376519783 5.491050759438824 4.776054750045932
