16
Energy = -83.68610402 eV
P 8.461109544561173 3.6177328933064543 4.744431296476054
P 8.97435613945787 3.5000346509106595 6.927039255952429
P 6.337396343219037 4.338201593054182 5.3024642896530745
P 6.835983849310296 4.227097159625671 7.4450579850054925
P 9.809231321390286 5.118932379344364 5.665878985435191
P 6.9024489415306 6.367619172601632 4.630600630287898
P 7.682841284268823 6.1983119651156295 7.988327467847011
P 8.500059749158016 6.924414162843245 6.063263794376578
P 3.967782662448249 4.945264217390617 7.06894577314229
P 5.591993736016424 9.750507850577748 5.014248350826818
P 5.979342302553977 7.606077513828995 7.81747881511962
P 3.340296132256086 6.768390568686667 6.127620135250761
P 5.457301249216117 7.699560630086913 5.657386054257057
P 5.907360339603561 10.743625538185748 6.835228721966235
P 6.475177555058821 9.588145682803647 8.49209853820212
P 3.8666191051555923 6.695384276843182 8.309230161406722
