16
Energy = -82.0502581 eV
P 4.828886302796008 4.963242106846262 2.8019143743133035
P 6.751269066588573 3.9589201099652107 1.806447102592968
P 4.400187627923737 8.027592648876364 4.477389056949648
P 3.7254754087200976 3.154022179528944 3.4113772734177785
P 5.95904888770629 2.1110242934998187 2.6298025501694737
P 2.1349604053718734 5.080344963589238 3.7227409994361866
P 3.4724244377594817 6.758627660910472 2.956558654375839
P 7.393341745072939 3.283133553298233 3.784773559943536
P 7.370115143388497 5.4022102872517594 6.167892701072209
P 5.656409945653919 4.78391247980497 4.919192775583523
P 2.139005812603297 5.628850944167151 5.837370402827705
P 4.569395291569012 2.9920988754443476 5.567699526683904
P 6.432775314516253 4.545481231766622 7.803675089101071
P 4.205687402746058 6.364892087233718 5.781606377855422
P 4.386171751089507 5.512775652141454 7.820198526763542
P 3.0564255582772444 3.9144510274571025 6.992941130696117
