16
Energy = -81.94950653 eV
P 2.585733021524046 5.051185212266843 2.0329378691578652
P 3.8845326192512646 3.354388282466897 2.7478578172517203
P 8.687125395917473 5.896183408759623 5.306588898157968
P 1.655961322098401 3.1313234502778045 2.7733604202444813
P 6.787093747490615 5.53665716448605 4.151262767967911
P 3.6348163132716644 6.880798348016001 4.131597674461518
P 1.6708832329028336 5.969832380812989 3.8128578084257287
P 6.950832094144161 3.32287975784791 4.712390458234725
P 1.52886634547954 3.9685171150994125 4.914161684716174
P 6.054566398315735 6.366293919060652 6.035282538822811
P 3.864241676939298 6.586754855349408 6.155349185331307
P 3.490755027249742 2.9580269447085996 4.885743792760974
P 5.3622418715447795 2.9895794918416394 6.231226269542144
P 8.066033545744265 3.917680632250498 6.579955554876209
P 7.813305422840638 7.623667282994157 6.25177205660214
P 6.178024073069044 4.661243861545007 7.4926673112298126
