16
Energy = -84.43529364 eV
P 7.3449746634335575 6.6060119801177 5.250943982573364
P 9.021916152507316 7.937024850944012 5.998378788989216
P 7.572628678001971 8.950032624109484 7.409097160666248
P 5.910131940163037 7.608618745712866 6.64850125265182
P 2.845310288651193 3.6807914337788312 5.446266084367869
P 4.700865570011029 4.91803310139681 5.379828809138064
P 1.662856374093111 4.922923664435001 4.016365354084235
P 9.08681527870732 7.51640366356529 8.181674788605878
P 4.555183996974723 3.0110558315397378 4.2453445972629735
P 1.9764665901129361 3.9992097409499103 2.013838196483498
P 5.848285630183056 6.2046926034761745 8.34619003613663
P 7.986112858916247 5.593750849686439 8.435279239351182
P 3.093214144168053 5.833665769300675 2.5783122606019826
P 4.190173612923768 3.9308662943680144 2.2419213405103724
P 5.845447619444952 4.238350747443731 7.180722786051455
P 7.900402232510627 4.784423031783138 6.367070028831666
