16
Energy = -81.43987315 eV
P 7.722042313127484 2.8388020559243596 5.685917776589439
P 6.1605897019597275 9.53124418923582 7.052496087147672
P 6.233184863010121 4.974459286047271 8.349714328150872
P 6.20485429601194 6.4839789646348045 5.513068533911676
P 6.269676952013963 2.9263179081039623 7.417703085956707
P 7.633942606759168 6.461227313087982 7.297451735731703
P 6.1953944096196665 7.77449227671255 8.412722031598019
P 4.785643474245187 6.430989975720003 7.3015352072658715
P 8.64337688302035 9.140497142812876 6.681728770268874
P 8.498313829441438 8.763322230499877 4.716948112450755
P 3.6787144470321707 9.029838905942986 6.6847655319571935
P 6.17067345769519 8.64682165102688 5.041971246873445
P 3.8403040262510886 8.677903913338286 4.716189751589239
P 6.297614739759686 1.392527498640187 4.721316861102371
P 6.259228792396055 3.5255055040256096 4.141279847708085
P 4.82197799539502 2.7868498575572733 5.685525353743052
