16
Energy = -81.89433237 eV
P 4.814350754746613 3.748911114748998 2.3861817378383665
P 2.580025929080316 3.328118810119524 2.5321648520072175
P 7.043576172089484 6.601154407525875 2.7869405496338056
P 3.8839711173618117 5.718252988119913 2.6513913991229745
P 3.9410116433280082 2.3738945081511926 3.994291432984689
P 2.174998768418077 5.081683152823255 3.9669901267845464
P 6.695957778799658 4.975750404312225 4.138667184827937
P 7.013321264864066 7.6906455915239 6.285924623070873
P 2.953376767296926 3.6500922565985436 5.441470854091642
P 8.014947131885263 5.791852658376115 5.83946753136952
P 5.364445454862252 6.708079851741832 4.116623223382994
P 3.466718514041366 3.942094552877584 7.495320778929618
P 5.434161886644283 7.260582613335492 7.883288604501487
P 7.560392330792661 6.83531913546617 8.32145122154468
P 7.3189784286220405 4.644747619134904 7.6409482366970956
P 5.19566887605948 5.104723154037211 7.97478046210457
