16
Energy = -83.49962982 eV
P 4.47064694621457 9.26309548238403 6.009286259050184
P 4.510972720087003 8.37663442385769 8.036234101950122
P 6.677593667467513 6.90187284199238 4.538642824897102
P 7.72175067538175 7.843942072840361 6.21423489336319
P 9.525682439943441 6.67176140395007 5.61238548325773
P 2.5440528399512488 8.801405777488437 7.061057254970508
P 4.633417438394481 7.5254653178842625 4.643660944123689
P 10.663351644672254 6.089423774160414 7.4329602610672145
P 6.778097545942302 6.290009054323829 7.5270726479720445
P 10.636036971568599 4.046884676784025 6.505226910837583
P 1.8316615811514316 6.841779810016631 6.3231480397498485
P 8.741354308074827 4.620569444388048 5.238218455198593
P 4.618613271787742 6.174223380601275 7.6804044698263345
P 3.5976590883235664 5.841829040643091 5.727690815165858
P 9.475231143331191 4.466112964282115 8.378464612776426
P 7.6261739660974115 4.297286782792524 7.123608274183678
