16
Energy = -83.57887991 eV
P 7.274773070867848 2.4016055097944426 7.6008222441801925
P 6.885137356815587 2.783318374956822 5.423106266627804
P 8.929229111755744 3.1856290519815027 6.256881382264774
P 6.97834324796196 4.412992649976676 8.526503154408054
P 5.055670587437778 4.668854026907493 7.485999561453521
P 5.792970664621155 4.719264059997983 5.3643190682299275
P 7.711475866979431 5.849201868510821 5.349328859052754
P 8.644148460619409 5.204452408757345 7.214884044793773
P 3.9261231542108024 6.433106275156049 8.075997141560762
P 6.6863892190381256 7.731659327029279 5.986250376616129
P 5.63529995581829 8.773533052596637 4.219334045023296
P 5.635734390820271 7.662993706886274 7.863457637641523
P 4.743633612546328 10.315795585528864 5.46360333029012
P 5.610895705308237 9.843724246261258 7.606906226873362
P 6.852574517758192 10.543341517142547 4.801373907811949
P 7.680599405981955 9.51352666705757 6.804231081713324
