16
Energy = -85.08530277 eV
P 10.669981575163414 6.242032241505171 6.9378114463493
P 10.003414061200562 5.067439139271439 5.166014769283138
P 9.767115690301543 4.171506808308765 7.204631711907498
P 8.743646035451388 7.130339959954092 7.681193308930018
P 7.976467294193364 5.841489358810463 4.618531351624754
P 7.830986022695389 5.0654501420347895 7.923325852074327
P 8.186638270657733 7.770111743274131 5.683663410853505
P 6.93255821772585 4.5017761326595025 6.014590584998808
P 4.75505371421857 5.218186737884874 5.92611593690313
P 6.022291935538008 8.499212892531702 5.961289310163505
P 4.833920451233752 7.0934664754644725 4.753423199360062
P 4.434617759092208 5.94850059783665 7.941808683541695
P 5.33457083298542 8.033386427971687 7.979351078999424
P 2.8682601493417295 7.873163557192051 5.487216171243784
P 2.4242129601027065 6.774252228117212 7.3743183948312865
P 3.3130660888239896 8.866486615908636 7.443515847661708
