16
Energy = -84.67402394 eV
P 7.438215704703471 7.5148766784085135 6.053112331383324
P 5.775740978380175 9.994178409619495 4.19335100058768
P 5.9259619797124365 9.119814060972546 6.246435083593385
P 7.294660889049167 6.9756640401054435 3.882893061830982
P 7.637655170888997 4.38218621079559 5.8997563087314715
P 5.463076028186078 8.02123675847628 3.209825946799558
P 6.530230627630264 5.8043186473200175 7.161910075264803
P 4.196818351521873 8.616640569466936 4.946433567602913
P 6.719465692561862 4.80878984481901 3.904452620326215
P 4.437171611156318 5.707009125532362 6.430299247600671
P 4.560983269023274 4.721710390419736 4.417615735632911
P 6.561519364409964 2.428985463256388 6.177874144634154
P 3.724222113691566 4.099174962439779 7.7917635476841784
P 5.21909948560129 2.478384373031988 8.00087532751142
P 4.775430003590114 2.570178871328714 4.814817666268581
P 3.4145446619501723 2.2810066275109016 6.599250832158827
