17
Energy = -88.58941379 eV
P 2.7136131613903856 6.813647794724758 8.237387739675087
P 3.9014315185073607 8.318123594679095 5.630042280912622
P 3.122864565637637 6.251651288169538 6.194153353999853
P 4.673001331723737 7.435681949078573 8.955207295707414
P 4.954607714689563 9.023627773247494 7.429317805901467
P 5.629653960163654 5.5145213072716315 8.47051650624814
P 4.91954120241065 4.92743542311177 6.408054618880202
P 7.746672586026844 6.120119755498189 8.230630618896292
P 7.594773488201687 7.063519168291642 6.239785595728745
P 6.441916814721339 5.652825554962633 4.972357934771042
P 5.629470250585893 8.76550161290363 4.369841743422874
P 6.876424767011832 9.159873590927496 6.156759441678142
P 8.670782720995675 4.295560669690086 7.453975495689323
P 7.85128063445666 4.009923204735152 5.3468329723959584
P 9.688664881365673 7.005195838996295 5.454450449560425
P 10.519739381556215 5.2770056104544025 6.592822747705786
P 9.698078282111227 4.998303124812904 4.490380660382364
