17
Energy = -88.54837896 eV
P 5.892191995106437 3.9450356871722247 9.721137404562132
P 6.324535284383478 2.5523108228437605 7.974222241538469
P 7.846038464678656 4.015986214229568 8.657324427355523
P 4.540700189641387 5.2203837722906705 8.432581191313668
P 4.773645972358734 3.6611427740375992 6.811267300602417
P 6.046931579912429 6.8195441215519965 8.499689850635768
P 7.983385627350785 6.051060242670212 7.696080128514877
P 5.470232772410279 8.343415638470757 7.003767910484661
P 5.898472611395551 7.2592706999950165 5.097638806676129
P 7.800766864755528 6.115416154386751 5.481720652782767
P 5.937609677356396 4.367166955226388 5.121222522122074
P 4.42656756438437 5.813987745909921 4.524259851610061
P 7.379067094835888 9.44726248916667 6.973974739093603
P 8.848927083192876 8.159482928771883 5.8753109931056375
P 6.141900931290287 8.995368125926595 3.7070724847834584
P 6.914913977625617 10.579578509684236 5.056497653579079
P 8.356528174642754 9.236002982987353 3.9486477065620145
