17
Energy = -88.91192127 eV
P 9.353078690609706 7.902456691543387 3.640786327778986
P 9.761285106768996 8.947512953763473 5.5750418424198
P 8.554259176022843 5.888232205515933 5.977048131632356
P 8.08676561303271 9.677131162795334 4.263762208345981
P 7.603348843045665 6.594139037273936 4.155128613931049
P 8.744773599605372 7.776857644434394 7.181362367010624
P 6.668590422728425 5.033913449148772 6.822082026101702
P 6.353676606438714 8.349911283830371 4.829428725260845
P 4.826077872076888 5.001423426728451 5.614021720197135
P 6.29247757054527 5.681893263731963 8.871225586483144
P 6.819398206084791 8.783748632629013 6.934588313944219
P 5.491139910797876 7.72607591365779 8.45564369965255
P 5.780705704598013 3.04288881302953 6.386597835197041
P 3.348598192269911 5.3896754978268895 7.203916512001356
P 4.8690992309309005 2.6095791882499486 8.29022427764729
P 4.358937906677565 4.583929040110139 9.026973757545795
P 3.626662461191509 7.549506909155982 7.311043168275569
