17
Energy = -88.60086398 eV
P 8.08447937615771 5.865618509809743 7.126543907494363
P 6.741191025254134 7.079981603344035 3.59189280679833
P 6.804722417478948 7.666367613099684 7.355259374133479
P 7.01887686643702 2.4872673890352917 7.232091833634116
P 6.820981725424077 6.13497748074186 8.944697898286158
P 7.318668632031614 4.193600543276481 5.806227483419476
P 6.165886093491111 7.350292599222302 1.4705419142902252
P 5.872935095829404 5.379687103088063 2.44792298845681
P 5.070813264929267 8.230319948547516 4.515654301944323
P 5.175590777516083 4.153255092304328 5.258731530590899
P 4.882891091594757 2.271643871091567 6.458637846944826
P 4.699988025233057 7.525029983155375 6.6035288161034575
P 5.275108772754912 2.915814766628227 8.538503847837053
P 4.807722979141477 5.0854695830296635 8.670547062229765
P 4.006598335821448 5.42816289441939 6.6429613420219065
P 4.082673401633102 6.5436615861171665 1.7945349431104787
P 3.2668500227868265 7.5117904350236815 3.554307974670285
