17
Energy = -88.63961221 eV
P 8.140638733705568 7.034223499839986 3.139202380786137
P 9.476244931797218 6.420938800294039 4.834180471164467
P 7.966874656672016 8.086507144048719 5.122439134624352
P 6.43416704496069 5.5943275193609345 3.0518193292638958
P 8.566613573343817 4.614368380607927 5.782106651546199
P 4.966463345538494 6.564117481284485 4.368662353060017
P 7.2564184515803145 3.8135606713566053 4.164148684593199
P 6.171319122281654 7.160781353192279 6.137125145965101
P 7.266407626550658 5.595133987107827 7.271095395173941
P 4.3073684550370785 7.145976785507954 8.025570657168132
P 3.979582320046067 4.5590226180556215 4.543713661397458
P 1.5135554122235086 6.233031027122391 6.103765249596648
P 5.476950779300638 3.147434737430765 5.362041624052044
P 2.5520774062095137 7.803717114474124 7.020623535092915
P 5.911193175363798 3.8716892772389104 7.511603934116269
P 2.7310228964838736 4.42395470210207 6.3700403936549685
P 4.012364395241406 4.964342043302428 8.090146865406417
