17
Energy = -89.2803204 eV
P 10.895038393848111 4.639935239839946 5.892131081378634
P 11.205076239683805 6.757587539402094 6.666365488503254
P 10.348833444047221 5.17703740430151 7.987530575344776
P 9.11365421804162 5.344171163493662 4.719167570174678
P 7.6715179489743495 4.4468959605233485 6.11033371071497
P 9.421051030864815 7.450838706797232 5.484710015959772
P 8.143432813276084 5.5390404166601135 7.991382159590799
P 8.141083290045387 7.613030690062763 7.248481322449875
P 6.027014751734537 7.619502214277416 6.195191770313284
P 5.009861282454583 6.747531800922711 7.987630983834972
P 5.929969278955406 5.5180733110167655 5.269634326380142
P 3.199627999426032 7.942016575419036 8.41000632539275
P 3.942316706365124 8.095387368685097 4.933994632820407
P 4.226884357762981 5.099498411688636 6.706357741292056
P 2.788522009119177 9.114468936587242 6.540893101078976
P 2.8388140869030845 6.223477585925622 5.385966041052791
P 1.6343364446224915 7.20854097052209 7.007257449842678
