17
Energy = -88.77562168 eV
P 4.040022303037409 7.375831565658976 1.930000597899516
P 4.94501356071117 4.323763059485434 2.8652075195553395
P 3.1656224005561957 5.629517026622518 2.964547754861898
P 5.8482787431362215 7.697053312127183 3.2055001887868313
P 2.9486796277905785 8.525704985291071 3.6019983707192598
P 4.601209129143342 2.9910330012126654 4.544472878254845
P 6.701366388243839 5.629043040159516 3.4971446635282235
P 4.6441006665761115 8.121267579861334 5.038319061641398
P 4.7906583536717156 4.432977167507315 6.152880914217787
P 2.932398663320567 6.693643465567879 4.9285549154792
P 6.515306985911377 5.774728578972559 5.687905873814638
P 6.108226347596256 3.265893864614928 7.57785301970436
P 5.991391408407944 4.504316739346219 9.409485801110465
P 7.212581833378699 6.344545950025159 9.177939307938555
P 7.850046014186442 4.133268657577424 6.489542718176948
P 8.847984195446127 5.307455506571488 8.068379706702135
P 8.125978384549173 4.510278531933468 10.029347347145466
