18
Energy = -94.28200254 eV
P 3.93802541062311 7.922173610887298 4.7547936360390874
P 4.082814210386213 6.812331637272646 6.688552212774065
P 5.842510052155331 7.686933686183466 3.6066450104041925
P 5.528645203490933 9.536984727214513 4.920552921898032
P 5.172550150733033 8.394797812987866 7.793975602681873
P 5.904852231918624 5.585692113981397 6.3019566471314326
P 7.267824769976819 6.712919448370792 4.970934306972775
P 5.777266238109651 6.973258170659624 9.410831548911272
P 6.882091576769672 8.776047917581467 6.490049862422658
P 7.222452255511807 4.942914123855394 3.3033768924846245
P 7.576584557947456 8.004860746899016 10.162131895945429
P 9.108406147070033 7.952923624037399 8.549884698937088
P 5.391487429062332 3.568640310723687 5.6135335630625525
P 8.85086701787017 5.793393382679732 8.145280145051807
P 6.717817005617413 5.218629562283881 8.352049487376926
P 5.389588575469446 3.6915375448741057 3.3831464657233856
P 9.198077630012552 6.473057225897721 10.236685169840927
P 7.235508348001656 3.0402731643362495 4.4029887430679775
