18
Energy = -94.19084394 eV
P 7.108679316918343 9.463905907830593 9.422806483328994
P 9.194411943316414 5.258583686967105 9.516817967352338
P 5.07007316959964 8.607713704472324 9.78060913634797
P 5.272422148281907 10.754082477936558 9.340041618216544
P 6.964539478957418 9.283949583198003 7.174684708272596
P 6.2217050132402205 5.717944286707633 7.931892382452829
P 9.600951124686556 5.796846046408073 7.545436179343119
P 7.519336265877302 7.158005030568279 6.838460615810497
P 8.040171438223839 4.2633991250052015 7.9742395611105135
P 4.757148697864377 9.315071424753697 7.67861388808417
P 7.082468919363344 7.030163617950105 4.682716447971568
P 7.800754312813662 5.019492869333942 4.145217959727935
P 4.992515754749086 4.8736887724028675 6.261245165949212
P 6.387359126699474 3.593466548761951 5.144567280981796
P 4.923556523486495 6.671134666756157 4.981556063959256
P 6.515180063740116 4.9949919322865055 2.2946700431090017
P 5.075704078446231 3.5507009928818145 3.310368900859877
P 4.510585426476068 5.68442212851982 3.013618399863143
