18
Energy = -94.34744101 eV
P 10.345687470715557 5.049201512650678 7.449378183645762
P 9.008749402485146 3.669499057830684 8.623153892825641
P 9.041831666432758 6.023775572344378 5.87204459590942
P 7.402545348693261 4.517600974356968 6.0404365229029615
P 9.680078873939006 5.616127389173722 9.53954944273733
P 6.96707184063677 4.49930510193992 8.17362931765436
P 5.4096737237750485 5.122792872122566 5.173499020443119
P 8.682850999231722 7.693089413217108 7.293482669731747
P 7.755748850627488 6.540691223391934 8.825149695301931
P 5.592050755951336 6.464971620262894 3.47526041472742
P 6.7077393338707 8.303343120547964 9.48329560580755
P 6.886650736051091 9.068885688827915 7.4008774679073035
P 3.3785242860886555 6.224060776866307 3.2080768025436597
P 4.340606958134702 6.353740708624953 6.6620509862981665
P 5.262814847148927 8.59139145575292 4.249871091598177
P 5.001155191195609 8.445263390273162 6.399376401096927
P 2.596193402794135 6.589308968331825 5.277866591406801
P 3.0558737561551323 8.342798597412033 3.9688487413887743
