18
Energy = -94.60637661 eV
P 7.712852668325014 3.8033488006512046 6.077504635172613
P 5.23288801219627 2.76206814040947 4.896140638707868
P 4.322164521075445 7.292066548855017 8.080452006860538
P 7.224162127666464 3.127138622647864 4.003442585564685
P 5.565676331821795 5.451943911600813 8.02974926730661
P 3.9557697809017434 2.9196815296873537 3.14182481796385
P 7.665035537610791 6.258556296163601 7.8766474158378035
P 8.301896806417155 5.914568528309129 5.755066629005056
P 3.2495057733875874 5.51851650126881 5.473167761228546
P 5.452226319668 4.7659999430614715 5.883907214796809
P 2.26290777220243 4.142229159764867 4.114812561733101
P 7.3615256561152815 8.443523744645066 7.8355528705052295
P 6.386094749954976 6.40788621100688 4.696360645763034
P 5.365408845007156 8.903959188685853 6.96235611740452
P 6.847689828959204 5.120627080010674 2.9666161581292054
P 4.763911995744524 4.770120357693296 2.1626695223052317
P 5.6112890643155415 8.760390499285752 9.167412629532578
P 3.248052010303257 6.030166092504097 3.328188983004415
