18
Energy = -94.32651577 eV
P 2.7091902626451634 8.08153339852731 6.76758491229576
P 4.003633130439307 9.753145181832254 5.874095820357932
P 4.202159240149719 9.063206681114272 3.716279817373609
P 3.392784255104766 6.199780477736072 5.808491058756833
P 4.146808103236181 6.7256155705199925 7.83152502677778
P 4.382317225539733 6.875850391785647 3.9056961632950244
P 6.130291117866014 9.197118540110516 6.13551834800777
P 6.215031511966595 8.043325648141565 4.172511246887513
P 5.765653565215843 8.210530682745521 8.054995582674055
P 8.029850285262913 5.847414288781072 5.64578481225345
P 9.217325021556952 6.874813051935288 7.170483994387159
P 7.650676148000018 7.192939094831844 8.782152018619074
P 6.714722730720686 4.494267085479255 6.850063862594055
P 9.427924563837186 4.128037369224871 5.190923738851036
P 7.347383657283167 4.949476083169428 8.906890426657009
P 9.552809337296827 5.175178858002421 8.587277816472245
P 8.113170086223777 2.7622974392049997 6.431545833943158
P 10.058605076649162 3.485805475851692 7.228514838790266
