18
Energy = -96.05160944 eV
P 8.83837535629479 5.63251688392412 2.7112280587272974
P 10.125086462199494 7.282989501083677 3.4984410718931667
P 10.324219732830773 5.243780224273465 4.396391912413895
P 7.160415325189218 5.525492409828272 4.207705159791009
P 6.871416681270238 7.710314479230492 4.157681707096822
P 8.829743648976626 8.430166605695344 4.892952962422493
P 8.61989209798403 5.1571160786874355 5.8626515552362495
P 9.101248479836569 7.148818020038179 6.675117196583991
P 5.806326474625732 8.391991962136442 5.991492742234166
P 4.242794830422866 6.852368193608589 6.2538242166397975
P 7.308559065921786 7.976589439622191 7.712309813719686
P 3.3487795673778624 7.694688273063525 8.072724120543782
P 5.420304861400806 5.180249714981728 7.0947129745960416
P 2.233581732820075 5.81013482549152 8.559610809846143
P 4.826674037401921 7.244509255652154 9.729347456128956
P 6.486244139601966 6.2021252147374195 8.746423100172633
P 3.793560632044004 4.225915864450329 8.283249367887043
P 3.72483236610205 5.3522885457954805 10.216191266367796
