18
Energy = -94.47015682 eV
P 7.753741782051163 4.364030177325795 5.597953835117664
P 2.8574067535253205 6.630320351608063 8.016529493279428
P 5.163738047881712 4.04122600607017 6.316205038669383
P 5.960181441894355 5.096146284954426 4.507863075160355
P 3.9345164497898715 7.797637737687062 4.854454387722041
P 6.319069971173142 7.072602318827699 7.33166383114314
P 3.2533026662373206 8.452651795321877 6.845537110247398
P 1.4161324235644883 7.219896991117496 6.384459320325505
P 6.788721912129134 4.924946298291935 7.5765630020348
P 9.850410177969643 6.505658794468141 8.420731883185834
P 10.647623702263376 5.172981071035449 6.80783678079912
P 6.117370809449146 7.240474685209988 5.12470307362657
P 8.42086063383298 7.946175802693686 7.496041999777158
P 3.075756822846851 4.864215207363405 6.683704596578944
P 2.6200069948994944 5.988964634285839 4.838079770612794
P 9.438856630966997 5.640501781009037 5.024556934676488
P 11.19176932409154 7.354414602216949 6.823319609122124
P 9.347129250690113 7.843751209258036 5.506392053177746
