18
Energy = -94.54087328 eV
P 10.065743879614338 8.453705088090587 5.613491975363435
P 10.543504681624672 6.262513974414853 5.552483296320127
P 10.311282742511962 7.328715463900667 7.540796942616044
P 7.83658083410258 8.773848186529303 5.353904803157349
P 7.545190766728952 6.85549022589492 4.292135150445853
P 8.42777998958423 5.561718580213452 5.819560519021954
P 7.371425960709203 8.473893229469207 7.5141409154891985
P 8.234759206558252 6.504895891377698 7.870987064619459
P 7.8076827250177905 3.567000729318335 5.565981398533927
P 5.124779692126272 8.269012423110237 7.5793606435545735
P 4.910905180339807 6.547526622754314 8.905849618071967
P 5.435696924601558 6.035097740186425 4.417677830725647
P 4.42381845142285 7.691244372511746 5.554658061832982
P 5.731610568168097 4.196543335084699 5.702723458419049
P 5.066471653373221 4.564940731479932 7.784188708863939
P 2.701790206319791 6.545691281795406 8.50145878176637
P 2.5646836761303384 6.711493606817084 6.283314527855427
P 2.93700697480729 4.697382630792486 7.188000417084787
