18
Energy = -94.49455036 eV
P 6.191424077728834 0.6597256264140361 6.209783676724603
P 8.133863526366573 1.2731171370454932 6.024043610677815
P 5.183091323017075 3.8468515691092615 6.37352054573957
P 4.953531037385739 2.0826735426329033 5.0364513650326765
P 7.363490240963292 4.519130087789339 6.09394174162685
P 8.162425497091604 3.0092289251352677 4.6477241173266695
P 6.345212151654638 2.650150948705554 3.4031010627458635
P 4.290172912034553 8.027045472465105 8.772010606220974
P 4.081680299206479 4.8668724065396605 4.744596374152466
P 5.682169321007326 4.812957984460396 3.127385827993273
P 5.707960813366271 7.182677392179656 7.4819766670249175
P 7.382398776318502 5.749868898279545 4.231137646120484
P 6.573078291459144 8.839026713446517 6.224633345077006
P 3.318321736470676 9.429198265250427 7.4178227267873025
P 6.241904795062776 7.65893118164652 4.318301920415161
P 4.589696163429132 6.893563079439034 5.510650099493702
P 4.6997261427630015 10.068156285043155 5.805285465512063
P 3.1035794584237073 8.533368523429836 5.366592575777957
