18
Energy = -94.14730541 eV
P 9.902483331746444 6.887573165186249 6.410213184638178
P 8.743154414460456 8.677148481322044 7.093867948327661
P 8.70235113612557 5.491660965191239 8.115204246357683
P 8.77419233011728 5.895548183760994 4.8009283285263065
P 7.348507366134241 7.455584624786858 4.009885195829256
P 7.571335158742879 4.868395213800604 6.403426712610626
P 7.290093933559348 9.120738020224595 5.4899864890793815
P 6.7961114262744555 2.8045176919274857 7.035669585442217
P 7.733971755466446 7.452458381247197 8.73015203128552
P 6.6381472082807065 3.793550264208083 8.943879360251412
P 5.600651688548128 6.103579160018237 4.30321512640036
P 5.647000473818826 7.284731818966136 8.148356389154717
P 5.384101441706905 5.751375507730707 6.504941748321166
P 5.577145315643272 9.12261452337037 6.96210466895252
P 4.876579878965663 3.801993149171352 7.584843576347691
P 3.7068046037284654 7.280501721894087 4.237501182285854
P 3.591216401691905 8.677077127798054 5.97325304841261
P 3.1281245183005066 6.5429243827066506 6.264543561088764
