19
Energy = -99.16049749 eV
P 10.486100659424354 6.438368995336856 8.003999963546418
P 8.461691519461063 5.791506776520305 8.596696102600351
P 7.402778301885912 7.758592721026097 8.783882961378085
P 7.857943884179145 4.677959660675769 6.756268167806188
P 11.074574026753147 5.180339176059234 6.2514327091479025
P 10.316160463241616 7.246481869724795 5.921954463610783
P 5.515393072938539 6.794278512419825 8.31749394865727
P 5.838133668993487 5.607903617124778 6.454888282655312
P 9.162123936308065 5.5254527236791695 5.157697510635885
P 7.799748472666711 9.36225988594962 7.1959768947893625
P 4.3095715646701525 4.136605172234665 7.093708381590226
P 7.182565551663391 8.614313895892426 5.253217196582092
P 5.033282717727974 6.492066402339772 4.490644861917048
P 4.310523736021632 8.435718781562976 7.451893446130269
P 5.792984270877406 9.833766455282921 6.37905731593731
P 4.067610269629533 4.822688993618229 3.61193361942332
P 2.9898219117946945 3.963687684572415 5.305795038567382
P 2.588772210881786 5.553408087429399 6.827560478366153
P 3.387076881603483 7.341457709273757 5.722755777380268
