19
Energy = -99.86032558 eV
P 7.407756742772296 6.126448123709421 3.6060996916182364
P 6.176220130900711 4.642666710415289 2.450728880167307
P 5.851881135415034 7.531248336365496 4.384826134849239
P 7.243696890701871 2.7396110780961944 3.0336670527563694
P 9.184872433509364 3.4989819362222043 3.8299425533585034
P 5.929167485934293 7.204335659502235 6.575717103734171
P 8.451082501174318 5.062899681530739 5.223688817092025
P 3.8851870501682426 6.47612484057104 3.763386393648707
P 4.3130081746623405 4.361512058064172 3.539092346021937
P 8.670264952942428 2.065550690494045 5.590137522783639
P 6.479806680703579 2.1261016950715814 5.042608101411222
P 2.8103937986493843 6.189661797719447 5.680956062146995
P 2.5594191116620246 8.231594634238432 6.445040829939067
P 4.6211562681881855 8.893509871341355 7.087445077986151
P 7.291082298106123 3.601467485123424 6.46998279273776
P 4.541256715950048 5.493969647954104 6.85606717610964
P 2.142638550771189 7.492925926419457 8.525917401602227
P 4.216176438719052 8.179541462115383 9.173836492266501
P 3.781423519263223 6.008199378521386 8.883188553001451
