19
Energy = -99.42020608 eV
P 2.694844094715005 2.621899204694717 6.22706082146681
P 1.7754357742372247 4.323392389661818 7.438215079457292
P 4.608806728305212 2.817109884604174 7.419876078981806
P 2.2493422495717543 4.582720818225889 5.319644255870964
P 6.1184411637622675 3.3142628103599923 5.882698929679146
P 3.778106801758241 4.618069390819987 8.48146621709124
P 4.102376593515779 6.180917685719807 5.237392900183161
P 5.172012049213524 4.516724568022671 4.271793403536359
P 7.230960786119037 4.903098803365761 3.548893215550709
P 7.315416107314992 6.768333456203051 2.374827207122109
P 4.36282180248329 6.442457154955068 7.456387862500129
P 8.623683605895984 5.226620325847881 5.281994190085791
P 5.26484585037128 8.282693954441768 5.162961438063548
P 7.513706350918207 4.569852127610889 7.065623192768038
P 6.315470200851237 8.615546523332686 3.273495865710853
P 8.511705662453638 8.244560066669443 3.5576132080986995
P 6.510806032080579 6.478407287942232 7.973064409785057
P 8.78304560251168 7.417026176028104 5.619311015440195
P 6.938550822599797 8.151184956697238 6.599704304676203
