19
Energy = -99.30456296 eV
P 6.815730386271675 7.605815250464205 3.329923941553517
P 5.379969376562038 6.121857282202401 2.3868364454358626
P 8.069000995385954 4.314264658376362 3.6692967229044915
P 8.197493325449772 6.368378450472374 4.5251030327589685
P 3.675897484476066 7.967851547944475 4.781648765394371
P 3.6577210053841593 6.011288584631482 3.821881215012291
P 5.805733779861102 8.195929183516155 5.36602400049473
P 5.947155846977165 4.139694320205152 3.176543528089355
P 7.849864737817235 3.0581300617877316 5.674743394209066
P 6.6343826534300145 6.191709233464064 6.176292652752216
P 7.96431104379072 4.61251869073497 7.256272214758037
P 4.589710158877639 8.367793367335326 7.729177341902023
P 5.6614616428135704 2.7760153339558418 6.108118140102157
P 5.936549744766894 6.83276506610271 8.346317305350162
P 5.00877405320439 4.8033761906245775 5.258849355446906
P 2.8896616082204027 7.220275550161977 6.78727808272271
P 3.3887856170859334 5.056349600918053 6.920750571421039
P 6.285995451261511 3.441262622040558 8.150357397479526
P 4.66390714676164 5.076291376352316 8.70980552725887
