19
Energy = -99.1526454 eV
P 9.992863682101838 4.315281893168531 6.342020890382716
P 9.676975797725722 6.138275867244983 7.596208372190072
P 8.400495720723901 4.436015281372901 4.781350875938777
P 7.867793317363262 6.584423829286024 4.853064263405474
P 8.928867719721056 4.216862475584207 8.328264171962433
P 7.494623562815828 6.88421470938235 7.035511523069769
P 6.745076268872159 3.530417031800995 5.917843983644662
P 5.073064951746049 4.282428127694487 4.610590369819655
P 6.79867506912168 4.912966513276133 7.663000973344652
P 3.6114394413778856 4.3712324140779515 6.292725808642367
P 4.484668015543761 5.462089242641392 8.062563087721845
P 6.0294862718263715 6.107779753449596 3.7285972963196037
P 4.831999824395497 7.5228634752856065 7.47726874637934
P 3.2127830174831815 4.883555033346405 2.641088637634781
P 2.232456207938982 6.035446077675345 5.870808429217863
P 4.702292171866248 7.849005975417118 3.898924182898505
P 3.4795720657804687 7.849003228596188 5.775606676204814
P 1.5905759134633226 5.9063876348703195 3.70280112029878
P 3.0908339313866104 7.081230488533912 2.5130672377242154
