19
Energy = -99.47934786 eV
P 10.848124645809307 5.338762993959209 7.54739041358913
P 10.292171504887287 7.406491151833076 8.27685110216534
P 9.181462283724194 4.027829252545071 8.205034234329153
P 9.283828177028287 4.780896313816562 6.101433217192359
P 8.589210876920506 7.0973151641211025 9.711463213550209
P 8.928959529787853 8.167983552247211 6.725689239329197
P 7.799428107814247 8.89263929470209 8.517718439440047
P 7.4799862396254655 5.470099746638794 8.70197161935752
P 7.562417789765053 6.348778259629297 6.687340324811292
P 6.046353277729519 5.3509770532477425 5.269966672177643
P 5.627039044723772 9.484139474958207 6.206498732041631
P 5.939719608767641 7.9850292240142124 7.67930522184595
P 5.4300478571345145 6.949285002201404 3.8639154674780523
P 4.291218649406049 5.129340184103489 6.542792312528158
P 4.165496350902733 8.354964791831776 5.007356230559739
P 3.029115751827261 6.9739979627601585 6.275074830582393
P 3.3220631880691966 4.1804078043660615 4.7346595917110195
P 3.7672749186731123 5.656519545854425 3.1016052392763434
P 2.0496383925419424 6.038099422307584 4.477490093171832
