19
Energy = -99.43375637 eV
P 9.579582844070506 7.842104468189164 8.775039399748971
P 9.38629118479471 5.678129626493047 9.339838959646029
P 8.15946820912875 7.2207579005984925 10.39750600388839
P 8.37348761223138 7.491412370386972 6.881791671832893
P 8.176137012360257 5.332359010337616 7.429930743739271
P 6.133385410611423 7.176772928946285 9.45301925846469
P 6.652794156429536 8.521265109985602 7.772851732973121
P 6.348156152511692 5.140593012451298 8.63456678063889
P 6.254147587470884 6.9024512934111595 2.923089605997714
P 6.4642484487134055 5.894534475005825 4.908483725399245
P 6.812636680796835 9.02584681914678 3.287339627336439
P 6.936731697138487 2.772440116804937 5.96119039258643
P 4.779198232420315 8.317933972171561 6.562662359895814
P 4.476340393282097 4.98795276804412 7.438669399014246
P 5.908123044297731 3.7726368350872104 4.309093744487084
P 4.455354212270702 6.318087962849189 5.676713347932892
P 4.791421841925477 3.132857040953618 6.149548046116689
P 4.685661130184397 8.511675628107444 2.920950666173998
P 5.249815589781095 9.58317010145008 4.800695974547015
