19
Energy = -99.2419219 eV
P 7.790847967700497 5.180674234263099 9.107839599477604
P 5.937185080975139 4.494603135446669 8.056308155377932
P 7.957181077966155 3.7224198893362237 7.432599932177945
P 8.197636356396567 7.342073071979159 8.800627499240294
P 5.577205483089822 6.037208275611757 6.473295810559813
P 9.97860574949772 7.784745764585769 7.517004622990564
P 3.4302098584844742 5.571396806826435 6.145246604209774
P 8.57866926301098 4.803121363382875 5.585516669918901
P 6.503724714133253 4.86184028202371 4.778721859803385
P 7.932291752877736 8.361121280893299 6.8438680416945585
P 9.149263448594871 6.952597362410382 5.623735291230721
P 6.4038529330919065 6.582269675921652 3.4181525565238426
P 3.0699034178031375 6.954655207515008 4.453576464501064
P 3.354346147639951 3.60730166200884 5.1753090268740936
P 4.332816350186935 6.121531551941336 2.826174285650069
P 1.1810091615086542 5.971341103330467 3.7787448593382402
P 1.1952427418300204 3.8902281775707825 4.619672880977175
P 3.9732656650613736 3.96850550003608 3.051726168416148
P 1.8165541852419698 4.268233266179113 2.4707105102588445
