19
Energy = -99.12193811 eV
P 6.4019946936749665 8.474762355980564 9.021363119933259
P 7.800605367114146 8.290068323644832 5.757064800628433
P 3.6977049839194844 7.493342647317499 10.82209264479532
P 3.656033558948619 7.78904902517781 7.436560236491947
P 8.26511877307281 6.540272852554693 7.016393519908496
P 4.57783268322311 5.663386621103935 10.108694616705701
P 5.906639258733306 7.805597666483485 4.626766862576728
P 4.198719258777195 9.011889569777095 9.292374475006792
P 4.688074490768561 9.121933338010987 6.039149064013327
P 5.33194804459288 5.757250539244828 5.192491755350184
P 6.619927494474928 9.631057902304917 7.176114487084609
P 5.326311659623546 6.6197953619650045 8.366107493900433
P 7.401481062838884 2.92231579908528 4.38311087275436
P 6.590982510336994 4.818154604822815 3.5869465686081337
P 6.463007504625795 5.247767199712165 7.033315941183434
P 9.248479235930246 3.407944453099935 5.539929168348863
P 8.585253430497383 5.793889408178557 3.4372212033280825
P 9.541965016297143 5.595770733869846 5.43415178581264
P 9.261695702521846 3.5795263276368634 3.293926113541242
