19
Energy = -99.48252977 eV
P 5.8376465197117975 1.7195888835390327 6.366685271675075
P 7.3358147931488995 1.7574326779639533 8.137117164895097
P 4.090243491119547 2.958950683196711 7.086937156625104
P 3.853126597647499 4.480371018804118 5.48497923775066
P 6.977264581641888 3.657906586546338 9.146247422891571
P 7.260487381653893 3.1151010010793265 5.4402692870081495
P 4.820940706955059 4.127294336226425 8.881165878895827
P 5.76526642381058 4.25682133724916 4.355910764616344
P 8.287805952624895 3.7137409036811047 7.3904098659510975
P 5.095737042504287 6.231069511626516 8.417500962799332
P 6.688461805191597 6.165297662784972 3.7529626520465507
P 3.6597866897444167 6.2835917041883365 6.809082516788759
P 5.151956818587862 7.0034563478657095 2.444393531962193
P 6.668952033438751 7.5794410579375775 5.455547794664615
P 4.547094778864554 8.07411966008365 5.808876767385898
P 3.755257921501732 8.193810667829508 3.777747114454214
P 6.402728494027886 8.83255687653897 2.105079668034805
P 7.029209783453536 9.373452430213831 4.186946747076077
P 5.014015426839692 10.024860500166067 3.4483795344036574
