19
Energy = -99.24153723 eV
P 7.598615245542991 4.4139036242148775 2.578850127234065
P 7.850279480524009 4.288955752718774 6.192387375654409
P 6.79644147656188 3.5130226837140457 4.370675811414588
P 5.996157094953021 4.22205643331272 7.419287909983962
P 8.090537317096553 6.418326563101549 5.5845296291342805
P 5.9303666969527855 5.251813262816482 1.611016790220152
P 4.666214327076258 4.125902659778132 4.600176018629252
P 6.393397595472609 4.87205826693839 9.44751371809558
P 4.186901881466274 5.216060404371505 2.781204574524299
P 5.980403610003773 7.126945459944356 5.189594848593911
P 4.682134740779008 5.62901697633752 6.263474398405227
P 8.605724127613584 7.218312248837445 7.586061717123656
P 6.855368988746078 6.869720472223882 8.902418637914131
P 8.056123586400311 9.257023144352186 7.02794965442336
P 5.8802017585466695 9.005319403034008 6.456150708378966
P 5.092498583789413 8.087858320432154 8.272263576432962
P 7.402510351418542 8.350386581332174 10.494854591182648
P 7.836051152610423 10.06668757722709 9.121546347050423
P 5.72948436308867 9.696042543955414 9.729455944246366
