19
Energy = -99.17363579 eV
P 7.8534510932209285 7.844323617438901 3.348117018155074
P 6.6481419164216335 9.250058854169378 4.53272259243313
P 9.850899691427038 9.74292421956126 5.07459947068916
P 9.705960959293018 7.630078763494257 4.568493825945707
P 6.804000798416578 5.829601717324875 3.494072881788826
P 4.699104128215215 6.521906262984621 4.011985297554221
P 9.266940471996731 8.356808383230328 6.670514937038731
P 7.079562650526692 8.771196926024778 6.716674677577805
P 7.597755050912423 5.1503092111518285 5.440169030296166
P 4.641352396183529 8.683649852310284 3.9995018705551315
P 5.736204511626706 4.0234210286540755 6.049803038346653
P 4.564274258594178 5.964650934125835 6.192946396797048
P 6.583650694805864 6.64356434678607 6.776304316316674
P 6.588765413380825 3.7045069416555676 8.112146779740364
P 7.154920554644593 5.779561122489768 8.744133085698389
P 4.73559497569919 3.3492054560963753 9.262044905791413
P 3.637122672895667 5.276585331347529 9.449324010225506
P 5.443856296184331 6.444506616197425 9.99180062045381
P 4.950671344298643 4.575370293700928 11.106875123340133
