19
Energy = -99.15132737 eV
P 1.756095386453204 7.343941148880364 7.628439211061298
P 4.807446853790584 8.154790091152595 9.261179110871923
P 4.153780137594744 9.722806776582685 7.898697754980219
P 3.031846258182328 8.609186814664904 6.331888690954329
P 3.508747858230648 6.491135737552572 8.758156189493079
P 6.22264480865805 10.192977252268081 7.0041731087508206
P 3.4409318855884528 6.42281665578241 6.53222163320544
P 6.286594051006624 8.651666428068493 5.405681357300686
P 7.101108445148969 8.16189287119083 7.375491670556624
P 8.48917704463418 8.86137731775556 5.7306580433099175
P 6.628732138334153 5.155000653224237 6.210419573460262
P 8.470453826847704 5.136098584933051 7.472189110179767
P 6.6083342199577295 2.888982167078824 6.117625822199465
P 7.433932689673113 5.577299920286266 4.199399536599591
P 8.462840223177967 2.867041917469636 7.413581643385196
P 9.129631902595662 7.017505906675581 4.622183905313841
P 10.071869357768952 5.48949490317565 5.9968928865470215
P 8.585806927974723 2.4195401819170117 5.236050271397287
P 9.279764722905655 4.306183409864992 4.274809218956665
