19
Energy = -99.48370975 eV
P 9.424532724623436 6.190169687655235 8.32233919261807
P 7.311087679740465 4.083771680366188 7.996886187093967
P 10.196694582152496 7.714515882675248 6.892940099434394
P 9.21639058922487 4.5147441322174116 6.839122762960838
P 7.192090182973754 6.215630409268013 8.78871566688981
P 9.575923405773162 9.728908367768241 7.374290778261616
P 5.872311747229954 4.057032947096334 6.317943997291338
P 9.480311619242665 7.312722809580893 4.851859780621248
P 8.448392851023605 10.3937554279206 5.72668774422912
P 6.207736528845581 7.329087583705167 7.159905949884111
P 8.200308691823775 8.933047363344613 4.233424151701114
P 8.331362516207626 5.3868959905476785 4.943705374258976
P 4.0793922380112315 4.51285580775877 7.533791321733199
P 4.225558287456942 6.732805552726594 7.94650844933353
P 6.252808168207528 6.02101234308865 5.37814602121828
P 2.603233640808134 4.406832122400076 5.891872604103569
P 2.8930865129253984 7.60734444618695 6.407105632149403
P 2.767217883582802 6.250261407122412 4.650492281657402
P 1.2396758486458015 6.126721737070617 6.262377703059544
