19
Energy = -97.6522767 eV
P 5.626711254889999 5.4621812355983534 2.5630159063177853
P 3.7496891528428558 4.388763302845513 2.81897250889799
P 6.6395895524874105 5.646085797360888 4.612143361133325
P 4.278514543572446 7.195373883344734 2.9994234050852673
P 8.361082914575894 4.473228317823504 5.36631672551757
P 6.794651343717667 3.3254650549953437 6.565675350027305
P 2.806530665480179 5.9487186865559165 4.079475009184159
P 7.271379035275856 7.757602511120975 4.47981076029273
P 5.194866220356002 8.54971392802988 4.634731717094603
P 4.224234150504518 7.757939305086564 6.507959599303497
P 3.5111495917263884 5.635756497018026 6.229710136116219
P 7.948483918002557 8.045824002871564 6.57941822259544
P 5.6410297838384915 5.218342711352913 6.60444142481302
P 6.064627546556057 8.213530981850608 7.790687585901403
P 9.036290925648077 6.09423555413529 6.832665979354105
P 5.347965887940544 4.900107643461725 8.919621638937206
P 7.257880290954622 3.6744900538410574 8.757644430159907
P 8.425210708432143 5.637444131376026 8.894965297210767
P 6.503930780742112 6.7590146688742205 9.44713920960195
