20
Energy = -103.56040129 eV
P 5.219638619486305 6.078689835750377 2.2330688191447274
P 5.050082852261652 8.262134305932642 2.6047219379052873
P 6.744131089704933 9.217316900533138 3.7701845283552706
P 3.3057157312798795 0.3811961568584929 4.844655213187224
P 5.343891105300698 3.734815451256543 4.536755049740465
P 3.523121864620265 3.3737875630881002 3.4407444745200446
P 3.2069213099595593 5.558448042211682 3.1025259562522596
P 5.338978782987556 9.447302570383508 5.5607487311370525
P 2.677085762314074 2.2848229745749067 5.487899781752583
P 5.420193931928362 0.25177483507854703 5.425826322113152
P 6.677937117286861 2.068241145929586 5.095136582571258
P 7.154545387672571 8.20312755523971 5.6851327733472825
P 6.774142915539642 5.145727710791821 3.5497703726787027
P 6.966205611655158 5.997127651857243 5.650227973199167
P 3.6971749900268627 8.465404082401886 4.369009214057481
P 5.841002584045712 1.5620208626061394 7.136100800185667
P 3.8970289694972764 2.6230177013753417 7.298601644529116
P 3.210263849195714 6.448501562730646 5.164024112912941
P 4.87440583417726 5.320398827123428 6.127882306668753
P 4.162574226489227 4.661186799705492 8.002025941170794
