20
Energy = -102.49371175 eV
P 5.8908699342401185 5.07864294390724 1.605662564771266
P 5.186026581814914 2.7112292843206154 3.806478706872275
P 7.803040253584395 4.358385372489321 2.612761183756471
P 4.093042374962401 4.430785050869193 2.8406556343269727
P 7.4594693794270235 6.5427325238542275 2.3908485197482974
P 7.394336228978979 7.631911988325735 4.2292402323814535
P 4.602195357707002 6.9804032637398485 5.695866300095191
P 3.255005513852316 5.667851656147411 4.561533102245704
P 4.761550479773202 2.589662296625156 6.042919999437355
P 6.634873518579071 4.174238581032471 4.489681478646529
P 3.4120549813269094 6.950782881001051 7.525682820315603
P 4.840508680731193 8.472970930154203 8.335739370174197
P 6.69666879818802 6.374546102774644 5.904686861185487
P 3.18496211761585 4.12016759700277 6.225129521176623
P 5.116490612149526 9.179999302835663 6.210306647872039
P 6.796626876445526 8.247732846493257 7.279723027796552
P 7.012477492056089 3.0616477216105813 6.3728715802734595
P 3.770607628499658 4.8978399572126605 8.331836191028971
P 7.327779256832661 4.894953808161194 7.527784861588212
P 5.783920596888663 4.656022555096448 9.033098059961024
