20
Energy = -101.91906234 eV
P 5.770735108559958 4.765373676373452 1.6768675878567563
P 6.459332471772793 4.474436459962003 3.7441438684418
P 3.713621077654499 4.7730992618329235 1.577751461592704
P 6.149897650964542 8.151368112297833 3.2054757413009707
P 6.795846285512993 9.498708503501655 4.631478868359783
P 4.7038173722356875 3.448268650339871 4.776242994088206
P 5.83502878228984 6.4361992228694325 4.574151541849021
P 5.237902622866808 1.608387244675885 5.6718759212818295
P 2.9705270040978924 4.420325525695217 3.5892718723912256
P 7.227388793876189 8.274943700459312 6.458125046729967
P 5.336623500902582 8.17217396636604 7.608485323615911
P 3.650696893431188 4.636142247056481 6.29639192624139
P 6.023559648080232 2.61610816419976 7.459360133084973
P 5.076016579680788 4.635272233404945 7.983742836385652
P 3.6162928164690418 6.280926471339877 4.748057172578703
P 6.830202023812377 9.730470200577837 8.13584721095853
P 6.989749039388955 4.561408498814873 6.899293436748478
P 6.591375399797612 7.908038795346895 9.403263623772816
P 8.583833180677926 4.911800048429256 8.377095982964002
P 8.50414722153515 6.763142490063153 9.249670923363635
