20
Energy = -106.01549773 eV
P 5.6633077770728395 4.930110324310158 11.496862699155749
P 5.153935171634274 7.1485144751343235 11.64137924051909
P 7.613409476454817 5.449108527293256 10.522616151851643
P 4.165402232622212 5.845626204656774 10.115485857413203
P 7.1066811798729175 7.657368895051692 10.666428872511249
P 6.964875640072257 4.852287125481212 8.505523457856864
P 5.240116087297626 6.217307062922679 8.202498664118576
P 6.191372354909989 8.150640469864301 8.725400248534175
P 8.700576617386668 5.890209020216425 7.6147164854679765
P 8.136637214975407 8.110606993447636 7.690375015611245
P 5.779199830770391 5.231650299186461 1.3657197187763068
P 5.056487403495745 7.392398950599241 1.4718351204085043
P 7.695756778383465 5.834617652921273 2.357995517170192
P 4.233486147235013 5.845272791184281 2.8598282235518506
P 6.974224816501381 7.983440816273499 2.4697520107330106
P 7.156025901977158 4.963888378637112 4.3061528679273975
P 5.318241718211669 6.111333388473883 4.7831778884689085
P 6.067991113082005 8.174037530516017 4.468976421161708
P 8.768493315042114 6.038412401356184 5.354408803903785
P 8.058910791558631 8.2183002610305 5.425998303415477
