20
Energy = -102.70601407 eV
P 3.4805784856656468 4.136573788519584 0.9599471746786777
P 5.398083469184707 3.126053632125701 1.6201207557525024
P 6.533356064843986 4.886252980221824 2.425148941258535
P 7.655685192364275 3.3758598114215794 3.719364571394657
P 4.934340270846517 5.242011747651448 4.000413681210035
P 4.458660769045741 3.036819327010281 3.6437280159913708
P 3.099607931387405 5.629394941706788 2.5766755733485525
P 5.430411320703848 7.404881769553013 4.685937308227412
P 6.6385002642853035 4.445645320753676 5.437549402053077
P 2.3377804762083865 3.604244254922772 2.856491046231186
P 6.047970134521046 2.2814165825675374 4.915400341019422
P 4.089002830186168 7.7760260450277086 6.458177401625624
P 2.081983698377247 4.833449545204907 5.770229724697592
P 7.294703135812299 6.757125833700815 5.538246386983671
P 2.136052410421235 6.9295605022837234 5.861888860712804
P 3.4873202651899695 3.4465682337303787 6.551892395471248
P 4.817634269336049 6.608547525751126 8.184740357064774
P 7.015200925004866 6.558352909800147 7.785135238214236
P 6.9859251613844755 4.2559171253178905 7.619240908383389
P 4.774356784337778 4.362451981836516 8.086825774788183
