20
Energy = -106.25052028 eV
P 4.3706669844741715 7.088944788330632 1.6710471520408086
P 6.319186465970284 8.159250603060597 1.344704542605206
P 4.659748359351373 9.227336881813192 2.388684012985616
P 4.539758110425089 6.317076965659625 3.784162187481668
P 7.657550117928093 7.430641087659487 2.969396097589321
P 6.582536707320619 5.5670331443124415 3.409774785198961
P 4.769759389649646 8.426749509104289 4.492900394958743
P 6.935958224154898 8.741523113614853 4.624923424567542
P 7.727073646658024 5.318099464482214 5.301332598189757
P 7.45148265127543 7.341525653070998 6.33337411337264
P 6.099066621499931 4.49602558784762 6.6140077072439105
P 5.398946683389201 6.643850945463202 6.953573050591064
P 8.741045285957155 5.588078595348529 8.925130399832991
P 7.242942671604297 4.0359567867599555 8.465393573445287
P 7.583181881411648 7.424612687343031 9.478211399782914
P 5.480830555534926 6.871297743969997 9.205250612583777
P 8.780230668075813 5.004125825302967 11.103368513025808
P 5.5412658895396545 4.695466935302606 9.690582140686073
P 7.563246865767612 6.846140254472541 11.654719629668886
P 6.607343880120003 4.8280850871887635 11.641285324256911
