20
Energy = -106.19682557 eV
P 5.1986443173558 6.714048613795772 1.9765849820341495
P 6.6830029421099075 8.451542299994399 2.091391645851219
P 7.216451082576945 6.461655881591088 2.8609756598389153
P 3.845458049390489 7.904363097141919 3.359550906281593
P 5.476839493872257 9.390056248173568 3.7589315446210625
P 3.5480400126782383 6.877467602089207 5.3439805541716074
P 5.0878847445046835 5.311533739278537 5.226040702035668
P 6.990618319150599 6.45434472709748 5.075065231525672
P 6.523752713541546 8.584639217854892 5.519241019326464
P 4.593914815784651 8.418133203230129 6.609747556203782
P 8.539764828391114 6.935754631780954 7.961523451994377
P 8.497953896171989 4.804930507601846 7.307108574362285
P 4.802652849127343 7.023806761386768 8.337356498281569
P 9.842981563641942 6.349797733583314 9.708084303579561
P 6.796304810013016 7.220646781257198 9.306118849977567
P 4.814840792764904 4.943586767997013 7.392036867646895
P 9.76965039293913 4.171877883371344 9.063652507999091
P 6.6657558023241315 3.979013480328465 8.213389694095113
P 6.5304346085028 5.168699927812125 10.08426223488086
P 8.601814026997532 4.860860956472678 10.83171727713202
