20
Energy = -106.11890734 eV
P 6.946867346164492 8.752654256251168 2.210267274625684
P 9.103054561710573 8.623346307075538 1.5635875923720333
P 7.402944590889152 10.623767465163613 3.3887263986243146
P 9.56258185090014 10.508933974882448 2.7533802646109318
P 6.993884298740273 7.1926401217780915 3.766008806251874
P 10.221942423312958 8.513144304732219 3.487674630160649
P 5.772412994920487 8.517648371694143 5.163938001960677
P 7.623592515782521 9.824932791445383 5.429763728311463
P 8.699197344460929 7.92978787016476 4.993645597380037
P 4.485463121402277 5.78079352325462 6.565973141732448
P 6.720823625343314 5.556331074859848 6.817484278388281
P 5.739535378242073 7.512551687939593 7.170587776021452
P 4.02813869845128 3.044468183013558 8.265517359717975
P 6.265213686603736 2.8324776661975335 8.514534637345575
P 3.629435799719833 5.183557573415336 8.53310015700742
P 6.988679186338377 4.861354321328776 8.917323523639226
P 3.7285055920365053 2.5523140936247803 10.434849299309782
P 5.982037109927488 2.337751226483012 10.685396041077993
P 5.2403751068477185 5.758519013528309 9.938900568090276
P 4.917931660841252 4.145643065802988 11.451957816007607
