20
Energy = -104.49847406 eV
P 4.694175343974206 7.4889244117553675 4.644099073306076
P 4.717393056972476 6.194253670817433 2.8031691840074417
P 2.527456461186179 6.020862848957319 3.3913962097182733
P 6.411273084389796 8.550020893026257 7.401184652672363
P 6.701013706902042 6.882326615497926 5.626346949923182
P 7.308984098799565 5.547938175472347 3.908780943484157
P 2.8960240331297404 6.401335459693183 5.56356260781237
P 5.661533384618605 4.225536673993572 3.313343167801296
P 7.925881445264998 7.842439627763114 8.808891718891154
P 9.10526251619175 7.02357873149225 5.5992989144660035
P 5.957530527568573 6.823626523988898 8.731992441870023
P 1.7285191900618118 3.9467806538128936 3.3415942663014406
P 6.251789672150028 5.283957299402035 7.057825252066788
P 8.975212934840563 4.846566059488476 5.183788330953961
P 3.433373489621557 4.440229440388493 6.406287873337697
P 1.6400619600668622 3.363667243016224 5.485454903076116
P 9.387335494074692 6.4470071651386816 7.706417983199304
P 4.841336512271781 3.268291277424734 5.141058611042233
P 3.0750164872394925 2.330468289149295 4.087652167343454
P 8.280565708016864 4.512052663519971 7.378300716218877
