21
Energy = -110.22518188 eV
P 4.951675789330359 6.416904992349229 12.290483089462665
P 3.906450492248059 5.617105424230625 10.494917627948123
P 4.44596382852848 9.82586042074773 2.6070116819005174
P 5.428179293870987 9.467693179914287 4.6048141472970245
P 5.172302431154668 4.278277591154086 11.742192033816302
P 5.092026794438754 6.429548295941309 8.829651961910793
P 6.2414304917039525 11.113111756196274 2.4104082200914165
P 6.941325273619002 5.625073512702025 11.667746989685304
P 5.478430089591062 4.543613467531147 7.664754570219822
P 5.167964686554471 7.787909779019449 3.1674311833921838
P 7.193544157225047 6.393417864533367 9.621608175439135
P 7.5060908035692435 9.873278489487676 3.7148329239401447
P 5.687642097177907 5.515291346228735 5.694644071171138
P 7.339846790684334 7.908983866356104 2.599652734566829
P 7.616467111753858 4.485463884163133 8.499635332926019
P 7.404455567657988 6.863674282113839 6.070148433211667
P 6.617748606571266 3.7661824873146466 4.703160333988223
P 8.47576349546091 6.807463370580655 4.149164109876999
P 8.835359395739045 5.421039970261866 6.918853011873068
P 8.28317539185603 4.661814059315472 3.5401090189894386
P 8.70347782366478 3.6876123722583984 5.498100760693396
