21
Energy = -110.13268526 eV
P 6.754766555294172 3.6566493643854976 2.3635568999595824
P 8.606421542873989 4.5407491303031815 3.2270408376136004
P 6.175808898760922 6.054049383269398 5.410055209671912
P 7.608288426237721 9.154327848609245 4.229332916536067
P 8.530412489921456 2.3689821405118847 2.7672710879699705
P 6.484803883193667 7.456343201640584 3.4973616966152172
P 5.350229596552663 3.105758366152632 3.9819254018843004
P 8.735485444577598 3.0487944443597277 4.875208341891457
P 4.417378429892534 5.066394518491845 4.440233076869801
P 5.410643493664344 9.31229069077733 3.742662161002545
P 3.1554872751976903 4.160452051388716 6.008989656157697
P 5.745490159045386 7.632187219763386 6.9295363612242955
P 6.73325354858877 2.680843418156404 5.727981126899682
P 1.9647404000772706 5.857336383418838 6.769428836363545
P 7.1060089789368375 9.291657682596046 6.514981201805041
P 4.922009025049796 9.428672864950077 6.023482035839949
P 4.545083359369975 3.6926020851043955 7.716801718453541
P 6.526763170738404 4.41798622837105 7.061616246299914
P 1.6796604400305022 5.238747739775615 8.89014257186325
P 3.0319678953981146 6.937851899493587 8.395996248911192
P 3.8722166839941177 5.085067567945847 9.288913121359826
