21
Energy = -110.12099798 eV
P 5.991051989179322 0.679143073554075 2.932624522596549
P 6.5910653408102355 1.293206641701061 5.005555733513505
P 8.149134361299842 0.7176346218284524 3.5580769387218893
P 3.6149669784678604 3.3210626017285643 4.583526463676716
P 4.787256213440172 4.199878159049381 6.32616050149449
P 4.399544387032147 3.7354912614165783 2.56450585934826
P 6.320034065044489 2.7436819203180165 2.093472302368779
P 2.8035274421147576 5.268002152610206 6.694305737403704
P 2.2086067979571102 5.063347684342427 4.52852252699367
P 7.701704231961689 2.891181940661809 3.8838037696317684
P 3.32780887627718 7.408922152228385 6.716717636187849
P 3.4039837442266196 6.740126379048416 3.5323950087060956
P 4.954002130698426 5.8062088984758295 2.2929205330888776
P 4.6767537320003205 7.268435850747115 8.461637831625582
P 6.082580365937578 5.822517477194368 5.562262546276638
P 4.797499081769388 7.553312950769817 5.071127439558706
P 6.5729503794006146 6.32095041428757 7.663109115583667
P 5.220463286859319 9.40154388290571 8.630102067242639
P 6.715390234530486 9.908880853664554 7.058067371997611
P 7.908112189234624 8.061647808588843 7.377644616997803
P 7.3945205009163635 9.365288038623365 9.105158253862768
