21
Energy = -109.71670043 eV
P 3.596499555467265 8.6584848120399 2.6500013854952167
P 5.834591439658689 8.755138050976273 2.441560171733926
P 5.920962627756713 10.078096631145792 4.34128728039024
P 4.842921867074049 6.904503717232791 3.044790861350647
P 5.02413395137367 8.869307089686576 5.907475497795515
P 2.8932378933642564 6.36652934179417 5.885080804673742
P 5.086130172273123 6.752744489454245 5.253211499504164
P 2.801236766969997 6.851972260292009 8.044442699897116
P 3.6698030206750776 9.938084466836575 4.5752938795557325
P 2.8209950383565983 4.726041552692061 7.37709393157386
P 7.31094159835201 6.586356417682283 6.199142423755966
P 4.429423614865426 5.4804445633615515 8.733291456928905
P 6.264974040621165 3.745625462412008 4.460258094931542
P 5.479767334476819 2.8510816250202184 6.3500930247275456
P 8.070091533762868 4.860710659596215 5.050833456859932
P 6.6174956702459395 5.702801205009146 8.158053374591242
P 7.438586640044432 1.8670269246106106 4.033451373058664
P 6.875295274958766 3.510135847235292 7.928086907704822
P 6.627937767131143 0.9549131706841971 5.958061952868936
P 8.762178923195766 3.685342393816157 6.799087975309107
P 8.739501901478882 1.660432757634869 5.8316937280134455
