21
Energy = -108.72730049 eV
P 10.142058123173044 6.933173915209293 4.682320022993222
P 11.144508788764291 4.947823104953063 4.474662723783337
P 7.717207850233239 8.80321956101791 4.5379969481559534
P 8.26323989621833 6.973848362077326 3.4724909310119574
P 9.662383686522233 3.2938049352831436 4.3602623872251005
P 9.559463102165319 6.7878565282828225 6.804897383804323
P 10.724873620620963 3.7872108341802555 6.315131156330676
P 7.698970018954794 8.09363126669795 6.650254779136069
P 5.115309890956852 9.430970495852808 10.249708101013336
P 8.823626596691058 4.704019537526667 7.16032703444714
P 5.562035909749616 7.422127075960792 9.665043506970626
P 7.7670138912601665 3.9150459989122157 5.371473781277227
P 6.723049072687137 5.612647099199855 4.31808361856348
P 2.589103224333628 4.876938770067149 7.740745009261139
P 6.304102202687985 6.401418791494437 6.390576433643756
P 4.063948635621331 7.968108088571022 8.203241675194725
P 3.755382756061041 10.044446055308725 8.734489838294758
P 4.404140189759709 7.551613612171989 6.02407906497701
P 3.049668988381493 5.811625635028511 5.761653396147843
P 2.2785945684753175 6.813958724984396 8.778667454015448
P 1.2086447251959374 6.3838373457321715 6.861220492266356
