21
Energy = -109.61410432 eV
P 7.853771631763238 6.4704826674175235 1.6217111052376711
P 9.15938972804131 5.682474181440601 3.2727626749037704
P 10.224311247218655 8.913751820227928 2.464377973581219
P 8.129299154842197 8.646018203714103 1.7604412987376878
P 6.245061425725289 4.131987093913322 3.2336423606985916
P 9.974254248086433 7.514824254631441 4.177126760736034
P 6.04779397873109 6.33655643642697 2.996203122976668
P 7.341137735456061 5.5158263582211235 4.61843074895568
P 8.539233892174455 9.191867593329052 3.880798646586195
P 4.491323476685226 3.5029744319050407 4.427983980567454
P 3.1172640461282164 5.175342127359113 4.303653315720702
P 4.848950966220063 3.7993813480398826 7.141131789552824
P 4.095912720548197 6.908474761838903 5.397363865492976
P 5.147583465106826 3.652748615404575 9.403203928761796
P 4.753686904431714 6.032818338616892 7.301144281659868
P 2.751811396057695 3.092942921011024 6.992490765046897
P 3.630105984214357 2.221692071666532 10.178704808223191
P 1.7361556386587342 4.815458329471532 6.060785966409691
P 2.632760762653026 6.586929223726847 7.152209082572608
P 3.2822585468510765 4.404574141218804 10.359153620149119
P 1.958327486407448 3.164753276472965 9.048885413609222
