21
Energy = -109.87080723 eV
P 8.722262051748345 8.448975176037004 10.349300084866677
P 9.908106052396327 8.583153203770458 8.39520046029135
P 8.50271154642082 6.210786829946385 10.060625135935972
P 9.941318745430374 6.320359328535805 8.355200046947944
P 7.823288695694714 9.300396343814615 8.532762290713107
P 6.501931321407532 6.089175475307236 9.128810429389768
P 8.78571791069362 5.499089360164846 6.616106050528659
P 6.3592990263227565 7.841394295600168 7.7173144492986925
P 7.407130988088472 7.075308345007313 5.885159498708636
P 7.103842007091254 4.4276029286135525 7.745659180759879
P 5.9913311689300714 5.31008443768494 6.029979279809537
P 3.8194214075095045 5.270854325064211 6.582388604751236
P 6.152673738995757 3.9662247762144243 4.278663919696014
P 3.916753266945223 3.1180135825158306 6.784874680786669
P 4.992947041581679 2.301693086746335 5.127988595804076
P 5.250477303921552 8.336196865618948 3.6921183388020156
P 5.3684410618904135 6.67836542600947 2.217052444705755
P 2.9899860560429 5.591498101686205 4.549094470505719
P 4.502965997867057 4.8162294872835245 3.070354547504136
P 3.1963169036090844 7.785325819645117 4.362690345331409
P 3.6316112994296175 8.070274994356545 2.1962110396599814
