21
Energy = -109.58833949 eV
P 11.64832716942729 7.719539971301213 5.142196120880315
P 9.908365135124843 7.919738626242566 3.7685038135735733
P 10.711867989620252 9.707136930104104 4.827097129370212
P 8.387165268397396 5.326206425379295 5.364363814914642
P 10.630587595926212 8.738403718581408 6.832935822951625
P 8.0407373572521 7.485850804121569 4.855218540847895
P 8.778324040208274 5.894651497615391 7.525019633080635
P 6.375126402027942 4.4754451532785255 5.068999158668227
P 6.501500336257255 2.7114762794436444 6.483326830298289
P 8.535589063786322 8.070921702182186 6.970208883801345
P 4.8235146956963915 5.32473098848662 6.414088035855263
P 6.6639738140639215 3.4854467661440114 8.562071370231319
P 4.668912140871169 3.369868338319328 7.63549128630543
P 2.917127571182828 5.802345695356273 5.454112389159752
P 6.945701600629874 5.705052566403842 8.72334019814641
P 5.375420977785883 7.086464976107953 7.569122157000645
P 3.54263063163005 7.723800143223628 4.654390023148204
P 4.0586128108353545 8.805921026936538 6.390027228332842
P 3.6399737740177036 6.715354558888469 8.95794503322169
P 1.9923090621593624 6.202559987956943 7.506660885260261
P 2.4427813162235115 8.317632597050913 7.8834303980753715
