21
Energy = -110.0128729 eV
P 11.463328008675694 3.5881056215545777 4.799520148448926
P 10.953908238202702 5.694205297271029 4.2967855387080425
P 10.512900537902624 4.885218245769008 6.3266288707460205
P 9.139108817993199 5.55708295158245 3.061974075889544
P 9.41602475865275 3.1171009666519285 5.534536663250548
P 8.079035684724854 3.769599448468234 3.9130125881521582
P 7.864950586676539 6.9494790853564625 4.3251161885514176
P 6.816899822941441 5.1683905601967615 5.186501327942253
P 5.945205244279268 6.233859360603857 3.454239442461554
P 5.196996709693139 7.306790690647123 6.743442221661468
P 3.530149054944855 8.763416672758275 7.121279593014524
P 3.6285057326421484 5.896436610813758 7.456666920886878
P 4.728547247973148 7.75257352270675 4.613995670194119
P 2.036391721127213 7.182400193415674 6.574654523383444
P 3.6818223069012026 4.080636586576447 6.188041664399165
P 2.6236986782099914 6.994910666639904 4.41824383466536
P 1.8937422726591953 3.2002530616660585 7.146651994295124
P 2.890003180153398 4.809407267671778 4.218370822193227
P 0.08133081642920714 4.29208149491958 6.430079270793752
P 0.7430231739580946 4.285428551687384 4.301195837064497
P 0.6955696130654268 2.3906244650060895 5.455048628366147
