21
Energy = -108.98222779 eV
P 8.484796330028766 3.8545387230913204 7.860578924717019
P 10.576127340596322 4.519343347369559 7.202475863082638
P 5.963553207067743 5.111078562208024 9.356502253106553
P 6.923873501078391 8.345299756985868 9.778419277523009
P 7.409967668817623 4.760085756005682 6.161418964382372
P 10.901827462583547 5.997420408206576 8.783585112802111
P 5.547940624628416 4.388901074031401 7.284416278419786
P 10.27900418801132 6.687794993694704 6.797058505634978
P 8.108414722725497 5.733886531097905 9.188791772074872
P 5.041223568905158 7.191294938366338 9.654311011340152
P 8.043017599701185 6.714897728103108 7.2181471069224195
P 7.448609374578364 8.85652438386489 7.776134453598693
P 4.050449667824874 7.739021654879549 7.737144067714664
P 3.9729493471689374 5.822461913364015 6.569781838624382
P 4.929973594816463 6.324361050206372 4.635190120449175
P 5.184922609540725 5.400053554602718 2.105519017844602
P 5.506582069943101 9.138881721837386 6.759550232859031
P 5.990673540271557 8.283057635733234 4.778537973562655
P 3.393526011605017 5.941885708947447 1.250433151404908
P 3.9688882291073466 8.11790194278568 3.8507306866862128
P 4.767560136360588 7.565189409979311 1.745154182610399
