21
Energy = -109.63706944 eV
P 6.681757061138118 8.04205861309418 4.464979360795299
P 7.322832647779412 3.424780298663089 4.639418283113562
P 7.354743302544881 6.70213182689105 6.095666052822208
P 8.677661493123228 5.053380232943575 5.503514211050694
P 7.42517190225337 1.8111740291315084 6.1887104508097455
P 8.841851593548375 2.4241503459515847 7.756981699328216
P 5.138029799138369 7.045825958904796 3.2268511747689583
P 5.446366837209779 9.005441099021894 6.01921415295135
P 8.788242551639485 4.682221944535252 7.695453266919791
P 5.306621625976179 4.3166388159289495 4.791877178328372
P 4.224117406763637 9.069244392580917 2.68250440479385
P 6.580059908807746 2.379617419738111 8.148903976761687
P 4.104975522510719 10.144743161280584 4.649444329204336
P 3.3851329243044526 6.708243437946908 4.573479825712652
P 5.4977396290827345 5.503478856777014 6.677849709493705
P 6.661109937108747 4.619833503821318 8.418546540864009
P 3.955030166383126 2.740272902438598 5.776274454368742
P 2.484685390130008 8.725731775829617 4.051807092176726
P 4.078301347812451 7.319570994833309 6.574483083334003
P 2.170698032338421 3.99041903131828 5.98272203346047
P 3.541211972777756 3.9885280872286546 7.56933450567309
