21
Energy = -110.14633723 eV
P 8.110018044560736 2.489691548351419 2.6133553480274583
P 8.111029078559296 4.253062089631585 3.97362283353707
P 7.968554945828613 0.6402098341315512 3.793914425250581
P 6.0221626571468505 4.924772996291905 3.5697091167468655
P 7.057722670051551 6.21658748861002 6.487487829528751
P 6.14489789686428 1.4797599859651855 2.688709102514527
P 8.044029237084132 3.2734397334877965 5.995331925586941
P 7.075144809834716 1.322325964052434 5.751593187131269
P 6.209745478578533 4.181563419616195 6.879405987265872
P 6.195293690316327 6.901881176088049 4.551594343336547
P 5.179282016761132 6.222994676450613 9.263273432976964
P 5.144179617167507 1.790242140497863 4.714239363198343
P 4.807846213348753 3.9708307730852437 5.139046017438755
P 6.30859962424436 7.644701363255098 8.04491868904985
P 3.9783836321607393 7.233267369286637 4.542432653811702
P 2.9658496616468066 6.8251776263690385 6.467427043499572
P 4.08978566708121 7.761664869712103 8.192130618115112
P 3.8752567333349153 9.438129629843054 4.282601765530417
P 1.634335572579637 8.608874440942923 6.4704972347135925
P 2.9725815042397965 10.363796493200814 6.088262955514737
P 1.6708758627285765 9.600967211812637 4.462520486512648
