22
Energy = -115.21758361 eV
P 3.1058374675836053 7.37721680636087 10.763201740752336
P 3.3768239323782927 7.359770588972703 8.557308266825435
P 5.568166827767077 7.69899490119841 8.57386225300055
P 6.426147518185858 6.218058710912669 9.993277088115432
P 2.942468496939694 5.474097277872568 9.590178214112958
P 4.5950374595382675 5.72982397693123 11.094257378547137
P 6.232534186132024 7.127647727382153 6.545709927212944
P 8.208594567381464 9.777922350467234 6.5816192224739885
P 8.351773031710117 7.63050880109679 7.0756302333454295
P 8.2567951868867 10.01783077144734 4.36734438071462
P 6.719642792994478 4.236728246182521 8.837413093738009
P 10.135065445181569 10.196052403800154 5.540893579492221
P 4.863814535913102 3.8065694876151017 7.686384433312381
P 6.399143836464182 4.917278582397978 6.8038413821470884
P 9.896954510242608 8.54024179539173 4.083404256055253
P 9.504791526190477 6.7787919590878065 5.358757750813861
P 7.5051818274618345 3.958693363264121 5.092536987629503
P 8.328798441377566 5.595953705085189 3.8752225572940384
P 5.624986595648767 3.6288462063864855 3.953712546738639
P 4.683688488375377 5.6540451685470225 3.701436483800998
P 6.5388558555347505 6.5890049462730085 2.9615792348806473
P 5.777717796660459 4.72874254987486 2.005249315545569
