22
Energy = -114.96857174 eV
P 5.298314911527823 3.3455926315796636 3.4660357612966863
P 10.122847220307268 3.822884403895037 4.821256475929766
P 7.915277619427117 3.89806296883855 3.7643191703545815
P 4.87322120206718 6.8085060366192405 3.8770759304676248
P 6.891921037765526 1.9019418753076949 3.1671458229646476
P 5.641867668482104 1.90341859391504 5.0463603105679695
P 6.698654879829955 9.099243511157688 5.0576934701673775
P 4.5134071324494345 8.90721327085121 4.5342348251924625
P 6.990282123452424 6.902521848159449 4.63645436181468
P 9.788670054484943 4.366465963697059 6.973413222634673
P 3.4106851260241187 5.520571334417134 5.027460853312239
P 9.538180014401327 2.2723246930210337 6.248909363662217
P 7.44438116888074 3.0573501110509893 5.724406199555479
P 5.146478959231926 9.105820487970005 6.663507895756267
P 7.570634121699464 4.509434739124895 7.412491784264832
P 1.6755685738114863 6.9005665025884655 4.869384958386346
P 0.48293622457902063 6.224372289860374 6.624284751817767
P 7.256238954878462 6.617208091911795 6.7959298167509905
P 3.907005829620374 5.563269062654521 7.173477750013829
P 1.5192309718066588 8.180076635187225 6.685829710430735
P 5.348945141858425 7.170791077444454 7.749174938590976
P 2.1427720773137766 6.540010712035414 8.072332151285847
