22
Energy = -114.62932596 eV
P 9.310077988050827 6.6083704511432515 9.509079281755271
P 11.05439266741324 5.1344196510755795 9.196379220293093
P 10.69620726874532 6.845029710711775 7.813616895656927
P 8.931372306898469 4.466537717080984 9.144702170747246
P 7.728448311054187 8.67670632004156 6.514703859414742
P 6.931933874772548 8.237756998244896 8.522324860162124
P 5.955167658407432 9.628745664598265 5.604206729608281
P 9.903875365099523 5.7762022622278915 6.057524976487416
P 8.71220814270867 4.118181686085088 6.969094554109894
P 8.003489988851282 6.8320412350814035 5.327839008051171
P 5.838682425888392 6.446298081656116 8.236866885611708
P 6.877791232945785 5.403657331317309 6.583782131159648
P 4.260641648354895 4.116866356178306 9.238845935341658
P 6.3946886099222695 9.562519488041744 3.440213525249199
P 4.151904458855606 6.435121656548225 6.727092195159019
P 5.009909698665818 4.757368963975854 5.613895794320293
P 4.042174560658917 8.418265724452178 5.715931831278037
P 2.596203487082744 4.662452106228131 8.120446461948847
P 5.667277378333612 7.650973459274617 2.567290439166689
P 4.053818230356561 3.275844850721064 7.23035129022031
P 4.402857599672779 9.479662829629046 2.4616233941570527
P 3.7274164718898075 7.717516830315871 3.654727934729922
