22
Energy = -115.138448 eV
P 9.928702783787408 5.209446927779079 5.539540580215493
P 9.084718119119069 4.581876813245874 7.496966215049158
P 9.906486862270532 6.187444637212586 8.843239680227118
P 8.506036467425682 4.3858374448506545 4.034386933430763
P 8.11087990703347 6.943030298909604 9.948810962419246
P 9.213477745367939 7.309333916129401 5.106748640208177
P 8.485198264934585 6.383473765011373 3.1888423555712277
P 6.19263209354445 4.892138847895525 4.685345522864309
P 6.531932117569041 5.486292330019404 9.256257153515675
P 7.081035849377953 5.351745538843638 7.1604330501924585
P 8.867618849288133 8.065303940954726 8.187326653956811
P 7.508955299042321 7.441143874663635 6.551514635405976
P 5.141280086361005 4.73202749962712 2.6778806189812583
P 4.154366999009779 4.7107218936515745 5.799761986550582
P 4.520505038173203 6.557857305324926 9.226094910983324
P 5.812272220811136 6.6886259594407695 3.4670555406634675
P 3.655321083476723 5.821391466683308 3.941309867626016
P 3.4408844839341715 6.274024791882294 7.241340971614728
P 4.98243401367272 8.706824995888553 9.163575306855236
P 5.203252552719165 9.46934837876076 7.088081239371362
P 3.50455948351533 8.276481589323868 6.325303797881927
P 3.212314304372064 9.57049240870793 8.115048001221703
