22
Energy = -114.63934976 eV
P 10.681001071252423 5.445495647839372 5.484044840703688
P 10.189044645145772 4.048848885337931 3.8315176441430965
P 10.043233651980312 6.243017588918643 3.465465404551551
P 8.933839302841037 4.107769165305034 5.6863304212753585
P 9.044576442007115 9.193027148254755 5.844366867253411
P 7.876952532112217 6.5813682764994255 3.4118166782316828
P 7.690885789008963 10.035888904660851 7.405618008542662
P 8.39308553843012 7.928120741358204 7.5516421370042774
P 7.209883724990072 5.425996395249234 5.206448227207724
P 7.674125031781449 8.720149202772713 4.148848402617338
P 5.577796536962199 4.588311992451073 8.597742272322032
P 6.4637231438105625 7.012765749208619 6.891167786377634
P 4.562970781644159 5.364775144947042 6.767683381526889
P 5.793977524160889 8.235843830493494 5.158300231055812
P 4.67156395313084 5.746458907737056 10.249110403781506
P 5.3486056409981355 4.354329518598306 4.9918626256406995
P 4.07199942379696 3.6190476853564633 9.943556838358841
P 5.565827165167794 9.914055093151028 6.58523267755077
P 2.4435199780206522 5.460768226122201 7.397050211776447
P 4.848933180250349 8.36716070313397 8.119190640914585
P 3.3924690989582427 7.4267068068558055 6.745206409588689
P 2.5906313937057415 5.248739935904322 9.58644343973117
