22
Energy = -114.99135101 eV
P 1.5140292684921295 4.583710163326174 5.165811760001334
P 4.407431958421389 2.994559271199169 4.968852108709171
P 3.109114869730915 3.6777327805247673 6.4143727285006396
P 2.4482816831662118 4.8730487207758015 3.1566968096657724
P 1.781813550628346 6.545820818823825 6.110769889547497
P 1.1592395689355757 7.914429201418945 4.566549018935401
P 5.953279961653717 2.1418974497997403 6.345070450713281
P 2.1259760392915785 7.030537599628274 2.7541078771250325
P 7.251501733949933 4.4160224552054625 5.048381474547342
P 6.717304652074765 4.12730992789583 7.187645216766008
P 7.620419703831362 2.2448849283925743 4.787710166586847
P 4.111568529049958 6.285513677492686 3.5027056880303182
P 3.4184766208247965 8.816270768031488 5.257525100589765
P 9.290279463268192 5.305974385452781 5.0917545145430205
P 4.040185320238356 6.716895079871891 5.708456903388164
P 5.2747758481337526 9.837677797326846 4.427307107942916
P 9.244685972941744 1.968045312229375 6.24460026030559
P 8.615208885441861 3.3179582350605332 7.933984021725149
P 10.636237693482784 3.57438064328185 5.477648874662371
P 9.984678673550954 4.9476752046599675 7.173077667874522
P 4.862540839512687 10.055688882154334 6.586692599708378
P 6.143322317346448 8.473406328734137 5.860085938142601
