22
Energy = -114.6730884 eV
P 7.057979486130527 8.042067092964515 3.465432834755841
P 4.854615975536159 7.570082619856132 3.791072105723819
P 8.146433182593107 4.627868834943651 3.608243846127601
P 8.225652173178375 6.507075956918306 4.575834892338766
P 9.537600519296918 3.8084847180038164 4.988452869956867
P 10.372673161597282 7.199895126931372 4.990739553921638
P 11.341704364069077 5.2448990581616535 4.933096864002242
P 4.278308654339399 8.922359007963689 5.5106570895383085
P 7.571412973315418 9.772028679290559 4.706288582159339
P 4.572870311578817 5.584415198874799 4.574282380212921
P 5.960186609429497 10.298741531228778 5.867625735812895
P 10.736680207984053 6.140936826080299 6.927642871702266
P 5.478801895227522 5.97676772856156 6.465327598910858
P 4.695018612996858 7.839839090638782 7.388031259967666
P 7.723587975734335 6.399116375646793 6.750599541237547
P 8.998251060915939 4.675387128714516 7.056676147335241
P 4.212594583560893 4.694485575364736 7.806909989700988
P 2.899919790536014 6.52053750227883 7.88243998074268
P 5.176782921956399 4.652483991743227 9.799834268975001
P 4.940188646991455 6.60485218966354 10.829454091891998
P 2.8798845975978495 6.944063337334523 10.053704390602265
P 3.3969428896125367 5.031703023013891 11.085743698561236
