22
Energy = -115.76984328 eV
P 8.1314753333786 5.9606219635030575 9.347756980128883
P 7.608594012358188 7.090637313614494 11.232242620560111
P 7.491503913071883 9.127029513848482 1.2111703914746965
P 8.795472705357742 8.391894716896108 4.798181010669723
P 7.003540462592113 10.31603740527396 2.8128574335283516
P 6.503280855280028 4.506340181346196 9.511404182558545
P 6.749472892711918 8.78635073651467 9.98542409563327
P 7.2973870757530515 7.646198926763039 8.11017769068729
P 9.273474118147718 7.116470864917174 3.063050302341489
P 7.347903184283489 7.013065508241951 1.8934208842464642
P 5.415449395350205 7.358464194032622 11.040348474742439
P 8.733587767062609 6.18287522606543 5.0444652747404275
P 6.656492658637587 8.962297451933505 4.562250591267374
P 5.211808543378156 7.113441499869679 7.71764933645502
P 5.81488110489089 7.249688873184853 3.4572019817134065
P 6.662815376121943 3.791666299695549 7.431388811170271
P 4.783712618252717 2.3745873313479384 7.204951814769979
P 6.659375785638619 5.538587352672076 4.526491242932145
P 4.70910774676054 5.8497749827454655 9.485585467700933
P 5.490640066757908 5.344959478658799 6.389062482831544
P 3.14312008022199 3.4331824721368505 8.113069172060804
P 3.551151623776679 3.8800750265233304 6.096097077573028
