22
Energy = -115.73110536 eV
P 5.555531133697058 9.951126425695449 1.6642318193061592
P 7.166936623777957 9.591756340886384 3.160074111317527
P 7.034105702747262 7.402215478703096 3.429137937441178
P 9.314210364525662 7.8371919993090025 6.36289386938279
P 5.259444538787973 10.514471130744615 3.8020621093281033
P 7.219729717727365 7.218868790319964 5.6455145133727145
P 4.002102184210582 8.925931854036202 2.8839364231752724
P 4.840341412970982 6.967819685432562 3.458660481799468
P 5.701874319698238 8.296995012693978 6.676281753753234
P 8.692561290835435 9.446355359218755 7.726751986003397
P 9.134987925216901 7.616786481397286 8.565122929912835
P 4.904909229038497 5.397963331787163 8.382382404743893
P 4.20769409628622 7.147697862006428 5.631255917970558
P 7.093713565712971 5.851398179152058 8.66111474761658
P 4.716807946678255 5.003379743971903 6.196277159462977
P 6.838249357195376 4.948975249339173 5.492836868171601
P 7.589873641879568 4.770668129724853 10.567115710832487
P 8.011324256929138 4.393985720163887 7.288861878600216
P 5.010083206443308 3.2448065753538593 8.769220299180406
P 5.905672973701283 3.350839558537578 10.832722565647542
P 6.987411230903523 2.5615373762215463 7.90183166227594
P 7.884336360464445 2.631130794731953 9.9736139301325
