22
Energy = -115.65778656 eV
P 6.717042831792598 1.8307578995088534 5.123885488512106
P 5.73714461137878 1.5597217072888432 7.152859273347779
P 7.9916854306347505 3.508457132455062 5.94087790901937
P 6.990400247921149 3.2385854045701046 7.966923869914722
P 4.627264562581477 2.5558796113281748 5.492234112077861
P 7.541704861525375 7.0016824801033835 5.300952308924181
P 6.494420867829505 6.430086123454985 8.646512873943086
P 5.318926026567819 4.63268654126313 8.053408105095814
P 4.910382567547636 4.74016058758041 5.8661953801825035
P 8.269577884382896 6.439180257350308 7.3279958582617875
P 6.8202636610425476 4.933674058070543 4.7618281901647626
P 8.959116966257525 9.93967437244665 5.20260283380868
P 2.2704567279630345 7.3586182553387225 6.189733799952194
P 2.7581461822356954 5.652868551383035 5.0817954817692
P 10.22407562181118 9.286242959847735 6.916480423106561
P 8.898307794081482 8.289680823834281 8.369137897028356
P 5.363614391825256 8.153551791441748 7.826445220058561
P 3.66754629530337 7.620602494144445 4.558201317645938
P 9.464257169813505 11.385021166198012 6.820216135505492
P 7.342058309683788 10.765816371608565 6.478073166764287
P 7.056271835301242 9.583121693866104 8.341172745186592
P 5.634771200396821 8.151365764794493 5.639903657607433
