22
Energy = -115.46732454 eV
P 9.320787427886414 4.72715614131923 5.502463629765173
P 10.862925038061615 6.358490605317261 5.224281343287769
P 10.253034841223226 6.284608457523719 2.984169191885392
P 8.377556861022637 5.153922863518245 3.470068572148141
P 8.517940085358134 6.323786664965394 6.79311715089326
P 9.226542513681132 7.908691224188366 5.4387742441598546
P 8.324945375575284 7.340900409329829 3.4159947170501814
P 6.291899785744405 6.287811466316395 6.557596235218819
P 5.805372647673252 5.12332773517777 8.362243880478761
P 4.4947190910751695 3.599481299457951 5.749716352315479
P 3.7975568771857082 4.306425192774641 7.735802838810111
P 3.088721902622511 4.489282536575143 2.25229288180254
P 2.530557478341011 2.5686606356150703 5.248110653634993
P 2.898670618491902 2.43029114921714 3.082043541604564
P 6.2886296393140375 8.470434692089352 9.379191633844087
P 3.423343628760103 5.5520988186500455 5.934098389508908
P 5.9638910877394915 8.389514272098959 7.161396195288831
P 5.0717957778914 6.665669346807322 9.769908753454713
P 1.1472785588257317 3.4222288732784607 2.1355023367909105
P 4.236996478535616 8.336253251839244 8.535617093613466
P 1.4482468261813097 4.516658493199982 5.46090567289817
P 1.3312004735354748 5.251113243932973 3.3881328448337067
