22
Energy = -114.84792371 eV
P 8.520771867021445 6.955688815005872 11.491272167516648
P 7.064091382498032 8.558109841988 8.694420277253416
P 6.926029835794277 8.383054023336042 10.901243792545603
P 7.926318774403609 5.413281921416906 9.995838624811766
P 7.948209109732972 6.617994420889407 8.137532803440607
P 6.414418716411842 6.266032648622774 11.392594234207479
P 4.808010516650085 8.470819102122777 8.564630726078219
P 7.346844236169403 8.61307597016439 4.330591980859374
P 5.874727865610163 9.326802037425084 2.75955940098877
P 4.137146683245101 8.2108527237938 6.468945463781117
P 6.3919744133352925 5.542104674781002 6.896313013137442
P 5.93011170652329 7.342758446439286 5.4521330192264275
P 7.758389735367954 2.779366700922885 7.773510294557722
P 5.7338654418338475 3.4289426426296945 7.566076788428572
P 4.14672230981763 6.517923935661069 7.903080236598879
P 8.1191861279684 7.043934145921179 2.929654219415646
P 6.722750713769625 7.798556951783253 1.3120782115044058
P 7.886804840583747 4.577684824744063 5.333197447406219
P 6.86470042531838 2.616816191290266 5.804155740670544
P 5.015815183681241 6.051771217505325 3.91303567234854
P 6.973933109595833 5.211467360948672 3.371287999743972
P 4.719847378763643 7.503631776704394 2.2395182595749494
