23
Energy = -118.55779246 eV
P 8.71987463419583 6.1126948475677185 9.698443135821956
P 7.552158594604619 7.534075950185086 10.88902910933328
P 7.351617494342863 4.3836920474305 9.418434511165499
P 7.966923797408906 7.983364006729261 8.718408871542996
P 6.160243086378195 4.342836813318479 11.315722866755179
P 5.578465047861972 6.49942141738223 11.119641492456898
P 8.5109194088217 7.02940795617226 5.184128317779862
P 5.261620606385545 5.114469635870056 9.430834394707858
P 7.619074982021813 5.100825112972093 5.717169520629908
P 8.405821453586265 4.066537965308557 3.9823371253962496
P 6.017141449549544 7.699296126277469 7.651514743534744
P 7.087426897575213 2.311878469627631 4.332432025399418
P 6.719058878815303 8.176275265391801 5.597463522375517
P 5.225347316409845 3.0333854916820613 4.835168994903119
P 5.3777431513927825 9.740662979355156 8.230956845704043
P 7.3220526943259125 10.319729347555857 5.682628629185265
P 7.168953987473271 11.032138917421033 7.773598447520543
P 6.512844961481643 5.262760584920819 2.892328479651238
P 5.362155935347208 5.289735437722785 4.801790785477828
P 5.384345456278099 11.097733791004787 6.449795218978465
P 5.381349446036719 6.864863002601353 1.6911257268122613
P 3.824400293854197 5.824706050864502 2.7849737776201717
P 5.01601308555369 4.705061442339779 1.3276261169493122
