23
Energy = -119.08944948 eV
P 11.442769022263263 9.274572178090267 6.179300967943047
P 10.324585391915157 7.396324988142582 6.397544134788004
P 9.844324365044152 10.785593200654981 6.180347430008602
P 9.039044245876907 8.002505514730602 8.088143344110815
P 8.65201386277637 4.9362742624058 8.205732882927371
P 8.941807428800491 7.738963145971088 4.730328954555441
P 7.323399329596529 6.618255509265164 7.7031953857839985
P 7.830654373668493 2.9329992712326143 8.341897730030087
P 8.158390550458765 9.92628704075529 7.374477424599564
P 8.124435504421793 9.781836565481042 5.166325155417676
P 7.3134144763495765 6.367871026430625 5.434060449226671
P 6.65917903164161 1.6084234321835142 7.011099817042306
P 5.917542677289587 2.129168975496327 9.076789417457118
P 4.775576848237266 8.601842335787888 6.532909410241637
P 5.620064751811384 7.652489457043466 4.712712009804228
P 5.070461667710265 4.586316818211204 6.9043009470356465
P 4.7499682102014615 2.5515351919249896 6.117170739389549
P 4.026564644079704 3.087119035823161 8.150757329565684
P 4.070773814836954 6.194863177960872 4.144429138939758
P 3.204336470619002 7.261455319452589 7.313270397685802
P 2.5959342251887083 7.805914612050518 3.893633213615022
P 3.1950718289506552 5.439813591572522 6.032393727083337
P 2.6570775629817427 8.856965634053191 5.846570277469249
