23
Energy = -119.11158133 eV
P 10.530406385992434 5.172080864424447 6.770470325895131
P 9.73821273383287 4.166581386725205 4.981522027764862
P 8.573285120858946 5.442932884798688 3.5506714190018647
P 8.622952357964438 6.011098168889809 7.294913993995041
P 8.57052405022415 3.0039479715491373 6.481720138447344
P 8.381820172321431 7.298862776092188 9.051398862362381
P 8.18374426323882 7.6897482851758205 5.9161205014730625
P 6.990276042957529 4.415463031330118 7.079797038484067
P 6.9339670935728694 6.844350553995874 4.336102728751201
P 6.5818383611324025 4.341281561217891 3.3855756082069295
P 7.007453525802835 8.261849978583646 7.7157292832661275
P 6.9450276107785305 10.5025880864526 7.8942181630030195
P 7.210881906218439 1.4016479587562882 5.536849500384827
P 5.756313096797969 5.044368089328831 5.289733632521295
P 6.364821613527266 2.112502967670156 3.604461255400869
P 5.227772570213821 2.273288619427288 5.479130006126419
P 4.8844091822845686 7.590524624171013 7.716512031722313
P 5.0206067721403915 10.968519937511827 6.873705688411134
P 5.077225548085073 10.805755856966167 9.065081325346787
P 4.227839348777272 8.969685022752978 6.14934264364093
P 4.3463357074492945 8.716843162196518 9.523281507609108
P 2.162302334481032 9.353932825605405 6.9148433194778
P 2.2321821743666486 9.182343359397303 8.959016971727022
