23
Energy = -118.7945543 eV
P 8.983812910040038 2.518609371236053 5.060028254708878
P 9.102959190145391 3.193010223563091 7.218544924869969
P 8.845382573156842 4.673338936273242 4.436400471395836
P 7.319995712966354 2.065159842378856 6.486093074804539
P 3.764061617781365 4.060838357032599 3.979141565248482
P 7.096375763993152 4.823603791486688 3.070313152880232
P 4.125546281348215 2.5159508703711744 5.300486132460509
P 8.102470342505832 5.091054376245347 6.491834766840188
P 5.697314780857628 4.9185510455223715 4.6357610693360884
P 8.942291242864808 7.067084384551895 7.052114241519932
P 5.734798556518054 3.628248856131459 6.43961900360312
P 7.901246554541013 7.906946397946588 5.278818188728758
P 7.444142017052544 7.5155573788381735 8.691086089396922
P 5.852193861230463 6.991689589264832 5.578301044119624
P 5.444920160434531 6.924638664901284 7.807368641059994
P 7.855008034771536 9.624017568910222 8.26251330861955
P 7.269084878411788 9.92725193742879 6.07351104127441
P 5.647500147969339 8.74224440497401 10.661449964047591
P 4.5359453798639295 8.2730425827677 4.487055330743191
P 5.019860000358581 9.897208917729028 5.8612561563856955
P 6.419332910297045 10.57333436017194 9.728426426895062
P 4.134233190128001 8.709428386576237 7.510182753383377
P 4.297939771410286 9.895605634345015 9.426110276323714
