23
Energy = -118.61468803 eV
P 9.877851967913816 5.238270280579424 6.819751864275603
P 3.1598850023110625 5.383629589493252 4.679109093681672
P 5.6237866449104 6.323584914401285 11.096196093420863
P 10.995187970702444 5.767607727655874 4.168486436931641
P 10.947967667455742 7.959840736782418 3.86333576246353
P 6.985807812573662 6.230774413216015 7.790079074008268
P 9.318177287254418 8.836380638602137 5.094881199538109
P 7.491587677916903 6.226116143629838 9.964481605694065
P 1.9536472073379585 7.705691313989066 7.148418464016864
P 11.85638488736283 5.535118257673542 6.195939596676051
P 2.2435459154173065 8.858751847771178 5.175677418703681
P 3.5318154972566775 7.500619514415825 4.025052518324273
P 1.8097105524227652 5.546032471209384 6.435291452519156
P 7.875778024154138 7.211173222799425 4.63597651706707
P 8.947781310524274 8.282734661571583 2.9719794244239446
P 3.8342051416296195 4.624120026946242 6.679732599320883
P 9.447691317198363 3.9021596214002905 8.360064259486707
P 8.920156035795841 5.277063372744134 4.780683931725984
P 4.07223104632085 8.188277621024602 7.5398011280464
P 4.771432354288734 6.157913928350898 7.966338720431607
P 7.327029871782983 4.2865673619421925 8.813846838400993
P 4.02327977655828 5.618333537536121 9.9109189505359
P 4.516777200591756 8.870956965945947 5.415675219988213
