23
Energy = -119.66643393 eV
P 8.531507794457406 6.877192692586628 4.405632432564336
P 9.845885898198643 7.3506914262323715 6.177629731746835
P 11.490957210186789 6.335585774094766 4.903912457437598
P 6.380795781714593 3.3636163776723063 2.848863931997318
P 9.662515944507632 5.391329746561667 7.190829610220857
P 5.6471409702525 5.021072618968671 4.134259630261161
P 9.944843968819027 5.3065810853816195 3.6488100253957505
P 10.686610035746341 4.338026892247823 5.529713948515669
P 4.620504191866071 3.7472301203404994 5.607080687046825
P 3.5357762284928573 2.429910107967922 4.1777340628715365
P 4.336864824723813 2.808450418245821 2.117725149398964
P 5.411108164106305 1.4375776238475348 3.481877235874182
P 4.697860846536921 6.008605464945198 7.942290677444818
P 0.20937100634714687 7.266425959718178 7.468970504072626
P 3.2495230844412157 5.3230110802099215 6.419447211752677
P 7.278614559393509 5.507197616141584 5.633334533896866
P 6.203020950302415 7.122865152318342 6.775025517371283
P 1.6004920628299384 6.948641811899816 9.146995329949203
P 3.0748210678230476 6.983768222926899 4.983938139798067
P 4.923093902803798 8.168123325591349 5.258644743103523
P 3.6012833615925786 7.83615992517769 8.43696108736467
P 0.9435089889308567 5.350841007536201 7.739379377185173
P 3.0942561529036863 8.682247389208323 6.431691317506393
