23
Energy = -118.70538998 eV
P 8.25302327691553 9.4288434535645 8.345827004097185
P 10.129069448757491 8.466213680615564 5.232391627485006
P 11.053877571584811 7.491787056312511 7.038843244244247
P 8.103519998335798 8.763710062987462 6.084728899333303
P 7.144679301828098 9.982175706142039 4.599475145311122
P 7.5889728266217755 7.360752009603319 8.804670992964779
P 10.888094568461874 5.35278354627208 6.700163742604757
P 10.01346785483122 5.071485701178944 4.836790204562468
P 9.717688216436901 7.927046049459735 8.932745810179918
P 9.333967960282513 6.871379496540564 3.962623251505676
P 5.093236104725304 9.528257193093884 4.284188583080637
P 7.576419324986644 6.640393540909727 6.538045222515804
P 5.392419741256391 6.676473060022221 6.325109555326151
P 5.685231893446681 4.057787637507511 8.419337431502676
P 4.505957939998438 5.9189724176375105 8.200415914685513
P 4.170495436723268 8.514295073459941 5.985359411138042
P 4.757967086756731 5.496058112085234 4.521816916948092
P 4.136148670965547 2.665328948216192 9.212097620188093
P 4.816542697950004 2.494919107408541 7.098238798391707
P 3.2747397318218225 7.229125880588105 4.308479936564653
P 2.538994275980072 5.269189396091886 7.389515998806083
P 2.6550990732020003 5.263133944152636 5.162556067005221
P 2.706993232469493 3.0664951604884356 7.553184855897281
