24
Energy = -124.65788048 eV
P 9.012267758296167 7.611383197673648 10.879281077536637
P 8.611616954288639 9.583395817862264 9.935851833809515
P 7.308607180467142 8.853284519071215 11.582136354499855
P 6.92518527285693 6.891690183987282 10.601892021586474
P 8.391498934818298 2.3794357481270088 5.649274395277204
P 7.327339098451232 5.869226008743289 7.454964611724337
P 8.821408827883136 8.813855820685129 6.616844592601848
P 7.303422211023342 9.341179518938576 8.165687496854282
P 6.219137632098398 7.436895425270902 8.576138114486897
P 9.10584692160141 6.643100247587922 6.6335987847049305
P 6.244713493552039 2.056995292033958 5.112048125390903
P 7.881475033091646 1.7811289895028255 3.596645494122182
P 6.100372173040319 10.647511143533814 4.748774519094399
P 7.370021028761352 8.980669450414968 4.935979516479927
P 6.025481904706087 4.123355354326024 4.211842827237829
P 5.594910713697427 5.485704838091409 5.923268059041562
P 4.389505243593902 4.192929856871798 7.3776840862559805
P 2.969743935854312 5.874550961416928 7.643998905428305
P 8.261040653913735 3.958328355958969 4.060225169134106
P 3.533794336581008 6.361936180991259 5.50079801040506
P 6.656802785498471 7.146601791609236 4.133366549255865
P 4.589685398068531 9.877537435710835 3.52130556600096
P 4.880145101947735 7.7896081351858575 3.175735407039613
P 2.5829478977050866 4.406666218201721 6.069628973827694
