24
Energy = -124.87028449 eV
P 9.757477744734343 6.96172728156474 3.415706672300348
P 9.161734723721441 4.963272448419698 2.6158415702904714
P 10.85195518876363 5.11830946910885 4.042630755095448
P 6.281381486048588 7.6192647682012185 3.830325766758168
P 8.238760826776184 7.312330605033437 4.982332158901471
P 9.011226161766052 4.012235749012731 4.632429122377695
P 8.988261204954908 9.111263896225598 5.856544981956933
P 5.992207850119126 4.651655869742947 5.5587405767874865
P 5.577121839284726 8.627722089408467 5.681834446145554
P 4.770973502631306 6.141801098947804 4.441932005813315
P 8.032421361337999 5.373929786386012 6.121780816159622
P 7.6158624084621085 9.614479500734467 7.55094570289269
P 5.91692354903481 10.691369430586436 6.357211542029539
P 3.900855042049993 10.578817994539614 7.240389570417428
P 6.609287091759905 7.64696229958351 7.443932838483928
P 3.5358351437048787 8.035352677613357 5.591446862453316
P 5.774291797894443 2.599723071613673 8.017320087525395
P 7.391664730876118 3.5475197006840626 9.246249935409937
P 4.560299426173858 4.250756994130277 7.20703311888678
P 3.2507117338118077 8.565864316563912 7.7632768416488975
P 4.958504145127904 7.6791821654000945 8.881701123351483
P 5.623074989211533 2.635119134960953 10.2414139808449
P 4.347267785061031 5.540654077706911 9.023218209679353
P 5.9592979050335355 4.828083212171153 10.363158952129767
