24
Energy = -124.23059289 eV
P 6.614629867555689 10.103245560064385 7.577989191108763
P 9.157741030720212 7.1520107969565885 3.952456841562578
P 4.326066848666599 8.531348916916434 5.352264212506746
P 10.799976542534083 6.8631175129956565 5.383158178618878
P 4.590039616119783 10.748902979706882 7.93740835840717
P 9.07907533450981 4.922621895272245 3.791011402022131
P 3.334439978273342 9.11553794549066 7.297144859061645
P 10.647625127120884 4.694780027041053 5.394292580832498
P 6.389549127732237 9.423125654060106 5.477255488440154
P 5.0951091560902775 6.520083595218506 5.870091570106126
P 7.320330130013222 7.3374027039426135 5.458328146529197
P 4.551657131956751 4.90343137702431 4.379483684133371
P 7.212606341032539 8.39418758610769 8.892953499933887
P 4.309630818870767 3.194833218869465 5.799053185268877
P 3.3011244533427497 5.858958869636567 7.212511223248392
P 6.121954397864294 3.286532374423678 4.521032956569085
P 8.534840565362414 7.443601859267503 7.404981322846558
P 7.587590666981887 4.668734506131746 5.447172592104395
P 3.562267094488684 7.412345946180778 8.751150351382883
P 5.658264602034345 6.846981548966415 9.404032526277893
P 4.480899866325119 4.0799182560596 7.88824810037189
P 6.203848961697051 5.490276691480193 7.724972304311024
P 8.991719976395316 3.8417002285745734 6.91797313732964
P 8.349358424548502 5.386666009849773 8.385380347262892
