24
Energy = -124.95371413 eV
P 11.178333432562853 6.910267702958729 4.858573946917994
P 9.84971968574141 5.491373143201792 3.7440542099618574
P 10.003747181403163 8.701906401645006 5.409337441050503
P 7.8819671481138 8.336664321262703 4.830885916780846
P 7.828766928567024 6.4228263935155 3.66472893033149
P 5.080711448038787 6.945523718135813 2.1815024157452894
P 10.45256924800917 7.060164234883158 6.943017573213029
P 2.8545320529575515 6.477447816083517 2.3149420500964646
P 8.265044239052772 4.811013632633376 5.153109651714102
P 3.8448975231194553 7.696229211695507 3.835045429120786
P 7.321687752790044 7.739084121550362 6.881451374361946
P 5.532657384615773 4.800384589246889 2.6991414350097402
P 8.5556325293085 5.89743764979586 7.0760259668239645
P 3.853524961243867 6.304141375145066 5.535443576389131
P 5.131467823555538 7.542474851099874 6.875284410362378
P 4.6290404604013755 4.425179933036837 4.655926468908715
P 3.3225696889077665 4.29375857801587 2.887798970942433
P 5.040673473006125 7.167141136439321 9.0651056593484
P 5.255175298599531 5.066499222992508 9.818116289329916
P 3.9720646643999236 4.47428087733771 8.109018283438163
P 2.522071789749771 1.7822627565695353 6.773619982608676
P 1.0630080039015 2.826716350773857 7.703981921066896
P 3.247129797271835 5.98342150990828 9.584511823800318
P 2.978996501130023 2.5766298001119137 8.823359253398056
