24
Energy = -124.97373131 eV
P 9.196621396664916 8.71826581499769 5.501678664240285
P 8.258333288808014 7.833760461580948 3.7018303190629225
P 7.695469829352181 9.93158449737507 6.666070556537681
P 9.454752131591322 7.083699923913315 6.994396258485025
P 9.985146783237095 6.361221919339104 3.6833991512653608
P 10.113142866948493 5.381743352082006 5.6755660054984745
P 7.671059588067197 8.7992613441125 8.636343034358745
P 5.562671080984263 9.256320867433708 6.319701892462676
P 7.453918215945764 6.695427619620987 7.892319270627514
P 5.565998995006485 9.635828699877049 8.563000393022348
P 6.014187151235178 7.066459584908305 6.201888149350113
P 6.338814308450426 6.841781463927766 4.097886030611345
P 7.333425259773381 4.058545209793504 3.7657320255748927
P 9.078371420489566 4.711441380272065 2.533110212535072
P 4.538896569676651 7.699412883420524 9.002669466237037
P 9.262845139813983 2.845653978100247 3.768552242125722
P 4.124233198775213 5.851554295056331 6.439141186968984
P 2.332019858601961 7.980089315562284 8.904599329972786
P 8.500881476762945 3.8377751681364525 5.610169270055067
P 3.30316603946655 7.557922259410628 10.853378610301196
P 4.282810663453432 3.783184308384996 5.6807298700046465
P 4.1916507423225235 5.022410627768218 8.456624213953779
P 2.4091448148392463 5.893894437264299 9.640050094801671
P 3.381245863318981 3.2015672712476007 7.459970435532716
