25
Energy = -128.72432651 eV
P 3.8350193964636876 4.918245344858412 2.8324628265306453
P 6.036521998734185 4.885477450923301 2.4883743337909285
P 6.790881542495999 6.915376532970766 3.0623088024032294
P 5.623940271604226 7.012517757323962 5.01521023767471
P 3.5886457190748158 6.885462140852324 3.872532214966409
P 5.725050087948362 2.041445713802173 4.327000152881835
P 8.6856905696818 9.337396138446424 4.561727677423855
P 5.2012927956123685 4.205886709558186 4.4345647001052075
P 2.0522822898265445 6.169382178356753 5.318007332075476
P 6.984030287474808 10.367918483032346 5.443026301265102
P 8.735140520901131 6.173202938979118 3.705635858056864
P 7.323321418051337 2.4705499500686754 5.787426356238823
P 5.058835520773101 9.212073498895574 5.2377711865766745
P 4.550013411771061 0.7903610003535484 5.78106395421702
P 6.590855767509349 0.4419199695991089 6.652484993616963
P 5.886070499209933 9.725417438038663 7.256097569510642
P 2.4053197398902113 6.862630278804137 7.41849178883293
P 9.083900674574414 7.422696178012663 5.477970308839527
P 4.669845189822359 6.70544878055231 7.2041047776481335
P 6.216910112363969 3.3133426415180662 7.6031722636428185
P 2.4436850449519256 4.66435925141448 6.927223662165963
P 5.0118570993542235 1.4848499597242848 7.852562502850674
P 7.420263952727486 6.4610416668910675 6.527305536185697
P 6.421382487080507 7.701012895322703 8.093770274833878
P 4.496958798903248 4.669700298503008 7.9574195844682
