25
Energy = -128.87035653 eV
P 5.446915298628391 4.35473778006682 1.0384817989555586
P 7.801730465966162 6.128207051634256 3.436810570001979
P 6.812373662239066 2.8621594719313403 1.9592453787574087
P 1.661904080606031 5.704577014752619 4.772536392240552
P 7.543100401274677 4.894365024575092 1.5179234500054828
P 4.537915061249758 4.783161334393338 3.0768261737712734
P 4.756278645520972 6.943813505523885 3.401813892549931
P 2.76685553834917 7.557245946823847 4.127734152701684
P 2.5057393696442953 3.9567142063086216 3.590613004559269
P 9.208444921713802 4.694786858181241 4.187905387726993
P 5.9630860913004105 3.3699450221524345 4.1077386728668435
P 6.144780730429578 6.452292553948132 5.263163500092976
P 4.685633426404344 1.636068415777422 4.303312140557133
P 8.016060568657833 6.570646895420484 6.669591657694843
P 3.103259755758163 2.656874610590664 5.314871108684554
P 9.257755340068877 4.866700678156897 6.26343714078166
P 5.312975094795542 8.114385775645207 6.577098991053286
P 2.946905788160548 5.683760434309538 6.5840535738882755
P 4.900070901622716 4.625588889770739 5.92683747997581
P 5.321066216137002 7.285871268606366 8.70195844299904
P 2.296100154461142 4.963912967203651 8.45509225752894
P 3.144367819988998 7.894958490847811 6.368589292764667
P 7.052315493454174 5.835016220084634 8.506588918023683
P 5.758011828980007 4.090601681592333 7.905131456234512
P 4.300740558063316 5.31799511517678 9.187032379058628
