25
Energy = -130.04999285 eV
P 1.9894077768970726 6.775628575373044 3.7900240507314167
P 3.955078827276945 5.846900974361168 3.111493534901766
P 5.414479560247841 7.52143255959371 2.8065593447937878
P 2.4546643010624054 8.85082464039781 4.461422882477173
P 4.349767805518449 9.35238985796058 3.42063430730349
P 2.301268221436432 7.2227273098133224 5.9679898818976564
P 8.302361688815328 5.865110712959861 3.680556921990928
P 4.985892014330285 5.065411128975798 4.941607219185939
P 3.657989083728691 3.254095284305861 5.379292688804044
P 6.65195837436354 7.051957435047033 4.603846822963985
P 4.139823661993925 6.222826418018519 6.678813549352306
P 7.681881080194635 3.854351166630555 4.389988331826584
P 7.232929602152374 4.625067613274708 6.439865814691059
P 2.8427867047850746 4.382191247785314 7.113722004795396
P 5.089793992845589 1.7346490631073592 6.153631141691081
P 5.964491554230522 8.9522125758515 6.71458178024607
P 10.041146325279032 5.9689566120852025 5.136737805106673
P 5.708468135550131 10.269804552161016 5.020504588429445
P 6.869635976194445 2.5676113701750434 7.213868134678322
P 7.540804818557586 9.043327198474055 5.147265059969289
P 9.96366885564853 3.725884234163296 5.012569235017535
P 9.476843498406236 4.758659042389315 6.8966174403478835
P 3.654556377980361 3.3835936494180334 8.92370245643444
P 4.194955060262944 1.3649917209676885 8.240290771435744
P 5.75882757101876 2.7641378883404633 9.160502419514978
