25
Energy = -129.98172774 eV
P 8.282376503205986 2.1197114765319918 6.694303808986554
P 6.185081602591141 2.056046289373525 5.72859700910131
P 9.365969173891944 3.4403195699947116 5.241290047729452
P 7.980094708914808 3.7148162840026497 3.432502784341906
P 8.809075422088075 4.190399100895197 7.257823733492361
P 4.440910788423507 2.8636214694328954 6.841525323861075
P 6.113312852826929 3.876144105547077 4.526398372960818
P 3.103600377309347 2.386084370239193 5.0178165367979135
P 6.77132428971945 5.11967549192831 6.938748506894032
P 6.775598345745753 6.975410564971376 8.186094598238066
P 4.640849610258306 7.531737327608433 8.517571369761582
P 2.823921153891203 4.5301295027658455 4.4654166382820195
P 4.456488125530412 5.0202603555554015 6.048912205103558
P 3.2677812001933475 5.937046247136721 7.744886341387617
P 4.225211212393167 3.2931263203938856 3.314609930371473
P 7.364086782368121 7.040010601850623 5.99070366850571
P 4.560119725483583 9.305789289491843 7.220735017886146
P 5.617328575110413 6.9201866200145705 4.62588450813481
P 8.222457518472478 5.737524187846513 2.2900081483476953
P 8.993558240334792 7.307936020186542 3.571228490342448
P 1.7906193316933101 7.209534034476347 6.702166398632615
P 2.3014248580493626 9.33719297079204 7.056007261102289
P 4.639451464569974 8.88708038188268 5.013285521031133
P 6.980432261854105 7.517558377882513 2.7967202476147413
P 2.449120981840527 8.414073809613134 4.960642938138283
