25
Energy = -132.30814544 eV
P 5.931013809351453 7.558014432400654 0.6587457250841893
P 7.567325196488636 6.080598146439605 1.0625923469105691
P 5.444567140830274 5.459131901830787 1.3623246475706479
P 5.464534094659737 8.37721818901438 2.7035537249512394
P 8.348241484233506 6.600012864440187 3.0934104440763877
P 4.959264932945511 6.277694004808154 3.405926840861889
P 7.593970155704745 8.674464525947633 3.0222624252264625
P 6.815568500475736 5.439661910850175 4.180783186761254
P 7.877459761888756 9.432904948224929 5.171914515095268
P 5.9162998306983035 9.651130339639431 6.134875809232762
P 6.964567642367862 6.239006675189233 6.3145310090684825
P 5.176974652794297 7.529695476458995 6.443908238065918
P 8.67052984463523 7.629756704864085 6.185770550012326
P 5.628884700758217 4.09985356797793 7.986663242341693
P 6.939631114483616 10.17393810738847 8.013068573231509
P 4.372450410771707 5.507481001183085 9.138612628576865
P 5.199808413652037 2.407581487204349 9.438367648836506
P 4.910430147381994 7.629104494666872 8.654093075944841
P 8.4710426682427 8.59044246956538 8.227220883120903
P 7.688651353670066 4.302923321281528 8.792801286887078
P 7.3012696821756835 2.6096496706922707 10.248765047621097
P 6.971060203589963 7.808110576753803 9.602554631297377
P 5.45703805622406 5.538055316225021 11.074879389218676
P 5.546543852688534 3.343345776645168 11.43593521346354
P 7.544767730159694 5.802119471180495 10.408334297415841
