25
Energy = -128.19180838 eV
P 2.551105385627007 6.78901371005402 0.2524163429909134
P 4.310956985085776 7.733524404351063 1.039428436599967
P 5.499213176521607 1.529824353421254 2.818930837469029
P 1.5547096058226548 5.558044667397103 1.80594781955182
P 4.27849064823178 3.232947467865482 2.730443839110987
P 0.5352720044697646 7.4313901170776235 1.1561727460242497
P 6.283556498906201 6.007563459854422 3.4436512353387654
P 4.3809438936089515 7.214534624197465 3.1236577259939056
P 7.09594991515011 2.62350435459 3.804928504051596
P 5.495964481756427 4.11738062889982 4.309756917858935
P 0.9562982440869557 8.999785657321578 2.6116187772367088
P 2.568973579998279 6.098207826824183 3.723508617865879
P 2.0580768553889213 8.219430079359368 4.158925920357666
P 7.748687959401212 1.0335340151350698 5.301247209682242
P 6.952560557738145 7.118976742060479 5.233425350753559
P 4.258918656055722 5.249125453725618 7.205647180711345
P 4.949966275636689 3.0730066999604784 6.813814147016854
P 7.7631108510369184 5.906076288359284 6.904306563749752
P 5.7664954725966115 6.9093318788333145 7.107784334632875
P 7.002856549444337 3.7966479984101165 7.218473644323836
P 6.550114323954244 0.7199151372289672 7.064566610557545
P 8.346777212604994 1.9669418094879896 7.208160162351192
P 4.788539228148098 2.7377551991817444 9.103032859413142
P 4.639929006029068 4.957737059303818 9.395828504692865
P 6.6342424234225295 3.9475101578229177 9.43603550238721
