25
Energy = -130.5459959 eV
P 10.571430988529492 6.850259982604727 5.0872882416876335
P 9.792111425036145 7.891934408085425 6.947964595099375
P 10.23836030507192 5.7104127828162445 6.972383960247532
P 8.515406894556115 6.89683775145162 4.1718844628797385
P 8.257691523850703 4.758888088494275 4.556616350839216
P 7.736970928034674 7.961600893414945 6.0167913444004375
P 5.753496449552361 5.380439696426041 2.2700297212523814
P 8.23679740767731 4.71340908421894 6.764295599314411
P 4.539311924899604 8.861411876214332 4.255110541300254
P 6.983569666071719 6.426261763218325 7.344466245761989
P 6.041351394086362 4.385505132346517 4.234597994089631
P 6.086871602184588 3.201592312522872 2.334699878506538
P 2.764676612183243 7.6202641468832795 3.6124386704952447
P 4.246318812722827 8.430593539888232 6.4243288458573735
P 4.028963034953714 3.997197517634877 2.0224680588339967
P 2.5529724864035144 9.202554082693855 5.168201996826089
P 3.076957858107716 2.6242194412597235 5.573972119023241
P 2.7192227074364728 4.059555003291937 3.878151505052298
P 5.035827916551768 2.3610520054963655 6.630379477166113
P 4.402890357938416 6.208673618944287 6.234676076861195
P 2.535375593064073 5.932480002172292 5.01320017493221
P 2.1170293619446485 3.6271017867777062 7.2894587507132
P 3.5804869579683705 2.1878356271602555 8.357385628838923
P 5.179115631315032 3.7671263013677794 8.33373187499408
P 3.540286752833642 5.220887779481484 8.035168944628069
