25
Energy = -129.92241055 eV
P 5.577738607455765 6.911107561159118 1.1049469297649566
P 7.7531807209620505 6.753979920535346 1.8415942425990997
P 3.0260935712180683 5.795637866822661 5.8083427192054975
P 4.406637362853006 6.8595023860487885 2.947814807766915
P 7.803945672301718 7.3461389537300095 4.035924960719356
P 2.1993230478716836 7.87232421367664 5.627028510694438
P 5.073525864224761 4.914889724805594 2.13298834067982
P 5.754785709690467 8.168726261842624 4.147772042200293
P 9.544478035214928 5.753037007713694 6.842737248997602
P 7.033224643957891 2.0498637903750727 4.739893859248026
P 0.4526342116915282 7.830535257715248 6.968965439113185
P 1.6529801953146455 4.8315898238121315 7.237268427708654
P 3.659118160080953 8.600014394002063 7.196196977576924
P 0.8411329091330497 6.382282532680651 8.616032715745995
P 5.647353261242444 8.089634058048095 6.366269409941796
P 7.275447812134738 4.629560971106308 2.3312764600146285
P 8.323890932483522 5.460090877460385 6.907367133537095
P 4.500649131074434 6.492348510853047 7.375690012866438
P 6.966766735728556 0.8956600767197201 6.679425992866136
P 7.459874058626531 5.233789011283598 4.724672425683085
P 5.879878284732471 2.8508377260308104 6.465176486151007
P 9.167154251422595 2.4199001635378177 5.2495216496729
P 9.54447803521493 4.650500533568949 5.212031291490964
P 7.410085230367285 3.669369260951802 7.853773887662727
P 8.850670283683733 2.0336192188112414 7.4088575891044295
