25
Energy = -130.2563937 eV
P 10.125721073778527 5.182501185479692 3.4355484522800164
P 8.582174829354557 6.7077482289650145 2.668698127293095
P 7.186475758611984 4.961715986236486 2.458966751466195
P 8.478195638706726 3.6399137651510562 3.7458621861703323
P 9.483645214154901 6.873815837313921 4.679616330994081
P 3.6986669624278945 4.690697729073037 2.6333639344434845
P 5.414534326588196 5.329743154930893 3.717745765326479
P 7.998096901250869 3.907956259380668 5.874779164189264
P 8.414067483002514 6.050849915253921 6.444766043656983
P 5.813758277542407 7.451023512424847 4.363183134517876
P 5.663586572720426 4.24166978878832 5.948603268983585
P 2.9033556744798474 3.2702388032670036 4.052036093016032
P 3.8441068810243824 8.405002685158946 4.6612369678364844
P 6.266260112083336 6.7733439633387285 6.407346781237798
P 4.5890907354324915 2.386289785925563 5.214696824198071
P 4.7706215688016735 9.947884134197912 6.0621583260874585
P 1.8899489910109053 4.104094822080015 6.022201868581596
P 6.110216080957658 8.775576803223979 7.371092945164621
P 3.544265428412778 5.432746810795377 6.536515261213542
P 2.7602281396171975 7.540294702576761 6.417119083564084
P 2.9452884978724336 2.278251468228914 6.7412576633559596
P 5.80584181028838 3.848908095132556 8.287245471061352
P 3.921596227755335 8.815235161792552 7.859874897330492
P 3.873953757545091 2.882382383005657 8.729559637737056
P 4.004540210739525 5.101117843753892 8.714089128143021
