25
Energy = -131.97169967 eV
P 8.67016423867118 3.6667446604222134 2.1384675806035562
P 7.357623963487878 2.3589747985390557 3.378868424678026
P 8.3377193019214 5.700786775461402 3.0274909035965782
P 6.161627670865284 5.437939361826912 3.0285526977180046
P 9.371598332100426 2.9069942558414668 4.176020722093279
P 5.9122907285356785 3.726921695258496 4.39521978474175
P 6.5056763687420265 8.673256993914272 3.8876379239346095
P 5.2919021216525675 6.932560671306323 4.414544207080143
P 9.042423303641451 4.953484318620529 5.039343498275608
P 5.447250838548913 10.294568469490931 4.922869811946618
P 8.461765745710457 9.051941273178118 5.003263871891457
P 7.513058391798301 11.166304720296521 5.113299912868098
P 6.3416557694196625 10.58334564999522 6.937852162678313
P 7.237513893085888 4.2823581241884 6.089424983504248
P 6.358794718393721 6.286863886575962 6.5320608842425525
P 8.121833511550545 9.266596265414485 7.177832031832629
P 4.557238234354482 5.778830457565061 7.748545130206815
P 7.858127798821863 7.269159013288286 8.115195688982444
P 4.500315827525813 7.76303922604122 8.70674948242461
P 6.486870380359497 7.809559801287411 9.745922519815572
P 5.298848166862945 4.506701188620786 9.36588460995134
P 3.234183529891826 7.141764530531295 10.429376792015365
P 3.440485855567782 4.916084090759779 10.566899036606271
P 6.478871625958008 5.861884189604268 10.742730749844133
P 4.639067279902926 6.290243179342277 11.942854185838332
