25
Energy = -129.78610107 eV
P 1.8667100239843206 2.725304575558857 2.8756500910288287
P 1.481183096056423 2.4225301584405536 5.12863699269682
P 3.4756522974215542 1.5575306542522371 4.960473570799967
P 1.877384431626669 4.644588160416193 5.276611805228216
P 4.110516634276405 2.903604917994629 3.269137618945208
P 2.8326251252729295 4.711886205680061 3.2795548973763786
P 3.340156097993695 3.55785845206478 8.134185641077195
P 3.999896467194785 1.6538340640081346 7.178376328146666
P 4.232145152236453 11.114564918003667 4.103471981498135
P 3.6449018635574943 5.114342343395747 6.523830218827132
P 4.548270373049931 8.892654719010784 3.8094734399709527
P 3.673046754124037 9.715603413044613 5.704490780937002
P 5.487502579765278 4.234461181892826 5.519155210625762
P 6.685271896000809 9.172708507004666 4.496311432616621
P 6.0970842363341875 6.016052150929866 4.340794320650232
P 6.73565905363608 7.42098285050191 5.915863348633853
P 5.436411920160039 2.839135428278281 8.433665818788496
P 5.666515773541332 10.745201753186178 5.77772432155558
P 6.497654716159834 4.545508541165146 7.459026695477666
P 7.775363538067862 3.0512720073591635 4.708539862372414
P 7.949195125719246 4.926970412002739 3.5790689084296616
P 8.946183640555184 7.322649007729082 6.023022038698582
P 8.397660035528963 3.5807209212803826 6.770346753484792
P 9.738805345937353 5.9472070144950395 4.458848779489653
P 9.7850245952105 5.329430624748713 6.615944934228485
