25
Energy = -130.4370175 eV
P 2.0931348191486787 6.0366672477755 9.407657122161446
P 5.210866518216839 5.639305894682612 9.258556533178496
P 3.8206122569635372 7.248170976032624 8.546715732882905
P 3.455389367809419 4.26461569289635 9.641061319702978
P 7.150555281901049 5.897888364653262 6.335833875011167
P 6.786572451637061 8.091476948818762 6.459225957669995
P 2.2806025016157996 4.496866432472583 7.7488918558270266
P 8.58420883473193 8.70379942865578 5.3916055126771605
P 5.393042564545673 4.836364120134852 7.1628679961009505
P 3.5489418629064855 5.978719736107713 6.636978913008525
P 5.0994072395175865 8.651170406710094 5.124420370373989
P 7.796288953364347 9.807709084375533 3.7049375422137816
P 7.077528425105129 5.367262956469373 4.1818006476952565
P 4.713976399836287 1.7133208818254828 5.018464677503346
P 8.114518745070516 3.3832230289929885 4.311764840219979
P 6.908184597279808 1.5228621349608593 4.512715695481065
P 5.906016778878343 8.807090577724596 3.054952604006047
P 5.784447706569451 10.60576323208072 4.330456594450445
P 3.854922738341785 3.735271566556998 4.853745870609524
P 5.0140872489055885 5.045202000992789 3.4699732098749583
P 7.361181563303967 2.363445874154918 2.5007831386626806
P 3.5814592473998172 1.0400719701711847 3.1963945768420645
P 5.682426961835157 3.7604482591022976 1.8146345385616727
P 2.4519336869651185 3.0205759947124644 3.2348668600299377
P 3.838815267645181 2.532484088707085 1.5725745919104905
