25
Energy = -132.09787963 eV
P 6.159643195810975 5.4388098922333965 0.8782316055363218
P 5.420659126502063 7.500410765394582 1.1468039078120194
P 7.52910409323446 7.186769927093668 0.5704131040408564
P 6.214587308279615 5.085518303172348 3.1157292058836155
P 6.913615972312087 8.581353323603537 3.4740906111873455
P 5.300452392421705 7.051614273843162 3.5998793019792847
P 8.38551437201002 5.4121529783389635 3.1602846888356506
P 8.587768478253134 7.520583330446583 2.5301329463242723
P 8.746691143044155 5.38964973115543 5.387146295873072
P 5.26640793497434 6.4254637662638325 6.043374745854448
P 9.321666425308342 7.437097022333751 6.060228991658869
P 7.781670726770521 8.989131709938036 5.4986047577709725
P 5.910449804395073 8.509048173850305 6.55068437366725
P 6.772397979048472 4.844821273271656 6.2775528572607975
P 8.07623147093893 5.046147717811847 8.084301519352168
P 8.791115152448652 7.134963000148812 8.257207346559792
P 7.104486975069579 8.614461395765147 8.39541161251431
P 4.061151209590734 6.571519053590468 8.973239048620188
P 4.829734720652698 4.462806230491425 9.091360073606964
P 6.841604826729588 4.607171893546996 9.922747017306984
P 5.575936251808112 7.8791596245821145 9.87215650343597
P 6.756922988714029 6.486366379621137 11.089099085702067
P 3.229060855843496 6.345840846807153 11.090377053775276
P 3.969439789136501 4.218196062660282 11.162472610894886
P 5.011931904434111 5.819188421766969 12.326715832277843
