25
Energy = -132.28817084 eV
P 10.81500201345349 5.885759976628169 2.0632779527927365
P 10.165893734783586 7.970874847692316 2.58939329723353
P 9.0499987128969 4.5897180473030526 2.5086638319848595
P 7.535148225635113 6.175742835263372 2.3810843502962706
P 11.431812465532872 6.761355162142729 4.018283011903441
P 6.164287924954093 4.721323763631738 3.3345064002327884
P 8.310873325550173 7.639286456707246 3.8544121853946423
P 9.270647904063338 4.3861589759922746 4.724457657357207
P 4.24753505698343 5.528493605669404 4.049181537414676
P 9.582046544913025 6.475084862801837 5.277982001405309
P 6.9717550256991325 4.2403860886223415 5.329837124215042
P 4.223193414500359 3.7581946487558935 5.408402302509203
P 3.481518964249121 5.257015344455979 6.832964269462604
P 4.689071513212479 6.885312864320065 5.871315495571881
P 6.764152927475822 6.2444653290417484 6.324763633786037
P 3.4761922265218623 8.18767044470101 8.799685760287476
P 4.518551605130194 4.7597127428556165 8.71202522379871
P 5.585895754934621 8.870063319097733 8.500106610310013
P 6.685134437198652 5.464672783679099 8.393823903899646
P 3.615671965905826 6.344409247237197 10.000996339451858
P 3.3016325331852503 9.477125326975079 10.634137459065002
P 6.825602684264377 7.374784361904461 9.535548272935719
P 5.457824469159495 10.166322633857686 10.33662229094353
P 5.4687398818803885 6.702311811961986 11.147686338668334
P 4.940101341832894 8.712039172618626 11.949127402995794
