25
Energy = -130.25003002 eV
P 5.511365302425913 5.024202510101553 8.411704452096513
P 5.508386932576324 6.429167719355605 1.1098853444984462
P 7.273459824840531 5.302277924736514 1.9610514380690645
P 6.174355594027335 3.5942029805676943 0.9413106083457505
P 4.182091393585872 4.619446671689652 1.0570518519592647
P 8.53541074822301 4.734603934546451 5.030990656868935
P 8.402809119941313 2.6779755546507205 5.907011206635382
P 6.5092501643195435 5.042864263306861 4.066896302276489
P 3.939188187212584 4.588600255668564 6.365860599077773
P 6.192378728677517 3.199199899704915 6.1883301406049815
P 7.800941071535348 4.4259587198797705 7.107014591074342
P 2.257063525541689 3.8475944483384223 5.102109255800983
P 2.587480959897305 1.7113881536041653 5.613906445775987
P 6.309794330564511 7.263871243420017 4.447164176961645
P 5.539711333582778 2.1534479919845695 8.077553931747408
P 3.405004585559333 1.5958333211942806 7.732102283233975
P 4.124168960676982 7.543485965953414 4.743681573265331
P 3.832720744860839 3.647694512473646 8.411704452096513
P 0.8829628609311267 2.8073647558914248 6.417530730883375
P 7.064178647179043 7.719252760164076 6.44201090056066
P 3.605863136133725 6.765916681709151 6.754134507283814
P 5.361846303225234 7.369202374184383 7.9088827943048035
P 6.41244811188257 9.849463231743856 6.181034918393222
P 4.297766076371038 9.646725436352703 5.474645578083573
P 4.729519826671706 9.511390209737971 7.667498058733243
