26
Energy = -133.69512701 eV
P 4.800931610486117 4.49854585608432 3.6097175127853127
P 6.525143848526281 7.289198760883919 3.1629908339050337
P 6.479337121907191 6.868535530603709 5.351734120418773
P 6.061370039350466 3.8876351842534262 8.631657251744414
P 4.627735558347969 6.995662078848656 8.097924684317716
P 5.8345259524286766 8.8153285081411 8.334319373000815
P 6.153830974872438 6.344347448895333 11.304885528285524
P 10.436047236260956 6.834289010058659 4.739485501212369
P 6.357062560295845 5.309185364232405 2.3334651094429484
P 8.68653953776255 6.5729472245107265 6.1719251278536635
P 3.064812064362707 8.08829645721704 7.014189294401181
P 3.2140617734161148 6.1757419756239145 3.703163575802884
P 9.962910870876703 5.621051110757573 2.971364371280695
P 8.106889657109273 4.651838442605264 9.005764338553076
P 5.075610289624688 4.516394463909422 10.533460882329864
P 9.31308873376396 4.8297846251121 7.205552569922185
P 6.093502579791476 4.635146595230861 5.3775429798786005
P 4.150793214749241 6.533617847030031 10.212050589906399
P 8.751165285526442 8.6006706156238 7.119445660416031
P 4.777631143231686 4.919917616832048 7.18894543785234
P 9.550672665153803 7.627745813231341 2.8606684828915196
P 4.097245825767889 7.3339214698028234 5.282177479310429
P 8.054935774851545 6.517748903771732 10.190770894243853
P 4.345727223646476 8.061077960083464 3.211633586465957
P 7.871783295058849 8.520951277722178 9.196871398067602
P 6.708008596922087 9.051783293025585 6.289656849802259
