26
Energy = -134.95138098 eV
P 4.380573320593865 8.777191628302877 5.835941412764839
P 2.9545260702759397 8.426828277809879 4.1288606133804135
P 2.7709081045135044 8.023353126024102 7.271911190431262
P 7.609936426354351 8.235901826454818 4.47526188550848
P 3.941255244976176 6.81756796327663 2.948880510666463
P 7.065972846458811 6.695246397150668 2.9755456822435655
P 5.845682120216507 7.071641685373886 5.792232575289384
P 3.219917541754171 5.894894101184142 7.711432731432232
P 1.3022979896157634 7.845299893439523 5.589397716866051
P 5.3893932509474665 6.198887297816883 7.828680216778817
P 2.3824175180572245 5.2797122576923465 2.5465833595964393
P 5.326473722769361 5.628252997411038 4.246194013658428
P 8.855430130426274 6.539664451297598 4.198411082862793
P 0.6477973453927718 5.732920491913288 5.875929440928549
P 10.123902032017254 3.15009694357684 4.174974966180975
P 7.769276144901759 5.016768459589175 5.885390037866089
P 0.560688717350543 4.921614047568532 3.7566164598626672
P 10.826568653002102 3.4610316213937358 6.253992144773771
P 6.137692934208508 4.178574363604925 7.325551484510563
P 2.3653779440955485 4.424242459868713 6.289798264467113
P 9.613176698209152 5.120867940704468 7.120982133946358
P 7.9667302208725275 3.1177765215704256 4.737438636394497
P 2.4610798557001305 3.730300746442696 4.113652388978778
P 9.404421235728435 1.796055265376985 5.793606754268315
P 7.209558566855803 3.7362635904487385 9.207519005042204
P 9.212262212607682 4.08525819094363 9.011376271475331
