26
Energy = -134.76362515 eV
P 7.969370617362169 6.1148230885083406 8.974811321402449
P 6.266071436444453 4.91015221573856 8.1928055871306
P 7.233607745865748 3.0359343945459334 7.64996442469467
P 5.4459232636180905 2.0653757477503185 6.709627982663019
P 8.772269346774097 9.398270892316118 8.544728722032412
P 8.195131507668334 7.612580675538483 7.366706732998603
P 4.301162915461296 3.6792733241170343 5.640700263880813
P 4.780216060384526 7.895470282793 8.26479370538594
P 9.87141148539154 6.192466823633216 7.7810667991357985
P 8.67883188821917 3.0313986592861415 5.973414554062186
P 5.2948821121116225 5.566753647974917 6.258479068140568
P 7.124287688176578 10.60894745500178 8.271225732388043
P 5.646001038738892 2.233183241958481 4.496638165159247
P 10.099474684999509 4.784136726066292 6.0350742630089895
P 7.655371470983337 3.009437211709551 4.001448281576834
P 6.122058562269126 6.386164170781631 4.335773985310758
P 5.722036805337511 9.489361084099658 6.986386128873266
P 3.6332481260344176 6.845463549606374 6.737494393925071
P 6.961996571190672 4.848323838291918 2.998181588375196
P 9.847311536664689 6.390712398122737 4.541907879994029
P 4.165799026822358 11.069281946406399 6.915997961223157
P 8.019054713173892 7.5856421605472395 4.3840399770611675
P 8.758222756114394 6.1543933888831965 2.6573540956308657
P 3.2711511580421715 11.108554919550793 8.966344771365938
P 2.9740625677527137 8.914741828577782 9.047456482542255
P 2.215338153743721 10.093449567538817 7.2918703713833155
