26
Energy = -135.17258133 eV
P 3.596863328424953 2.058832309246741 1.6390402926298686
P 6.242697011364253 2.072358600280679 4.100998506890873
P 5.528222204680784 3.030390924447905 2.1698320942542764
P 4.280837160573963 2.6389934941718436 5.009296276325738
P 7.5068167718321 3.835829125567078 4.720953344966831
P 5.01228985372609 2.8920361253441675 7.0669540141836364
P 7.212953040849935 3.382876358240279 6.871030513703088
P 2.143803993132773 3.5221944839730877 1.9351906782959634
P 4.51511656320474 4.3893541036581425 3.5998525074782117
P 3.850486548737725 4.556717521119133 7.942219759325104
P 6.167627116223992 5.625027075736772 4.430292840789172
P 7.730896809302626 5.342011814974044 7.758836634831093
P 6.897940184950209 6.2634849453636425 2.3837952107442626
P 6.974841510596875 5.257404915089357 9.867864577245953
P 4.831396060209561 4.534365073170564 9.913618871539247
P 4.305809505659664 6.547083747851654 7.0620531554006645
P 7.379143955519841 8.361844034867445 2.9800419425832927
P 2.7381764935242954 5.331460433362921 2.9052749853003785
P 6.459393330713559 7.147996230695899 7.220402283686135
P 7.825310772065275 8.915748030512972 0.8517248358700982
P 5.323177712639563 7.809943256229279 2.2870526035754772
P 5.943516375023705 8.349509287799771 0.19824722385857071
P 3.3108038494870096 7.57543007228749 8.770117309444972
P 3.6620814710396052 6.29646067922253 10.612271826348337
P 6.841880593348064 7.458767479869488 9.418706791455007
P 4.889210585958706 8.124036336407775 10.259905323427551
