26
Energy = -135.28340391 eV
P 8.395763263345712 5.898593330079421 4.8551397913656436
P 7.592692582948371 4.397939632220696 7.386495929685667
P 6.508056744713513 5.828383594035379 6.087611858848948
P 6.260054398740913 4.367585742050722 9.123171428438324
P 4.6920924416502565 6.486633372629455 10.428377261942487
P 8.306670109613506 3.741301506006443 4.268595495985448
P 7.81090070503207 6.670965416197047 2.8212825459265654
P 6.696769363875137 8.377013506749526 3.7621470986583083
P 7.399253697295938 2.6386552680677955 6.061204621341128
P 6.7765786003458945 6.505387075619777 9.566456252496266
P 5.802363193570592 5.793083790110964 2.4349621305642355
P 4.044942707873144 4.8451482825113565 8.992857853489086
P 6.633098153648509 3.787742760018684 2.780258580032573
P 4.798377517407243 7.169243441037697 4.029599679391667
P 3.5685384698958478 8.055475387001627 9.269179221583702
P 5.363062915767161 2.084496155975848 3.4946903135964664
P 6.655192241789302 7.551918232006349 7.525871890137365
P 5.230029870702509 2.274119834018136 5.671965267932034
P 3.198474685394137 6.423097832736868 7.630853208929547
P 5.774733108534325 9.416289792720042 2.062481876024649
P 3.3087483860886486 2.7414520544864183 2.956438812535673
P 3.9274529081296863 8.580211788914575 2.540869275137696
P 4.521161893532047 8.133634524761208 7.298280509942394
P 3.0765582338946356 4.739465044821307 3.9678973662968837
P 2.1549173387842546 2.908174420529764 4.855433173209683
P 3.818739834652053 4.0044859341707095 5.9116151951267915
