26
Energy = -135.01981635 eV
P 9.97527613469034 4.296056561622363 5.77613800085339
P 9.212760688798447 2.238991954619265 5.408135900254079
P 8.506747973576209 4.6189311816565235 4.057084746156533
P 9.017836949453946 1.387460322758249 7.456158218140311
P 9.135072515119735 3.1303738710323836 8.824537605092138
P 8.705140872613674 4.900678467871642 7.4726229899011605
P 7.642883482956657 6.553917306701433 4.767547278062272
P 5.312096301005741 6.674481817687695 4.620821878630455
P 7.1677893660605 3.0296238456841786 4.996426942200491
P 7.126686656768667 2.2271141117439246 8.272463265750655
P 6.729054573317508 3.9966701703862224 6.922172360722913
P 5.18448351067001 4.869276385015175 2.877187950061401
P 6.087377818871605 8.814927825948267 4.592735966305312
P 7.351514284443534 7.819245244642693 2.95396979250951
P 6.269010552436735 6.259470925369741 1.5946867081927953
P 4.070118724354353 6.822840259869432 6.424367478075303
P 2.726359592468864 3.8056029902453576 7.471230040893887
P 4.1298058095395405 9.517096011570807 3.817957704707886
P 2.6849267615027865 5.214013070287511 5.671549823049045
P 4.021433710170975 6.129630509809982 1.4890328778690567
P 3.539525244269777 7.466335948146006 3.2294423524892117
P 2.863474747571904 8.633414925626555 5.507945853461344
P 1.2956788911371924 5.056899825198172 8.637285282330746
P 0.5084889856372765 3.5956982815381577 7.20749350026696
P 0.7028632381074067 5.759154219307118 6.571067323106633
P 1.5675133380149422 7.673075713638837 3.964312856697597
