27
Energy = -138.79068108 eV
P 8.077643870085383 9.765258163300878 4.441146860739308
P 9.452566510041043 8.405706485060923 5.584462761030729
P 8.029461213952288 10.480127697779356 7.566204759270052
P 8.859271465849902 9.545174597429373 9.391096768775638
P 9.298228303988196 6.976682932334837 3.85924199193771
P 6.723078579446354 10.233869015989171 9.318212823142142
P 7.420820560370877 7.997408688887444 3.0850300179985077
P 7.352633502749732 8.687465580972058 6.260748494020241
P 8.016797006094551 7.465328382378849 9.56956517039291
P 8.597525808380881 4.950948139880625 4.491572208634517
P 9.20848759006029 6.169058952469759 8.18300519005899
P 8.05830698454033 4.949435713017065 6.6943307008315065
P 5.961112557105811 7.355181421105307 4.576808227184874
P 6.3949869993102935 5.248158972198065 4.098318869461652
P 5.444365233865936 4.518867315673828 2.3117192781155786
P 8.980061960685399 3.1785830859997115 7.532592021762816
P 9.313936002725605 4.284950498453447 9.275681728677249
P 6.003818113968831 8.073148066453752 8.776642728773258
P 4.518362396300792 7.902769644299362 10.389031976856153
P 5.477306426097832 3.697333701740335 5.3965400337905916
P 4.094024715551112 3.3977499209777635 3.657747027957933
P 5.202351053880227 5.53872572703258 8.533394272072162
P 2.9590770619661275 6.377846469643065 5.576677210519178
P 2.3591777258964552 4.750351491928223 4.231421096926198
P 4.210189222077272 4.926513222201253 6.700693014259345
P 3.508995186752898 6.218653036406874 9.658861282254838
P 2.037193566778296 4.464482694909278 6.399033103079231
