27
Energy = -138.51132236 eV
P 10.33666609165014 4.477181124414105 4.617242451135615
P 6.549506659684751 2.2123579307025523 8.423283589917698
P 11.407168563026689 6.144215541354114 5.622889336151634
P 8.126661164718493 3.785151250819482 8.410168374950276
P 10.904093037913416 6.314721670393391 3.4495443826443295
P 7.041578400675101 3.236670524133595 10.298709437171643
P 9.278765292660076 5.702312442619084 6.1023864950275035
P 6.382436174687572 5.172255060119025 5.795967011046136
P 6.425400072839216 5.344844622737182 7.99751389823846
P 5.203249555502254 3.8406033437698954 9.163213067402605
P 9.281425663806992 7.808572040760669 3.3070429481136947
P 7.55496963142565 6.490220826477657 2.7391862890819625
P 7.8289273599410025 7.0159364137549245 4.882911690200098
P 7.552510407419635 7.13273128088789 9.01362277712379
P 7.551561470784269 8.565939631047206 7.409276910320337
P 4.486000475575812 6.763746528762889 7.990133753165259
P 4.211828354842834 5.066999050652683 5.3435809778043
P 6.37513676253796 8.300645093677335 3.5050084793365754
P 4.328298776749696 7.847953665919033 2.776059084547158
P 5.409501384074069 8.740408432999837 7.3730159912729505
P 2.9430764645528553 5.704762293104047 7.036096546000935
P 3.1285551326845473 6.6398405738543 4.1976231474816466
P 6.078111076276808 8.013718841176136 10.574373774256772
P 3.966484695169799 7.473784158048998 10.034377595453558
P 5.161308380517701 9.461342918089862 5.374245825791593
P 4.816903964325894 9.485033877162055 9.563044265682874
P 3.2284086938730936 8.816584570478826 4.5580156085972305
