27
Energy = -138.35307902 eV
P 7.972785410314961 5.98415107277376 4.78751085915387
P 7.7696243531527855 8.463704064394268 6.079871349420485
P 8.451589750555737 4.251972340763332 3.329134521263565
P 8.242853755248863 6.486318064810323 6.903271479082285
P 7.317263154323333 3.8375898075630146 9.03326292669455
P 8.079500484016018 5.8830401920393705 1.8606449256335131
P 3.3511473052691705 5.196661551129042 5.3705655981737275
P 3.831036531238106 8.360927217892913 5.399128911893433
P 3.5663269985047807 4.22174611509776 2.432866196248801
P 3.5231675372268207 6.770072492521412 6.9227935130949865
P 4.047415649318398 4.001390331268935 9.150251698187475
P 2.618786837936652 6.852499893890814 4.091632861603508
P 3.1662838720141027 6.375351967236162 2.001803400708527
P 5.975816882611124 7.645524270784666 5.084763555825316
P 5.12011477619491 4.998777303316667 3.8180360004951033
P 5.6536978005774285 3.928698683945219 1.4689582371825065
P 6.407379042841483 8.373516134776503 3.0647743737845814
P 5.868723227090719 6.290022736260166 2.0363473333856064
P 5.640272530290552 4.121632000358553 7.603087433852763
P 5.830152041764819 6.307296722647961 7.2228408586841715
P 6.44165726411245 3.232632122594304 3.4354985198410346
P 5.682353007776677 3.14110056731495 10.506324899838265
P 5.891149720715149 7.077483063383998 9.305738603875717
P 8.51465331805821 7.631256403837484 3.406701863785435
P 7.462901704624217 5.80129037629923 10.209471354332626
P 4.177187340157656 6.024871571771797 10.233768615867199
P 5.7879577594256055 5.132271105222595 11.632748163452067
