27
Energy = -138.18943716 eV
P 7.196145711953705 8.593391116606865 1.814843783055036
P 7.721761138865963 5.2196951700919545 3.012898239750233
P 9.339747795668462 5.757473591213342 4.458385943914577
P 7.630588896219267 10.311609026118813 2.8952924028371707
P 5.656496044229171 8.076464274338875 3.29472637402508
P 8.43011088833252 3.71550335811004 4.520670794414197
P 6.146956387785521 6.159168807184854 4.239028893709894
P 7.954309874821598 6.454308011469466 6.168257612836347
P 8.32556552341699 8.780187934248422 5.635459143152108
P 6.481637370642088 9.65391073433714 4.70618108143041
P 4.396545168165648 4.762695297672687 4.289328062358631
P 7.449193179289394 4.188850243188328 6.506724744939322
P 5.218421241699589 4.241964156570615 6.281081222209797
P 9.190581653218624 4.8835886644634225 8.928482930477292
P 3.8853801527416874 2.79790595515155 7.133753591081177
P 3.823449004462441 5.995612517305154 6.120243482919553
P 9.678050937872888 6.57623612611041 7.6799524864453845
P 7.666129808089736 9.451500651077337 7.552429772869741
P 5.7555932988004574 5.277427275781218 8.644224648035404
P 2.6270696536119993 4.55454329659212 7.439539088172231
P 6.158274086253761 7.416069073341253 8.020484836716241
P 7.451790293712897 5.43825701623382 10.184459864194675
P 9.11523687504759 8.367946974973822 8.88583027066263
P 3.000813231145188 7.359848899070789 9.39386121003856
P 4.279048902835807 8.557450911017945 8.338295418815537
P 3.666159167651251 5.257187133305826 9.406697685460019
P 7.254679548504013 7.650939619462657 9.948602250517329
