27
Energy = -139.55250737 eV
P 8.512650910278229 5.080588348919987 10.271720568515223
P 8.782866068475425 5.104473269455775 7.2563564025574285
P 9.177077916926148 6.662386530793276 8.780239652603777
P 9.45900937072829 6.2602668431154 3.9666326339155815
P 7.613588688581247 4.96163578139701 4.063150542000906
P 7.518873366786448 1.6274718361066025 10.152224046948586
P 7.983098916547585 6.414406198465123 5.692743275195964
P 7.386151963774461 6.792587907371743 11.118053720933712
P 6.685214329173154 2.243710995684023 8.247045006888316
P 9.13779787218696 8.06256584582597 2.7656673215783862
P 6.986747893998848 4.501639638680941 8.721748951341478
P 6.923532289403253 9.239307393991378 5.112600336226613
P 7.147544932846034 7.763288243846528 9.093356213640789
P 5.325577361263949 4.160314278559405 10.358528233798946
P 5.804032378348173 6.310052640172774 8.114569018668492
P 7.022680303387959 8.239085243859266 3.1245300084292427
P 5.421828270802594 1.7334658432990586 10.011342982772838
P 6.38149525744255 6.182335364634715 2.694901238350067
P 4.241083992714216 5.966575028186731 9.698946655568578
P 5.370600271261968 5.932025716177232 11.662284399975722
P 5.5942548195672455 9.183198406789224 1.706535055821683
P 5.33930988141216 11.144773409647845 2.560562609564105
P 4.2471863117451445 6.1009458498857025 3.245243240605541
P 3.4839811416820257 7.804598772956446 4.458436306656392
P 4.769796605227231 9.097330112495099 5.7222774774568155
P 3.680210838920607 8.025432842204802 2.246552336496277
P 5.549280856464543 10.951010467424068 4.699224573434822
