27
Energy = -138.3834001 eV
P 11.92420620214404 4.6316276827346945 4.853552194444154
P 10.589746445021202 5.951646545384828 6.119172805679129
P 7.688419460628621 3.4658613137231993 5.0692994117736685
P 6.674429619554766 2.164682445949377 8.477691623370163
P 11.521934541929227 6.69957801558842 4.228112639762389
P 10.4611134102504 5.012455728629977 3.188992100733614
P 8.92670119833894 5.17154851778287 4.778373040373528
P 6.343263160123966 3.453618866106492 10.215950654983049
P 7.793769757661371 4.113675004656387 8.609337782136173
P 6.021797567282824 4.864745901379482 5.405764785350465
P 4.8289763881528565 3.441750937884682 8.536224946346167
P 6.033093682898579 5.159787090528048 7.708888564149198
P 7.183972119217993 6.386851199317686 4.227574374117918
P 9.230599499680537 9.134554910753751 3.873606910334601
P 6.140747384463397 7.017761470378742 8.985644955620671
P 2.0597639804678285 6.887807077913745 8.754780010923225
P 8.163626802041804 7.526217828732348 8.369402383328483
P 7.495133315492052 8.479963694929436 4.940945693433918
P 3.273895515301784 6.072409310881803 7.072143231918443
P 1.0557698735361072 6.325540650584238 6.845637818290581
P 7.292870066450827 9.920336031448382 3.3629879793221984
P 5.344479149825197 8.641137161908269 7.5166294251237575
P 7.464948839953147 9.157785733047241 7.065068887733858
P 1.142895425005114 8.446383929954262 7.475721593183997
P 4.128731087716151 7.72349125728512 5.8970489348177
P 4.118642847368949 10.34894322193697 7.775853689624231
P 2.7414316288974585 9.444797439985699 6.29055253253138
