27
Energy = -139.68302673 eV
P 9.35983538046301 7.247235190153821 5.460760955629833
P 7.793562607688057 8.50843521945542 6.208033825489942
P 8.67315700811789 6.921976492856264 7.521248330776271
P 8.980450504438931 4.217920626997271 4.230342990428855
P 8.832386434174559 3.470838314317247 6.383630981664689
P 7.121936987043877 5.379802440613217 4.447979896958243
P 6.031070785140883 8.736294969796928 3.419287905211025
P 6.364108611213909 4.98974078824942 2.2777549380930524
P 5.91145460531843 7.567909431198345 5.270891946777376
P 7.4297483004197185 5.103548910916595 7.014054478328516
P 4.545360245772788 9.339302652961482 5.03907442650999
P 8.039837065106582 2.2295401556931 3.6116991767432953
P 5.964600402589958 2.923199837809083 2.996986556453613
P 6.2308969371520995 4.276582184679027 8.667383330891818
P 7.134257256134241 2.140918746960432 5.695982159619466
P 5.413046064756529 6.162245996446888 9.379231177348972
P 4.216365177143638 5.619209183082225 2.495180923674914
P 4.305195629774876 7.8488577706480305 2.227643608583718
P 5.7014441719136935 3.7820990653918165 5.106658869770761
P 3.7648230377337675 6.013511579175512 4.678634109824205
P 2.9467354139893738 8.025878016777456 4.028742002498716
P 3.9525152826268988 4.325421363272063 7.7838353261593625
P 3.500719332501339 6.4740368678830995 7.942679155470244
P 3.3900760370055028 5.228660820433818 9.766829404391396
P 1.7820988898268588 4.950360903873164 4.999372258372284
P 1.9380982288670296 3.597084802777655 6.7779255951107364
P 1.2371057888886259 5.613219869050563 7.01457125284187
