28
Energy = -145.11583375 eV
P 6.605916044971817 8.569862618461755 6.128593492376465
P 3.3966555584198095 8.471925855183065 6.730881116563301
P 5.959215339893279 9.218815031780787 4.158089262526891
P 8.405468943693226 7.391531336435957 5.7413142378273125
P 6.084204671170354 6.9888764169138 8.784669405075794
P 5.107426436601652 7.012179118097793 6.748105310584482
P 3.869053214336702 9.6738620704057 4.823173904194469
P 8.2063248460186 6.733162040883287 7.939005640386317
P 1.9569511469026963 7.2158886779531315 5.456804796560617
P 8.1536378819218 6.707900978071309 3.4785330544887794
P 6.288947008695694 7.5097975743384575 2.67129315823819
P 5.417625758508656 4.9140016467362875 9.28216299382694
P 3.7585999476468404 6.529223585594711 4.353220381715562
P 2.6448573036385357 8.259990275926741 3.556668242124861
P 3.480270645071136 4.833479555532873 2.9640429335750254
P 5.454454165620956 5.510418078633752 2.0051466230483457
P 7.364984171858741 4.670875853995902 2.923181426126369
P 5.253313191483637 3.995106318221464 7.253781775748395
P 6.366058816098468 4.517782249147774 4.994813529022627
P 2.809155113596043 3.3892829756059473 4.620717218352888
P 7.336147713373219 3.7174658640423828 9.408539248797995
P 8.734314164483633 4.589323735305063 7.874265200438111
P 3.2232627477533615 3.2434869871228234 6.812283685586551
P 8.339028668809574 3.8489937649158197 5.8217789035935
P 6.255550174242287 2.2064023145699987 8.116717959982298
P 6.093205295088193 2.294060575287356 4.702827232388905
P 4.020197626677214 1.6985284845272461 5.335129276970734
P 7.591553472250476 1.782866600195945 6.363543260444649
