28
Energy = -145.44281376 eV
P 8.802505500154238 1.9176995996337034 3.0831827928708373
P 9.220694451689907 3.01066267827109 4.9740383961612125
P 7.441718750380269 2.2018562789643044 6.06388806512229
P 6.756124290554556 2.8153867341205654 2.8666607452987893
P 8.54845761614273 4.122044938286141 3.1749516453353244
P 5.715968292953401 2.8688508625365876 4.843408746101108
P 7.017300453188697 3.350763651556891 7.922525741757373
P 5.931211320738149 5.10273988911786 5.064295019596478
P 5.94824580827431 5.235021259523287 7.325748555886791
P 8.924901006212785 4.1814563090902945 8.62471999905612
P 3.8920384749885297 5.962144558844689 4.838339234945313
P 8.760758271300375 7.825923001742166 5.320041466576776
P 8.383918154683787 5.868398919871625 9.71049140539593
P 6.709236299048315 7.932747231006903 4.702885463452282
P 2.523993890554078 5.099265551944832 6.33344383665579
P 6.196639959439712 7.847163722530002 7.099653050815162
P 3.916604397915603 4.744148412563607 8.089524859787886
P 8.39101082808836 8.209055227607791 7.493616592783394
P 6.210062800764999 5.757990404433517 9.653829733912067
P 3.0254767544175056 7.3365791236306555 6.387459943765665
P 6.784507056435085 10.342056848127053 5.173995151907699
P 8.650046563205112 10.102647110182557 6.3901807481956725
P 3.421139978084697 6.871447899837724 8.598501752690291
P 5.405998121728281 7.743636255046204 9.270882385111658
P 5.271280596819821 9.822659136196862 6.66987512767567
P 7.945894919804865 11.816998891559455 7.84225478630356
P 5.766419712363432 11.42426528136619 8.156670392724752
P 6.539669467266443 12.5882139596065 6.426758097312502
