28
Energy = -144.33350171 eV
P 8.684891493363848 3.3370618191986954 9.085164733216299
P 9.639103699889347 9.03888520589092 2.0611125112204216
P 8.722085531734686 10.083696529220758 3.830100733955007
P 9.336771667848764 4.760196770797517 10.699401272165481
P 8.575728650790882 5.022755836991708 7.579795411215262
P 9.137545927984116 6.454937769832001 9.216246888213817
P 6.715872145154151 2.5725150841618207 9.764774405602452
P 8.403262174092394 10.825574031592252 1.7374803805998977
P 7.386105258928252 6.911178427327235 4.323719518970164
P 6.757763214259568 8.966515813070476 3.6661839735380526
P 7.192475433629244 8.90969539567214 7.011487495220737
P 7.482020441563263 8.774693361022328 1.5219996635090978
P 6.8299702818516845 6.769792268231318 9.317768023635146
P 7.663881102628438 4.986970568525784 12.137408832757872
P 6.2651792483287725 7.163406890779829 6.221207824692739
P 5.879880711873973 5.903276451640918 11.138077221201097
P 5.8218004856267545 5.67699952171295 3.3192207700261425
P 3.859953118116073 6.711530765447902 3.1755554624008604
P 5.995702749703492 8.769526827549075 8.850405355964753
P 6.256674524211241 5.4547478293069895 7.680564530549093
P 6.672733218686529 2.9353843606080248 11.933016782125966
P 3.9401440863255197 6.149932932488968 1.0478953604064547
P 6.020113356658436 5.94960968648903 1.1556996717630572
P 4.068521420477253 7.608755264138158 6.233907057973607
P 5.110374098258878 3.874968166033794 10.535053974834774
P 4.211638221047245 7.486291306112473 8.451049652220586
P 2.5141816106048047 5.303825254368048 4.207215781792628
P 2.943473170622232 5.68512290604873 6.186333754489602
