28
Energy = -143.2652213 eV
P 9.128905704543198 7.916664086734544 7.3649063346121055
P 8.567341551929438 8.700832554017893 4.907133471435077
P 7.087923981114871 8.252882626459002 3.084948444575545
P 8.17404870808374 9.500040244947016 8.414987384999295
P 2.490936387160418 7.925889599328258 6.1409808377495
P 2.5668630331417983 6.117019383281356 5.002366382186872
P 4.840334311042625 5.942750164606828 9.617201763302724
P 7.984813692567476 3.419840651262375 4.7513003268158
P 10.597600418768824 5.3878349829786485 5.891336270726498
P 2.6975555954321915 4.694471360645635 6.868750868632654
P 5.971138824670859 3.146492532898161 7.758222481487007
P 2.001450260809213 6.578621731308245 7.920924647698202
P 5.125031747161894 4.451731298230846 4.186625613695079
P 9.483859976671411 4.750241560111661 7.655798188055367
P 6.974824471671503 4.2565366336858474 2.9684549506076636
P 5.3656389414862025 8.268206597180841 4.458908353918379
P 5.092043999920696 9.005884190269539 7.980113496461408
P 8.79812339957815 6.522985706794713 4.980071601418614
P 7.592685155978981 6.316407359276708 7.03009530945492
P 8.086685426104523 6.215077101420929 2.959622162569744
P 4.3447273365926256 6.425460896609583 3.7100247705618945
P 6.981770737108593 6.244209830982814 9.243327298127596
P 6.412744582346042 4.211467936112549 5.975777789187862
P 6.664616190271937 8.488336831724345 6.302260406591326
P 4.139954843203623 7.078281194038624 7.739760202283603
P 10.827007799006527 6.490704475448934 7.822762669369605
P 4.189457207573484 4.077173024844529 8.536204411829786
P 6.614891378365342 8.416930988571709 9.530108868348876
