28
Energy = -144.77300025 eV
P 7.731248949159387 4.936404390041239 11.543774595144077
P 7.3940018500398965 4.56012552942937 9.362622170493541
P 6.30145328802449 6.621292432571569 11.62173380875449
P 5.2061853517066545 4.451526600139361 9.054804079344537
P 8.785877892829951 4.733639975000088 5.384303792071574
P 7.86228616771861 6.623837635838021 10.05215873977151
P 4.471575313614445 5.703894491428061 10.760113550174124
P 5.08996431931685 5.909347502256331 7.37232588375405
P 5.389540489272726 4.69433023273015 5.543429509750025
P 9.525611903873656 6.651403221435301 6.4057345103961385
P 6.042109059263563 7.814249574392999 7.486196612394217
P 7.016501992626692 5.810848538291387 4.514105475390368
P 9.971745518622528 4.515027492705797 3.5772804204430493
P 10.782075577111298 7.555850176765119 4.815743894811907
P 3.393581535204473 7.562085617147408 10.378499230601774
P 7.498654130592128 7.4931636510810025 5.9261696715862975
P 2.8297169480532585 6.304034367212846 7.163735343823017
P 2.720373879975731 3.527215894123522 5.645236826462895
P 10.377727737476567 6.493674677428296 2.9063114541423207
P 2.12205964507351 4.2121492630119475 7.481446651244879
P 2.3343957171508527 7.848871022798339 8.641089778081332
P 3.4795651545235073 5.271941606185139 4.421041824570105
P 9.939379158317493 9.613956008868772 4.636396359967702
P 2.6438653780415797 7.0910536655549885 5.225988550247893
P 8.736707877685593 7.742029309957557 1.892059281479293
P 7.247336823074638 9.041434398351843 2.823995852659964
P 7.74950010496882 9.469679139892579 5.015326513889731
P 9.366163217307896 9.756138565988078 2.3575805991759995
