28
Energy = -145.90079609 eV
P 10.101446207620606 4.025522690052551 5.986435753144127
P 9.876610751493939 5.26804030176452 7.818675125576341
P 10.037141633804644 6.25317695078594 5.845102350432412
P 7.994763158394288 3.188165032990724 5.676411682394825
P 7.677518471177552 5.22279708709968 8.334628369572727
P 7.895240235151284 6.309772327029285 5.238958757603936
P 7.425676516732568 7.50790362395223 8.56801775313995
P 8.1701371640835 5.658834328141073 3.1377771652129813
P 6.681488927461919 8.160352442820624 5.101636910174113
P 7.728640959834007 3.448622413895696 3.4651606249393607
P 6.736210021381765 4.828962654209204 6.397707982175304
P 5.8955033983249 8.348586868062139 7.218474342186403
P 6.083166619332009 7.489966854738733 10.353434092462622
P 6.3146913740016695 6.585396630403911 2.3289686070849225
P 5.542281305031225 3.0472179662498515 2.967792486928195
P 5.274110156974282 4.7563058056085925 1.5354457985048713
P 4.384444083361185 6.748280989800011 7.546987154233966
P 3.5981069253369964 4.563065899982927 5.774000490073648
P 5.239727855217025 6.574923403317015 4.261447672578317
P 2.420168682163327 3.7689008371717794 7.394776452912288
P 3.73913220436639 2.905410719395262 4.291135297289605
P 4.1513865745019345 7.200133174832767 9.646006919581861
P 3.2690438595611937 7.199188190759558 3.5326119396963396
P 3.1806761615884898 5.401491119583103 1.9139896624438766
P 1.6834897207225632 5.524018023118229 8.24358550370461
P 2.1069251159633295 6.0069116102145355 5.015995590180584
P 2.357649227376609 3.607937650832867 2.7681496346740224
P 2.283541067282017 7.237406259474781 6.885395915087444
