28
Energy = -146.56129862 eV
P 8.243359484892432 5.322804025546816 3.6398820686529794
P 8.747453287532073 3.6458736818041215 5.034246043296268
P 9.300448888384306 6.946719243048586 4.790923707752412
P 6.559665735727256 7.074002340483816 1.6381683981826864
P 6.064067152676196 5.555043243448107 3.2584075547992026
P 6.772869410224691 2.6741275567544966 5.0967815377366685
P 9.052929563104765 4.557145967062715 7.096052877020554
P 6.8538251117033555 1.7920929731469142 7.132900044159876
P 7.092324015651264 8.927709385253012 2.724597658849101
P 8.643960232421517 6.76665059284625 6.949295406805943
P 7.783948118436315 8.598155526784547 4.842556149599128
P 4.941484332876958 8.451460631482849 2.342803847286905
P 5.384912138893849 4.344179643694088 5.547896622625899
P 6.566540850727067 7.179803403952955 6.120227270089491
P 7.430144315060418 3.634788327383023 8.333148546277958
P 4.52467397514201 1.7795669402766459 7.442487261363736
P 3.8634220272609117 2.727210924499001 5.539704887839784
P 4.47912933465439 7.13197513479756 4.1013378799095
P 2.4991413602212167 6.437338147039415 3.5138027156616225
P 5.747749581410083 4.899064288704114 7.712953526709747
P 5.505737183493711 8.84632533196008 7.19979769934946
P 4.0666161500400895 8.986095993646247 5.517770149244007
P 3.3829734914919576 6.0850522929143205 6.7510823520546
P 4.379190877915879 3.5767573442364826 8.81141626882411
P 1.9427929039121652 3.5325003082983146 6.2270634614945015
P 1.6913432620856805 5.7705399957599735 5.398125640817733
P 3.3859998464969028 8.195274503294412 7.457866772274955
P 2.474041666996555 4.597756034365053 8.16961710687911
