28
Energy = -145.52873269 eV
P 8.562471290427622 5.3800808765333485 6.659459278427657
P 9.015617204701169 5.858819155524184 4.496511582573423
P 8.591066810007893 7.513417904543787 5.910960774944849
P 7.742797142809019 4.397297702963415 1.505235755594975
P 6.23952316157061 2.340486318043495 7.066534974490645
P 5.799530182435796 1.2436992310971664 5.140566783389223
P 7.179358690474226 2.3307068527405717 2.1370348344818813
P 6.499539384916205 4.552200017966484 6.5604799859408205
P 7.376296070716206 2.553813110359305 4.361065750379641
P 7.177032400652416 5.771111077320581 3.0927382651262922
P 6.034257134527227 10.425457859156701 6.254654035782915
P 5.695149861496457 4.628944514260724 8.66146182484568
P 7.1079574249916355 8.95545554758726 4.907727972246241
P 5.604045356577407 7.552867786663395 7.601707497568901
P 4.680445252565352 9.49166744878474 7.852588439964099
P 4.281076134374288 6.329840411957841 8.855612274995487
P 5.179885523246718 8.225152216065018 4.036716616550195
P 4.327765532430809 2.942679314669466 8.12277309965384
P 4.807111047467334 6.803343734846046 5.644662681540323
P 4.198965511590159 10.139572104462559 4.890434955409645
P 5.890188102663579 4.213359483724291 4.009015564980545
P 3.9748194389678395 1.9696263008891053 3.9360477629688155
P 5.070089101779072 3.076240845560913 2.2251300703291457
P 2.8381840492646537 9.360165278821912 6.541161378673882
P 2.4398470654021343 5.8606822518616095 7.588921232401245
P 2.8941200127731603 3.8379501455383895 6.636888588136327
P 3.7379654288548094 4.063988714554215 4.5939802721642735
P 2.6932873308736194 7.219572687635638 5.833177979020805
