28
Energy = -144.20588916 eV
P 2.071716028742223 5.136102597191909 8.195221671837563
P 10.291435889117656 5.970298265828246 11.857561159956326
P 7.147286309173717 12.290190122521782 4.162797858655349
P 10.9139727444433 4.076931411945813 6.9543154309031685
P 8.720589907835278 6.703575347630705 7.276811201463208
P 2.2431227643584783 7.070279898986104 7.100261524520453
P 6.250466164767624 11.489468741596507 6.00006204221912
P 3.961576332939888 7.318202686592787 4.164189092362837
P 3.5594340331241483 7.543131358174139 8.848274839995428
P 10.3636938770006 5.0193505184253215 9.906773424091375
P 2.1349020696863086 4.382337210766544 5.074829756861634
P 8.035063493640223 10.462900436845626 5.110679590542604
P 6.79577471663042 9.184915181279184 3.701561846954721
P 1.8109604306946612 3.4295940870707553 6.897008106098703
P 8.838532259086355 3.252276160232236 6.990768080115518
P 5.3698717492342505 10.919672074817992 4.015533470731034
P 8.15567236737556 4.602174381439869 9.92471035149403
P 9.661629121834414 4.151144218646088 5.129562970787451
P 8.857284132517211 6.660585741361947 10.446135020597223
P 6.79666458182386 5.8358154957343285 4.813438277885239
P 3.609895954384659 5.611391894755286 9.634724878278424
P 8.97721080610483 6.29752940672028 5.113978484444676
P 5.863188544187236 7.789834679830934 5.189083464332137
P 10.740874046962775 6.115026279778871 7.860158561726215
P 4.484425619587889 5.924475638911488 2.471917301251101
P 3.6113597462793994 5.831147127564952 5.84427915966338
P 6.405075813252159 5.274370077803459 2.7455234970839317
P 7.547454762386698 4.8764132247177985 7.7889732023187115
