28
Energy = -145.57325149 eV
P 9.552370963701904 5.628070284176388 9.27645495287697
P 9.88132139559762 4.844578182615839 7.1263928194157256
P 8.02011662882622 3.6646169678985805 7.733580602512425
P 7.016462753489689 1.492709082208722 4.929559146574882
P 7.306785406639127 5.219788528331519 9.179130698664151
P 10.041491461825778 6.999707333821628 7.652079098676276
P 5.165966291056401 2.5040348587202743 7.18847463669055
P 5.885511152645133 2.397338478402156 3.307794391889925
P 7.426516261981767 3.5472400298497515 4.416185141101068
P 3.046440112579399 3.345563359714529 7.334478415771457
P 3.468291611749102 1.6115765115955676 6.011385300385606
P 8.332626140646633 8.41868343575606 7.492257819792494
P 6.029081621216007 6.16080884765727 7.550723934575582
P 6.354494394520082 4.18733310987193 6.339091296928364
P 7.246810653506769 7.237458108074203 5.977265964342447
P 3.676419725318819 2.22886670678316 3.9106157440149167
P 9.156549631915135 9.866572124664822 6.014254262979119
P 2.1372639931882724 4.804945151324099 5.910484929866858
P 3.265772835245845 6.697074226652884 5.930238877675458
P 4.805828653038641 6.203878212728073 4.429377899889986
P 2.3475381896990326 4.017092267725069 3.768686640221012
P 7.5418240786293715 10.25451545959815 4.812240389829145
P 5.876293724371443 8.976663525865892 5.564692593284044
P 3.6208126135454664 5.492739749025407 2.729396710663236
P 5.212832112345089 8.167334091780877 3.5564242192462276
P 1.788639373890077 7.821346344001084 4.7047674308230425
P 2.053975085095961 7.099951889245639 2.61799356261109
P 3.1071481498060334 8.941599555484057 3.3111801572735393
