28
Energy = -146.21453458 eV
P 9.22785111473638 4.634117170968758 6.872601357212944
P 9.529339326310314 6.2690330709534985 5.326906540428008
P 9.244608070218947 8.16853397008736 6.406398216816068
P 7.628673368739586 3.444368260360775 5.882658595123676
P 7.6210097758241 1.6881132839478543 7.3842541783888285
P 7.1063373040899815 4.861510446169479 7.507528238619854
P 7.090807866408798 3.106457141687752 9.024688568911165
P 9.198479031398973 9.505283672650696 4.683576390363563
P 7.960446621682142 6.1399501698014625 3.780719003273586
P 7.470770047071308 9.486496553225194 6.193841584614747
P 7.9184897239406995 8.314229750876072 3.1414378854722647
P 5.520128199550634 1.8961579922963807 8.034936527574546
P 6.082010784262871 5.665578608726504 4.883809464469164
P 4.634019576589472 3.4009646035235455 6.558791509114855
P 6.249390230984126 9.15444612499561 4.344141955565771
P 3.8803473101986663 2.0434754093723515 4.973734430907829
P 3.880465810159247 6.4281320741008425 7.8541363411190845
P 2.5092382766049326 2.7264775609400935 6.621287688363734
P 5.10679812497036 4.974439577256864 2.939023831152596
P 4.823345477664364 7.5166025205844065 4.881498254586158
P 2.79541162831438 6.308220040113069 5.659662810622172
P 3.5534147517010286 3.409602916157425 3.211330050141935
P 4.591014186438962 8.303411937953248 7.10471970761025
P 3.9425813992021164 6.868180806884669 2.642520309657936
P 2.39427909029419 7.905274973763217 7.166012508993947
P 1.4080784354954572 4.540879187599949 5.884841032207491
P 1.5684192671107096 4.312992737999034 3.6574602536520096
P 1.9612690050531922 6.511897124048427 3.4584676818865843
