28
Energy = -144.84034503 eV
P 11.386442835047541 7.890613843040659 6.779752886857815
P 9.991300492002923 9.276631202253986 7.946893994020587
P 5.690538006609551 4.906893193309185 2.452633314776542
P 10.019743289089972 6.552315476272475 5.693982653643881
P 8.295512462155465 9.42737820616794 6.5607654085052305
P 7.30846809576809 7.574946817496333 3.8859726941048183
P 5.1160112825429005 6.471979581086638 0.92692155902659
P 10.53736902572735 6.044526120715619 7.794595884896704
P 7.679114549023605 5.620378246234309 2.983034691646136
P 9.521153420169211 7.514692198153546 9.214846849183246
P 5.13702454836163 7.890718423810447 4.182427151801223
P 4.785853717746142 8.388237655829169 2.069174084604959
P 7.945749791211305 7.290169807907541 6.031956272533532
P 6.898640047407709 9.589246120263399 8.287306437040908
P 7.30871943280245 7.7779812725997255 9.417551975935888
P 3.02712436427346 7.154096159781496 1.4382887980185588
P 8.424161124390665 4.4878493613690225 10.289574405405624
P 6.067453433501232 6.302796330889087 8.22696277912308
P 7.66016700863329 5.900304600200905 11.8114173365871
P 4.4277127377025085 5.742447705216029 4.0666038457635745
P 6.916106939407648 4.273757317806425 8.648312018293549
P 1.1950175347705738 6.378137274192988 4.623985749967845
P 2.5364985132162285 5.6822013745591 3.0377388560062557
P 5.5971574927968 5.10145622025304 11.740361785717147
P 5.0271447717254 4.805974986110681 9.61329619410266
P 7.314234046485369 3.704926790845274 12.071864744400768
P 4.099980778854521 4.766729804113792 5.963248164078746
P 2.1291122611735243 5.526125912118068 6.284041466553764
