29
Energy = -151.21662219 eV
P 4.865195767485815 12.239119064261441 5.330320551543472
P 5.018595955590385 10.891739555834414 3.561243519373015
P 6.768022381843441 11.179994471171426 4.8986952735379345
P 5.626727051532603 10.692570410053731 6.743201631427532
P 3.9986556246330736 9.006169473944023 4.184867937000149
P 4.393526206761793 8.872055972302226 6.341485966385532
P 5.785074741500357 7.898690567993231 4.9038393334944885
P 4.916860319609502 5.822092853217284 4.681421170857006
P 3.185662596734945 5.770577748296208 6.092648423165306
P 6.475191641045719 4.817979729318099 5.918168910002193
P 3.192870058883542 3.5998333611230393 6.5150334101062555
P 7.440169206343813 5.879308343828023 7.617423462923922
P 8.23806145366643 2.4361025063851427 7.372741047719681
P 5.940576933297619 2.1227686384499016 3.2250835265467312
P 9.543658851918293 3.58402538454353 5.970641941615393
P 8.23497928554223 4.73225696633654 4.572635608547621
P 1.5253459103741334 5.004330559814895 4.379321547039012
P 5.017007101751283 3.709845056587426 1.954940950085771
P 4.156752764235907 5.9585655825568695 8.416062643505736
P 9.086123576156306 4.4330342953017965 7.989145808157752
P 1.111619158261576 3.2662581871607004 5.683436752180567
P 6.131210387953697 2.7550376056994823 6.656563003704985
P 6.074303545285472 2.0392267622436413 0.96817444156879
P 7.141630415375798 3.989263507490705 1.2812824453611469
P 2.2773043220864575 3.07678276339747 3.833490122126357
P 6.138224697110348 5.203445358490814 9.227248625360998
P 8.007840083316847 3.0345140664433465 3.124351479699792
P 3.4720327304214074 3.868942836777957 8.751627199096289
P 5.62316469928365 3.0513646946148336 8.807855575443673
