29
Energy = -149.52332305 eV
P 10.954941551489286 4.217598376447069 6.725484566129774
P 5.276337913037006 7.96902371272965 5.981894027319465
P 3.8310996941768805 9.312349628324542 10.141410269536427
P 9.803232278257568 9.245082377768428 6.038720115450237
P 9.818314162414628 4.14266221915246 4.798893572843752
P 6.574912004984927 2.5286773063759043 8.213439746758098
P 1.9540428820896552 7.040843665193213 5.748960546785765
P 7.452355047424109 4.523739706406188 7.6010880905872735
P 2.7611917961024774 7.549329573064171 7.735573926610448
P 9.040353886666306 7.008185317524798 7.977730682413908
P 7.783603432292721 3.6968126502956027 5.552937299192621
P 4.828356007294107 9.989190178737017 3.0654446128350643
P 3.731330141865772 7.479268936050075 4.424931182802349
P 10.074263864349923 6.361798122394701 4.437326514860946
P 11.724768510785056 6.2092832458509655 5.923757560618486
P 4.708518743604613 3.1598202435273004 9.168682481837308
P 3.554020536168992 6.054627572202373 8.968307529068186
P 9.50592171671516 4.861945542332323 8.348491862331985
P 4.279849881441847 7.2728573405365085 10.525765436546394
P 6.303011274227583 4.9483892579619635 4.479156006998452
P 2.8082217825279163 9.56127767120347 8.322747137138284
P 10.95977106944395 7.932511980951087 7.3568705404870185
P 6.840263607684857 9.536771614323126 3.2952732650851906
P 6.8354595712031045 7.208313186493836 4.621958348247317
P 8.709667458695987 7.405890296767419 5.831151464876793
P 5.661564164957313 10.132485089556463 5.079885791527005
P 4.698666542061667 2.851165612064172 7.023116332168007
P 3.2006687090298196 5.357770128374402 4.929789801330457
P 4.963441642621137 5.080479321003689 6.319361161226562
