29
Energy = -148.79845592 eV
P 10.914730409451224 5.619082708088686 6.903990769268477
P 11.129856505730377 7.008155730165084 10.120693865381318
P 9.749342191788475 6.126495006819228 8.688768217430141
P 9.277906648888898 4.395488761418865 3.892128410201167
P 9.102530297462692 4.98946180154485 5.969229801313199
P 9.827873680640337 8.619804836704231 10.369254424602987
P 8.864398747611856 8.198351650440026 8.449599656737494
P 8.28233858466041 2.9345745665972203 6.378568508165343
P 7.495007437948089 7.423820609739335 3.453699196039591
P 7.811648065845915 2.9313260843266367 4.242400951522864
P 4.881093946681251 2.1296095572650224 6.064425917023767
P 6.35690130767684 2.9795026994904017 7.588177814005101
P 7.1301518567005155 7.291686304767637 5.659687378690218
P 6.722935092034189 8.087409163577762 9.038178965732051
P 5.914544403362921 5.077300950080713 7.537469911042247
P 6.88196606229187 9.235825875819401 4.552239392254696
P 6.431197856252092 9.60448676540753 10.577358439802602
P 4.362776093940756 3.7017754490890855 4.659729617957972
P 5.431534073214352 5.7962339148227775 5.314677721114407
P 5.543069572093793 9.445064976989405 7.705325352368239
P 3.091612471293341 3.3539448771959663 6.436229344333139
P 5.522372705360031 6.362456339355363 3.0713008569316016
P 3.7695808814579794 4.990969371422858 7.912534113442006
P 4.742017200974334 10.289482220825949 9.554007925021788
P 4.984260491276247 9.855830337745685 3.607210942188501
P 3.4847406024467302 6.473570959345162 6.220189334324849
P 3.9987318343943254 7.980324217186347 2.9427464281416116
P 3.6392007994824818 8.55015362635156 6.885454048572699
P 3.205296375716566 9.097426834096106 4.754338893068972
