29
Energy = -149.77481546 eV
P 10.262905080903858 5.567972808033659 6.1405543640778335
P 9.06891341778942 5.652392620366754 8.01724670624754
P 9.849749972543682 7.09551045049296 4.474646936518649
P 7.2632511509115325 4.343962128538852 7.644599297436311
P 9.22206471984187 3.9111944446202838 5.0629056668802
P 8.086248624067128 7.472626353995144 10.381877870879151
P 6.431420281659057 6.042705345872486 10.475070429136874
P 9.888064451000243 5.189003383263403 3.3170952697634624
P 8.578173507546147 7.8056228802064656 8.172324092646532
P 4.339067961983446 3.8782719308896567 9.30799996642873
P 7.770079945878943 7.818363402477656 4.341655170540719
P 5.388737845667062 5.553815737237983 8.225680587791002
P 7.0329374700160825 4.168754506642699 5.436013069166653
P 6.029683314244136 8.218053828870373 10.73616742519531
P 8.35508686385575 5.480954197593186 1.7238642522560277
P 3.8830845558049756 2.4478698183117538 7.841560029184521
P 6.6674525010844965 7.874976843835782 7.09500216984449
P 6.702897434488565 10.047171288209759 6.4086064272677286
P 6.394727724207719 6.108388640989867 4.579510691178062
P 3.9487725074163187 3.2102779850848204 5.845040709394341
P 5.252343324743872 8.617809409827517 8.6834508593154
P 5.277912578615397 10.747203978918462 8.018768792543451
P 7.599638901057064 7.538259373150645 2.0490281411488978
P 3.7196796116195734 5.203735004379244 6.5733502564446775
P 6.2384774281851465 5.767893955652741 2.3614424864245414
P 4.1907038764969755 6.630451213294513 4.961242538352691
P 4.500207133113598 10.21938851407399 6.013238333130651
P 3.3279820993345255 7.760740219997615 8.44042641531878
P 3.3763570570957926 8.273251076343792 6.318252386658812
