29
Energy = -151.28660205 eV
P 10.836979853172023 10.50068051180852 2.249241929160954
P 11.064038220890394 8.333432323188903 2.7171595871032
P 10.164069539439394 8.972720669242428 0.7899387310433941
P 9.422151294488623 7.871238534059303 4.164292892356941
P 8.670888919804327 10.295038284882663 1.7672412003645794
P 7.269778921621016 1.4754028155802508 6.086808032491096
P 7.181304765707273 0.9136641606209168 3.9313457525598854
P 5.5492543465442585 0.31514317815990817 5.240578582889516
P 7.791949993344746 9.179103952133978 3.4899494913641838
P 6.866512021545537 6.755129540997245 6.008866039608968
P 7.41735467006275 5.071526307118168 7.187181936911456
P 7.937597311559433 7.117736332908498 2.689639174846053
P 5.7667217826830335 2.6949826151919787 2.86733130427063
P 6.539918723814049 3.604857824731376 5.918521586449188
P 7.1686321623430365 4.085110456094345 3.852315576478373
P 6.317412332303711 6.136393720853243 3.939303009993433
P 4.2404042165511635 2.0758541146764093 4.322939423368106
P 4.313392756854083 3.33827813313502 6.098066568446345
P 2.3557559285215417 2.781330084349356 3.0570546720117506
P 3.4972393522643923 5.296656133591235 5.477314138146769
P 3.7522489259618776 4.140468202180331 2.091519996255359
P 2.350193122372189 4.936342981328987 3.598213929346094
P 2.7187431808404927 5.340055563268048 8.797378903107857
P 1.7202809015999678 5.598660828591841 6.84226746149326
P 1.3379321892017522 6.557650384556529 10.060457146047183
P 1.437709616282599 3.7347518712308694 8.023820741010061
P 11.064038220890394 6.410407679942973 9.172095542653793
P 11.615870356881702 5.1054688225222 10.880311869946858
P 11.188608938790244 4.211529602729891 8.881312222907507
