30
Energy = -156.29230614 eV
P 7.809111764421332 7.950468280019968 8.36705070170262
P 9.981054471210733 7.898369342447268 8.173121663757408
P 7.397557726300106 6.020792754248206 9.363534638125916
P 7.732295326519452 9.01915397237253 5.553811906939204
P 8.678479161265193 7.177317030942061 6.48007632101744
P 10.451472278542246 5.787415866951461 8.895258698777017
P 6.162516253123841 7.480228992379784 5.1905663434951315
P 6.590228485216749 9.994000568113277 2.6119987154164415
P 5.311865967145515 8.285911623529522 3.295080970137037
P 8.463974497941654 9.111762589909585 3.4546528508415664
P 4.256911487141664 6.136624837528349 8.216970782293822
P 5.400570125696971 5.925647220785025 10.04739382516242
P 9.103308511298428 5.316622816705402 10.589456200280946
P 8.74923268088272 4.4383650880279175 8.529787323147463
P 4.353489435983169 7.740141584922586 6.576925513714424
P 4.798933471052401 4.597841059895859 6.694281295307763
P 5.76680356699707 1.9797072436658523 2.490339360514153
P 3.3134773087456777 2.9994335334621693 7.151314988838704
P 4.8914894975750585 3.679860799559717 3.7084478024567384
P 3.2524064998235955 2.5736905454994226 4.759443381321238
P 7.142887306341836 7.922126401908884 2.079242454792717
P 3.7257408896296944 5.975598444938201 5.299194146697104
P 4.72817040047099 2.85674047840635 0.6726585514276884
P 3.9819653417700116 0.98827296372403 1.6105360750557443
P 1.4492824588832691 4.037735305548159 7.300049606062852
P 1.3528549089353243 3.701985384409376 4.578923601993114
P 2.2605834767060204 1.5241808269424493 2.898381732417009
P 1.57875800473555 5.567231699804956 5.7255365547584605
P 3.772860131869778 4.452205536865593 1.9592726974819084
P 1.7495636342715875 3.5291563284503673 2.222838767768528
