30
Energy = -155.93933286 eV
P 3.6531751137042905 10.39030630198226 4.99545282767277
P 2.6817158465095683 7.743308623894972 7.9788805973124095
P 1.9600439039445328 9.031887877138447 4.621470749705423
P 9.680387951409498 8.935635631959913 6.369707064170069
P 4.751178287263243 8.051445183151598 3.220914048491644
P 4.647410720470772 6.8051771713806355 8.390682589547062
P 7.971862227679087 7.505643195571028 5.949775925057799
P 3.8938238975562216 8.168000567872141 5.333741315307714
P 1.6731585327337686 6.347332430207399 9.167484916497742
P 3.5793116453421483 5.327236472457351 9.71153404990034
P 10.200392912134859 7.764462113147307 8.241911305588607
P 3.238616278449018 9.699937790900838 2.9068411835205863
P 5.950464725302535 3.8532006167507626 7.601113180382744
P 8.95027205872155 6.317633100509689 4.37611567810472
P 3.939785377902111 4.886067875976003 7.554191717345622
P 11.456405916958408 7.5983860709319355 6.4188071920563745
P 9.626330024348974 4.6690939289184845 7.025899084407524
P 3.4324747753873073 5.430841847847373 4.170494522559821
P 6.274786686516493 4.4470810336800195 5.485508643393054
P 8.475444982387048 4.223676013885468 5.115416475836147
P 5.717571928127978 2.3614262105168975 5.950248500389678
P 2.752796353501902 3.3735478986993432 3.7967912968190025
P 8.470283063756096 6.363637822560992 7.812884803398819
P 10.809324245662685 5.705789747986563 5.435798207992635
P 3.930902322348155 6.207303950731294 2.330150109388282
P 3.5171996859357173 2.1422276215352585 5.473619637314906
P 3.7074839095559327 2.566044253611441 1.9634339335260558
P 5.234934769144835 1.0703570870577086 2.5456411553488763
P 4.039353634207505 0.33194863292614674 4.298764978490791
P 3.1282131668664133 0.4376075356433645 2.265512264376388
