30
Energy = -158.31498981 eV
P 7.030994286334355 10.43660686706235 1.8927131386383755
P 6.257486063914219 8.439315916863873 2.530716479724778
P 8.616314613734195 10.966406699608681 3.3832403445607224
P 7.997636308476941 7.857034349797333 3.7621603009231053
P 6.571053695421082 4.916049657044214 3.3590091394122674
P 4.410799323264239 4.74670022672461 3.058141843004955
P 6.52022513752466 11.835408208067069 3.5487094263516483
P 5.529976140007188 3.296149066734649 4.4264756230202735
P 8.19501081246876 9.581613541518275 5.108248973073742
P 6.99852118620098 6.3329921446885535 5.045463782701793
P 4.845992699951442 9.115387976241319 4.103031396872234
P 3.5310601774667405 5.840449289118947 4.869717450813303
P 6.123574801396907 10.45406622569583 5.29061609778614
P 4.9984574535403254 7.371573198828758 5.485758352290638
P 4.4446760905791765 4.275762862729159 6.151556550828724
P 7.05124402582255 2.849124927866788 7.340167395339003
P 5.427237473367585 5.523756243119909 7.8668510225320105
P 8.940447864061937 4.075250787366775 7.277428839879283
P 8.06776279801487 1.2897335200898674 8.633678797689768
P 4.84222846886685 8.633520054021917 7.624375430716498
P 5.894087129997477 3.662303811573665 9.019762596669258
P 3.820113955553452 6.894847765548212 8.516989210368834
P 7.155136004049345 7.02842954915505 8.059422056538136
P 9.957365278671292 2.539179784198895 8.603842024261732
P 8.71101638101447 5.546276896286273 8.877862884513952
P 5.421856947612317 9.402320948238172 9.758982626531463
P 8.66085370996622 2.4893823594199973 10.408855060059258
P 7.500454566860507 4.4242979785597 10.337410540556291
P 6.857340189869159 7.768637158520644 10.165480670788853
P 4.688558509038138 7.47490407835707 10.560814036600677
