30
Energy = -158.49680566 eV
P 7.176086961802025 6.627321093383246 1.619326962540278
P 5.786990731564978 8.37630365340931 1.8752375320567094
P 8.379282848801452 3.9079127774960902 2.687828266519775
P 7.937003387661005 8.435815768770189 2.619848013246293
P 6.595347323984795 5.13997999479251 3.2129603997817227
P 9.990634635872429 5.310336250793396 3.255816831988248
P 11.609256102132848 3.8044845320640426 3.5770910456885856
P 10.558461525491103 1.8422120082179527 3.838265394965786
P 4.8556077727434355 8.129562287553357 3.9035697665565063
P 8.453368072855078 2.456352266270559 4.334778259021556
P 6.874394754339442 8.019567369111911 4.5544894272175025
P 7.241819545651576 5.9541521014412035 5.218752320352966
P 9.443431328015961 5.659792402188188 5.383412408000602
P 11.33098647093198 3.0032314549828913 5.638415641047546
P 9.22217059529893 3.607792260513488 6.122318185840195
P 7.394724262950267 9.607435377430862 6.032638761348151
P 5.594234684377211 9.879228883700625 7.29719772673623
P 4.6929086004405125 7.861646664759057 7.316856591311968
P 2.9663138967547216 8.30888055455221 8.62889277055816
P 2.024817130739455 6.330748530062511 8.582246432487475
P 8.736918502623192 8.958708972832873 7.7301983174988855
P 6.048190425407457 6.527306960612288 8.55007465842224
P 7.1139350425342185 9.976159612442492 9.016836426114024
P 0.7535653384089321 6.751114744340326 10.380674601472428
P 3.37957434668677 5.015082024186187 9.827230174636531
P 7.641461712103138 7.868495532993438 9.300864226620153
P 3.954946378452216 8.29408144188143 10.607380188291032
P 4.993715858855775 6.342923730255683 10.494647277637144
P 2.2046765353248894 7.651927003408812 11.827570113457673
P 2.1167384379924137 5.423006956350737 11.636144489380488
