30
Energy = -158.52050504 eV
P 4.950917767803148 4.005493753941526 2.2835453559576737
P 7.443082043950853 9.862800300000385 1.7922514519075823
P 6.666639880481619 7.803584011917125 2.1680297371794586
P 7.005772479067914 4.172982613534464 3.017908438986627
P 5.783584840016197 2.501229296216567 3.800653978621433
P 3.732264850182227 5.068758196168934 3.8899150159489095
P 8.242140418781124 7.141077630169844 3.5790085068567765
P 5.061151171564619 8.32247511529075 3.596484878222285
P 6.726658431011184 11.10186956661028 3.5096973541122902
P 8.846103572662908 10.293398355302182 3.4785048846194613
P 7.099229502546112 5.6140946379576615 4.707086806882537
P 5.0406017877701155 6.5186593986406836 4.870458888575978
P 4.243221482730178 3.329962867088515 5.1934569271268485
P 6.1498151762801365 9.566928391005446 5.04778225259342
P 8.254401294531455 8.774210771628459 5.0391983273045735
P 3.843584628854753 6.412343505777492 8.813645543498932
P 7.036975993324979 6.77091029848662 7.516705561429522
P 5.098224865986204 3.4825408215542275 7.251348804868391
P 9.083198686328487 5.989263125367848 8.162887100343905
P 2.163333702540702 5.406684641971363 7.775127409747939
P 9.224487445226673 8.142122326047577 8.728659599983315
P 3.0380957743414094 3.359169213721589 8.065012428196958
P 5.710280483492164 5.237458923627515 8.490426204397368
P 7.0814222261450945 8.17890434651893 9.330157027717071
P 8.484577717957036 5.104097776517909 10.090908708653139
P 2.759582611315525 4.742261541878033 9.805423476463682
P 10.307257117905612 8.082924227653796 10.674696544629992
P 7.089115091879315 6.638868575742795 10.910209767761696
P 10.17636773071672 5.965975731205022 11.344593624474737
P 8.764990237954175 7.516029051805115 12.173294406286303
