30
Energy = -158.81194838 eV
P 5.577253232939223 6.06725988941102 0.6592229918516179
P 5.156162658835736 4.074855344187077 1.5724692387325565
P 3.6498157751075686 5.706567579325682 1.8155085718457262
P 6.383496949233231 7.24535155263384 2.3969290956619345
P 7.7450549168210925 5.664964580812418 3.0603038724331904
P 4.47258793837738 6.900757365305205 3.5488366390905934
P 6.3290749372479915 3.999495467343336 3.4859323592715223
P 4.81298127760827 5.061357582141098 4.691133073307131
P 10.16214233938303 9.074566679527118 4.5719869660295105
P 8.124397256695572 6.565739100613839 5.053417434969775
P 11.861631490633972 9.86827926672071 5.858311197421236
P 9.726616183376589 5.264934262099042 5.865519943382805
P 8.727132386707206 9.416253737802336 6.313919611094599
P 6.313113857609273 5.78027792395252 6.186315329739376
P 8.8132454501147 3.669575591728207 7.02280277115348
P 11.717712272235048 7.750618567868991 5.37227726234961
P 5.603479030609343 7.356345305130234 7.609565682779358
P 10.89977283880085 6.7187558326607135 7.13193442537451
P 3.4833089298852937 6.775237515683878 7.884242534483049
P 9.515144415479796 8.212935460078903 7.963231538320802
P 10.418964645493258 10.178104859456377 7.6228958253672685
P 6.917279906346796 4.303805039147252 7.71966583173289
P 3.6171071564320765 4.777859381241348 8.845745701293689
P 6.7589700576567395 6.1374540751684314 9.17591606224139
P 3.251003300828491 8.093113671416837 9.627676668190425
P 1.3247866121886693 7.1299507432543 10.26254364912567
P 1.8031688563185246 4.948902363299196 10.133108349660702
P 5.151480861392167 5.224521662560018 10.379462898095635
P 4.348008999914596 7.042618017417505 11.301948879189462
P 2.425466140355332 6.079902256639507 11.957536270437949
