30
Energy = -154.16884269 eV
P 5.82596065438185 5.93857207568105 0.7255663697408922
P 7.410017700285488 5.144250113787375 2.030918124208406
P 5.232114014628661 2.9888974076765327 2.9756990040353957
P 6.969824506693914 7.308640959217678 2.0283748929080674
P 3.3415014940278844 4.175212558022994 2.40397769626742
P 3.8180416881478414 6.351615992489292 2.1693773795527638
P 6.422976050227291 4.520841944477602 4.031037060563939
P 2.362200461029901 3.8956575010112444 4.373180666211889
P 5.385718051564251 6.8945402755575715 3.618019673475315
P 4.091380425031345 1.9986393131555542 4.600878512491206
P 2.515953107533126 7.134839272274022 4.287065872184677
P 6.108613157222153 0.5501972372853644 4.9408824355698915
P 4.1775065041322845 8.604043710763811 4.3252333754517975
P 7.278989631401997 6.555288683166433 5.65663635302324
P 3.4208767224801067 5.512492387693586 5.41679967124924
P 7.7642528728053914 8.367576627777263 6.869522534305206
P 7.953060092987956 1.5255379256959516 5.676218846993553
P 5.732197214079817 5.028310402754216 6.386983865152558
P 6.211342366571812 1.2030938999350755 7.053519076145875
P 8.281559746517633 3.619585981689885 5.019272799789274
P 4.114535825510834 9.400730199817922 6.373808295521045
P 6.157476752764896 10.013721249487437 7.032470805519287
P 4.8576378585253845 2.874337848873426 6.4531344342601145
P 2.669712020196981 5.388411308756596 7.585435395149465
P 7.7869273133965615 7.395509970514583 8.818544616907797
P 3.4780561388066156 3.3914836191422384 8.145328317199944
P 4.785582616823162 9.168334027695453 8.554660969261509
P 7.89467622733665 4.7173166640996165 6.929604076149175
P 4.6705714695884115 5.29199104830254 8.480626830890424
P 5.927237747634156 7.686830225532048 9.683722482154952
