30
Energy = -158.55354345 eV
P 7.024800427863428 2.0697211415146906 1.0860109383127314
P 4.863222315974745 1.5095291556020405 1.2746135830486116
P 7.1646788919562825 4.172038267865663 1.8325074001986266
P 5.027938324722456 4.703106025551303 1.652784527568899
P 6.254648603409 7.636356896478935 1.9392285474361572
P 8.192666069177028 7.793494232643318 2.983083901115393
P 6.386840329568766 0.8233184867932222 2.8205816350164543
P 4.068576277299751 3.0397155920588736 2.7164591762394883
P 6.621946977702055 9.423839087372437 3.26327175082113
P 4.891971214471772 6.341121671938695 3.1690433657876014
P 7.2655790318525195 3.730503236997686 4.009168311424574
P 5.580144328134483 2.3520701912601516 4.254203485748314
P 7.358943509233044 7.205032359003414 4.969097413283086
P 6.093911762154874 5.426982046769526 4.850357198160117
P 5.961022947391001 8.770843141012154 5.307241455294405
P 10.133977255657895 8.538211101079474 6.900288078403424
P 9.130955930458915 6.63931849485881 6.212871043415041
P 6.8745317115600475 9.344580181547505 8.54276373435779
P 9.079194754892205 9.481890121880467 8.582291937153304
P 4.459742539998709 9.640403962713494 10.805262833743651
P 6.448063304545125 7.133247279182692 8.319625785170961
P 6.650241856900907 9.702583171409094 10.738309580183929
P 8.395767544976403 6.090059345611996 8.232707607131108
P 9.99791925739427 7.534102018327078 8.985084143825542
P 3.9328875967400814 7.459967038769513 10.510076245588113
P 4.383408649358415 9.370192591656265 13.030438809591642
P 5.863613830875013 6.4358449637581945 10.339274064185187
P 7.173881195432404 7.719178090744634 11.571094575199824
P 3.8488346344717073 7.172457200402259 12.732739557942821
P 5.901588652117015 7.771792631486736 13.401019040941852
