30
Energy = -158.81445778 eV
P 5.273343670584015 10.328906843975288 1.9010520892425138
P 3.4817591272419057 9.407328984389581 2.9618513789732663
P 6.044011916487913 8.271178196702154 1.4357296122783225
P 4.2691034115845525 7.357358042063036 2.503357481398528
P 5.150962112097797 10.314705153113032 4.135531595360424
P 7.610673868808147 8.381138927346901 2.9613341349452558
P 11.969845932060002 5.420942745985431 3.4014652851465246
P 4.966087543321477 6.974321070356789 4.553589236021667
P 10.646507982558921 4.711451655269889 5.076409291571737
P 11.242583448979252 7.40814031390172 4.1300602438598055
P 6.425426438997762 8.620235750480285 4.823238649060109
P 9.329749142964486 6.555766768353673 5.015909409058725
P 8.176782995087425 6.247127207837721 3.1037498894801145
P 6.278495753282699 5.29257596017049 3.8997498951716785
P 12.424278788962301 6.038133329987933 5.45980484300506
P 7.266219073469066 4.047246665687495 5.411849216904974
P 5.8432925768955934 2.4610381772133203 6.075428089037829
P 7.785430036129553 4.690881930772406 7.485773111087149
P 4.285738042406402 5.278784489821997 7.861818525813232
P 4.701889438160979 3.1019333202999824 7.853363645386916
P 6.319088984130675 6.278530044920714 7.854956316953799
P 6.840329178258625 2.722132744800703 8.143628601161671
P 3.6877798080858053 5.33804261698576 10.000091879748112
P 3.3200499430936254 7.490778498882739 10.187415303598039
P 6.765476423732144 6.750362593926531 9.970536077202572
P 5.375497513272152 8.435632701338015 10.17238379825818
P 5.658512368522224 5.1307056343667075 10.991214428598386
P 3.3526065795164395 7.428840119943957 12.429631931828563
P 5.419517361435068 8.391215951129633 12.412738265593754
P 5.179648954217997 6.215251974320963 12.877026188597917
