31
Energy = -161.13158042 eV
P 8.356305015517691 9.718232728892962 7.400510026094833
P 9.533420710257227 8.549078099506199 8.885976038998184
P 7.4922335772447015 9.330292038277065 9.423510005400805
P 5.871530264808229 8.02933728624031 10.029492928178682
P 0.710300237440953 4.254540832327919 10.087289368797078
P 9.094921014707012 7.671762086864748 6.894717722926072
P 2.820609890720685 5.046830142341862 9.944485436917057
P 2.3557726440175157 2.84052220705182 9.778647900679218
P 4.683139989269303 7.261855451035735 8.40036791775643
P 7.386487385977818 6.212515076057125 6.878963099973057
P 5.773864087192227 7.720669055247455 6.550784056205584
P 2.8892635911788407 8.573031264270165 7.967156465797964
P 2.7825033720282546 5.147011970407321 7.710099037403445
P 1.1614383898564542 3.547099666210791 8.022689340984181
P 2.6053154708891237 8.066826011829669 5.811930559567152
P 4.2769900228636315 6.6099942183938 5.3057913406549275
P 1.4612787955751785 6.93488405608591 7.381241633582653
P 7.161939526629036 7.478308212551267 3.7022976327866237
P 7.865422978808343 5.640987504485372 4.761320266646106
P 4.962988172258611 7.583869892992213 3.3875556423019195
P 6.291127302998022 4.08140485871616 4.5510951768499
P 7.75018660649231 7.082262624994833 1.5987825232766342
P 8.910136606762931 2.283128729642751 2.732885021620656
P 7.793091137710993 2.44015639663014 4.689440136809687
P 4.472053495875373 5.914372427615097 2.03168117040471
P 5.924206478535616 6.5746633512658965 0.44101268206616334
P 5.769346092782231 4.134570772949781 2.3904589193723567
P 7.400883349743007 4.9489387810838155 1.0783306535670623
P 8.719097253719191 0.05486044091735953 2.9597416288853386
P 7.248463184836349 1.1424938104119347 1.7368338193734536
P 6.73379763501335 0.6274026859389408 3.851984458956903
