31
Energy = -161.84605685 eV
P 8.793146093012655 8.996762614900511 1.415399674067202
P 8.679991744552456 7.068995658429319 0.31123551723350884
P 6.7752575741854715 0.7075023406269287 6.866283470278375
P 7.980963487587154 3.797781435713242 5.588894082015814
P 8.18293434564475 2.2813834733251226 7.2267686553164205
P 6.0243061161241105 3.2011024046002845 4.645703912303046
P 7.39078139658778 5.669329000208959 1.4743988885373627
P 10.413528205205356 7.494884545058418 1.6497321929007303
P 4.812441657272519 5.030724427386034 5.001795026345803
P 5.973846762713947 7.175330849199803 2.335819657170598
P 5.057376938386503 1.6982575863941016 5.969097727115357
P 4.313133674410983 5.784249412032815 2.9414537749773966
P 7.852362777139121 5.4180521315269505 7.154812135531917
P 7.361668099097078 3.8253914260046433 8.710074925658207
P 9.128920472160774 8.034223271456943 3.389693271302059
P 2.7958664377192055 4.064936713094358 4.97206909296998
P 7.657585615160298 6.3630119447268605 3.531169123028871
P 4.122910218776613 2.481594814522815 7.823862801871237
P 5.944966633370117 8.072562286807116 5.883031831807956
P 5.188453327353816 4.2688926262129865 8.567980329347973
P 2.2504992236676444 3.4680862680906035 7.017692332400273
P 5.69498328504887 6.099372950813204 7.172300752137441
P 2.9312881982564933 7.330724578438437 3.731017271679979
P 1.4859402405569264 5.874238511122459 4.810754504995912
P 3.8524219401155944 8.386474206773777 5.4941297797207485
P 3.398982858090911 6.91543890365452 7.240420597469892
P 5.780006386642053 9.188010980579374 7.869509495414241
P 2.2616399889025582 5.278064983425882 8.293918559898092
P 6.055479997693532 7.356706459196509 9.115806904635864
P 1.2081140574600389 6.724631931360445 6.928915118824697
P 4.032848929777374 8.257402403508898 8.92923411463708
