31
Energy = -158.07657203 eV
P 4.4584760702654735 10.651306713020924 6.685243128863256
P 6.030146187842708 10.302871348336572 8.213087066720977
P 6.860768682165527 6.978900394470357 9.297349927842333
P 8.06069062206754 9.752803149507079 3.723310035357386
P 4.790778116362481 6.756608748345468 10.136167025166962
P 5.7284258883890935 8.784576121119004 9.960266652124815
P 6.462391836526423 3.511411128450312 8.76472319014922
P 8.908666249852846 4.712205470419425 10.783082511098096
P 7.257188765755656 9.127015683568123 1.70656129421647
P 7.600709231912729 2.070256250424027 5.474777491912322
P 3.1180190579700056 8.892120058184895 7.16786867926849
P 7.860512982083504 6.430116933642675 11.203406349755742
P 4.598464924748548 7.2686448994088435 6.948297411318549
P 6.303719392580871 9.528818732737715 6.1589123720500645
P 9.712532315105221 2.39846264614658 6.148598262948561
P 8.40639195273212 4.133289163321349 5.586733968591795
P 9.965042578652318 2.749576983582451 8.306104538601847
P 6.0769198569167475 2.0485717351014077 7.142406928337235
P 9.917826024720942 8.632176724547636 3.0322044645850403
P 1.8993826885262368 4.260654887053292 6.322484553868809
P 3.425950534832406 4.13635376381954 7.961535294653681
P 9.011905012107214 4.622705572745883 3.5046538278196433
P 7.791126770047077 6.2772749820415585 3.513539043104346
P 7.508388784991235 11.138004409492947 5.186045227476487
P 3.1268863681505965 7.5971293580866375 5.346630668599048
P 1.509744507603975 6.07144814267265 5.429474782403203
P 3.327770512110312 6.311768019615843 8.488618259175581
P 9.093175029538143 10.426907873735491 1.9130992336421755
P 8.555672401902159 4.325821370703086 8.635005439326864
P 5.419091777372379 4.172933203104858 6.917192358192777
P 8.623675433039818 7.339706089466644 1.7530605697010069
