31
Energy = -158.83481275 eV
P 8.711170108789185 3.9341634548555753 6.88455839195978
P 8.329727322393165 8.39503008489829 8.549552480208222
P 3.4469611952328827 5.246277097354824 4.358588853881025
P 5.319042093548034 7.078919987728744 6.886749437894132
P 7.534314073162394 3.2911722216770074 2.1524897118718727
P 12.080991996046265 5.465938078828765 3.612751759749405
P 4.393467701231786 11.125659024289794 6.9475687822235
P 6.971306876523846 4.764608468980874 3.6440787388028153
P 10.592784854946979 6.173828120438391 5.12369576301255
P 8.55989193077793 2.4355335442413404 8.366207793675269
P 2.302513344463009 8.47306318045268 8.07235350813532
P 5.078405191426876 9.186200972868104 9.747565687089764
P 1.3622654246299568 5.340285375167832 4.491135720858018
P 8.819117915140238 6.265615900713129 9.20281992111274
P 6.881847498312875 8.662233304410545 6.87227711227169
P 9.178001147655877 4.7077879351438225 4.172323143528843
P 7.116109215811861 8.593422152059809 10.431111170141047
P 2.5048567879388326 4.844500423896865 6.3145165128906235
P 7.087225858769165 2.5900002603638077 4.141169507941332
P 10.291457796287103 4.969654609248875 2.2959626347203357
P 3.9718019239024245 7.899528749597337 5.301420917613994
P 6.099247779227972 10.3308885917106 8.129246767374633
P 6.851621364371917 5.280920436323747 9.157559535443824
P 7.405036738271889 6.420030559382992 10.982908845015587
P 4.206470267960505 13.018591876645587 6.475822732958823
P 9.243770623160398 2.7183576977669315 5.153561968205781
P 4.1433831947221895 7.433085469091115 8.777215856832699
P 7.646073056570666 3.390362468367708 10.00769169503901
P 2.8710624567893595 9.685481318771556 6.29282802277244
P 2.1304198141807844 7.051343134705795 6.240637719789378
P 10.71695399944142 7.074815051705479 3.0609288586728045
