31
Energy = -160.93127368 eV
P 1.7020015598290388 6.147854651802099 2.0436548335822375
P 1.6661573677706993 5.014177649252658 3.99170769078445
P 2.1361499192924716 3.968837036882498 2.0769146002740375
P 4.293549222952366 3.393879981236864 1.8424867301867538
P 5.845558854415693 0.8461208771003025 4.420578072544156
P 3.468946363436354 7.352710401657112 2.8864818854242675
P 4.643209192749009 2.698751087761054 4.025993196804585
P 5.18356591977785 1.767638291568068 6.311132764501132
P 5.659604910262188 5.103395838143628 2.237861382601152
P 3.8073639508060797 5.6786595366203985 4.286924411474761
P 5.346124618689316 7.155052367213298 1.7959743290267485
P 7.452186624911462 4.681018743859587 1.0156193857558695
P 6.692100418209598 3.8014528815178132 4.0532024366115404
P 7.1845822185308945 2.163161669535051 5.632667087003834
P 8.990020971944153 5.266364116126685 2.5412754435306537
P 8.205267507866266 5.402103149778836 4.637730622566048
P 8.207992191653263 3.1643485677901655 2.4701738454538154
P 5.578665751367852 8.239010008219346 5.161393744182175
P 4.157992560407623 6.829661738128495 6.170987608522672
P 7.701207369646263 7.5235840316947185 5.076627383989992
P 5.558648216536222 5.409031777648071 7.150344946424467
P 5.756107150374394 9.687713351003318 6.846407496046268
P 3.431341271640678 6.144642788198838 9.945052193513359
P 3.9201839030807597 4.56786394219567 8.403888332256487
P 8.400724296355662 7.421800412186228 7.168094415630796
P 7.785124553884737 9.522931165620955 7.714514790918833
P 6.791583230786061 6.658334258936298 8.509832405281799
P 5.953083207568869 8.719317692462319 8.831268699276238
P 3.2688115750172835 4.472522926257387 11.439028956496792
P 5.16633359050193 5.578449409043408 11.256718961885962
P 4.9393705052922705 3.623983865596539 10.190182961168315
