32
Energy = -162.89995219 eV
P 11.875834439636435 6.471694958728757 7.4034759281592954
P 10.772127245405827 7.896506063944915 8.432806029208775
P 10.675447340683755 4.6352433654476375 7.427471375743769
P 10.70525072353595 3.957736354791249 5.291936025156815
P 9.03622474900493 6.771317261695976 9.087318374083276
P 9.991265635013525 5.82780219425919 4.155506665121022
P 7.737159917884892 8.538797773613284 9.526895919784451
P 8.451986458191078 6.964848929384543 5.384233240415498
P 8.569549640677035 5.423403318999499 7.229077917929124
P 8.541677440833306 3.5026875960234043 5.477524881521587
P 7.759768234810418 1.5037932432945385 5.196829854198757
P 8.141140902637478 4.6782435374912925 3.6416145836080362
P 6.299730071803958 8.46046259007688 7.828298733529306
P 6.373074410363895 12.202546826987309 4.638771651110236
P 6.852129436983076 6.357995212232225 4.0521277739822805
P 7.239469193163115 4.557305982702727 8.741597744260696
P 7.246269708663334 1.5945973768766974 3.1678416036401145
P 7.649519013129688 3.3152460896374496 2.0355738901523766
P 3.313048011475924 9.073425530931402 7.135321388028192
P 5.57219502719884 8.035670965953292 9.874724794924028
P 5.2306736840839 4.889832284518311 8.113374957804792
P 4.213810113706902 5.644571211512367 6.25672405508492
P 4.480840076523707 7.7903832859089235 5.692402541321745
P 5.161477883828615 11.051265324247545 5.610788483960787
P 5.07066827800545 10.328411991330398 7.771205553709155
P 4.920007601419132 5.883880349526143 9.970413522474068
P 3.0504939566458353 3.827780615849157 8.568889822904243
P 2.884118397278785 10.64175391518884 5.624927540917634
P 3.1115754994877722 7.609918184675395 3.9822754170011385
P 2.305830656293629 5.553285843393058 7.419411370030958
P 2.655791728661869 5.7078837924542 9.62082449931035
P 2.3043689808784746 9.494232486233091 3.83233831883412
