32
Energy = -162.2580141 eV
P 6.213873672342829 11.912790275996974 5.733976621622583
P 9.187790551476201 10.770228152357914 6.121698630920559
P 7.177763183226807 9.529031970710378 2.97777028670668
P 7.845165503380155 12.287221149689339 6.997750621650146
P 7.304680479780568 10.16634158334694 5.011324751700126
P 5.087017748097881 9.581761411460999 3.435449718061389
P 8.757787401681291 9.0063440018479 7.506852157762449
P 8.487310983713336 6.003313631393634 4.070419853359707
P 6.053820647190899 10.52839715612814 9.402455238195472
P 6.841687342411026 8.509793174592193 6.477699154532981
P 4.786256686226608 7.604803000388132 2.505214484415337
P 10.134314667619355 4.654544443857144 3.3335577383616606
P 8.25002342098594 10.19937389852832 9.313412872628522
P 5.196090749769479 9.296767329960865 7.721125232716857
P 5.295014409863901 6.067665385961352 4.037169628809219
P 2.7010066644980184 6.985704346880903 2.779578084577028
P 9.40738391417772 3.0537544558712915 4.418885756792119
P 3.365015248107302 5.159857906771569 3.5363737972635896
P 6.997720808442635 9.080793913190815 10.81191579209485
P 6.908000613715613 4.74876016989042 3.1636503332785706
P 7.671073183880244 4.2543268994498 5.197878126186359
P 4.649085422775498 7.332272828808249 8.713204728018896
P 6.616016347632924 6.323058288294524 8.470338552955159
P 6.0013993380216855 7.096012573711463 10.45365187978409
P 4.627776292730853 3.586666631242742 7.05163476374557
P 5.930306767364947 4.198916098767796 8.708097818904513
P 3.7601612809780667 3.8820913678184623 9.139332803366665
P 7.065435134841586 1.0323638185516382 7.006322693247511
P 7.3736877034217665 2.9436859867845095 9.594402407315773
P 4.209073104604974 1.853061870362317 8.393446577325468
P 7.898745319253181 12.28722114968934 6.8229879854788615
P 6.233440163109805 1.155052123753692 9.126345663544402
