32
Energy = -166.6033547 eV
P 5.139633721954595 5.348222622066502 11.541035312530846
P 6.835629947868674 4.486074038905337 10.299903740182176
P 4.800215813804692 3.587168738822379 10.210705992800683
P 2.4324599252616346 0.4894150296253879 3.3086570487088314
P 3.803199575297895 0.5377312230023686 1.5761356623145155
P 5.0708535008971225 2.121182986907904 2.5284396696491105
P 9.263973351783523 4.871843698921283 2.0062200000984576
P 1.3797504057332748 2.4494648912919916 3.3569634747955264
P 6.6285313875141485 6.2460717352492825 8.923945115447514
P 3.8330169071322775 4.32050252173948 8.315213476367337
P 0.7683777734448974 0.8880648167882997 1.8589997073965745
P 6.868140271942676 2.773280450572723 1.2921837381673718
P 4.895709947704915 7.072418096390732 10.112992606804303
P 7.432446542719017 4.311129842833956 2.767831864483188
P 3.0856356267088914 6.209894935567174 9.218236042265984
P 5.678387766636501 5.078203525883349 7.317544175545228
P 2.326606663135473 1.7256941926233706 0.32706445134685064
P 4.779084671175126 3.4066868691296137 0.7877107916456512
P 8.212960819685694 5.994822996960145 5.073977351794503
P 9.465855911651008 6.651218218719661 3.342841475805946
P 1.7725605443166637 3.549422617426596 1.449388855886028
P 3.517717730910489 4.901500923794289 3.801468827322505
P 7.2451675384588174 7.108963258398552 3.4162829066912725
P 3.509368912109001 5.077776595684055 1.546704383374474
P 2.005632837709575 5.673406732276397 6.289521786027484
P 2.8243605977644486 7.382070147913867 7.341511376001412
P 4.830961575487707 6.893992761938399 6.330176335203115
P 2.0871433903973493 6.566319448070029 4.272998368401828
P 8.476630186003021 7.9617125854898845 6.1983758781177425
P 4.326015322581527 6.933061945345763 4.161428919057747
P 6.396132041532953 8.575264755484122 6.541485614232904
P 7.34048920924284 9.076612652444213 4.601593252832924
