32
Energy = -162.89688658 eV
P 3.808319755779528 4.656598060657468 4.221012868029302
P 3.4216642703560605 8.511178946460205 5.191515830297888
P 4.925120865552616 5.098613650777506 5.913053938604727
P 8.598676982896105 7.9096399278760146 3.9935524838317593
P 1.7977795612389176 6.3600252717322165 7.566147045489426
P 6.854034373037087 6.641092015035577 4.817181955595245
P 7.38694616385037 8.438968279959381 11.224901836589902
P 6.939439033111302 1.940214489841552 7.938761153658134
P 4.953126315384 2.9269940092123545 3.414196823922731
P 6.882328702221415 6.789901441786336 1.3134029229856188
P 6.48930504766029 3.7405113669603516 10.246756503059501
P 7.203871086320356 4.067826481498635 8.330077180234385
P 3.307012596082239 9.321223449582817 8.8473532529732
P 1.7363713907119631 7.961799549426161 8.918930236328238
P 10.56752030190209 8.165012723684745 9.933491913950446
P 3.6241859062865656 6.818327157939926 6.4973752245873255
P 4.695107788551998 6.1158815936616335 1.7403756167216309
P 9.161276111101456 9.730530873688494 10.531429227254232
P 6.96435006695135 2.8987873663446018 4.291900101924052
P 4.511042590712635 8.717325027913715 7.1010244294745615
P 9.836364686176028 9.532927684415544 8.426991323693773
P 6.604713499849634 1.5287798883542516 5.955313166120172
P 5.6509384400613545 4.0778237203525585 1.6047849748102192
P 8.870026099201436 9.707049094340869 5.2653916777829926
P 8.53484257453339 8.316816894208635 6.99276718250787
P 5.741637819397871 7.490602191098649 3.093354328940327
P 6.9901317770103875 7.102300124698499 9.48042078413545
P 8.005381212950873 4.85814614731769 4.1699925506032836
P 6.266257039446794 5.768474125090762 11.119050299990764
P 10.190334793605901 7.953120925875603 5.539618745251067
P 8.435214984140542 6.486568097135221 11.003783648008561
P 7.749132216778692 4.785787623840868 1.9304271781872853
