32
Energy = -166.78866049 eV
P 10.925634648369195 4.716852595344408 8.754843355953051
P 1.9989114490388398 7.922981309406273 5.45466080283375
P 9.318383909607956 6.2189247786754684 8.351239265398458
P 8.955680532665504 4.564614708662669 9.788257766968814
P 10.008949777842144 4.865393237393608 6.727364089345649
P 6.532430581575877 6.825799605464204 7.116823961825539
P 2.700944439597516 6.837275957656444 7.298384694414874
P 4.653371442342806 7.983733324048848 7.169513322493644
P 8.062084862149977 2.8253033677123867 8.763905955550694
P 10.925634648369195 4.394618553122932 4.072679691509757
P 8.815104483046543 3.0030839177430546 6.674488546200433
P 5.89645181877716 3.343820104294194 8.542767672382968
P 6.946525229602094 3.53609178095079 5.5533573020451765
P 5.668452655030198 4.782533987946458 6.859231349300612
P 7.965364237855078 8.849773353807857 4.448232151453155
P 7.159665714069386 6.815365670455254 4.822011241006098
P 5.835806996754652 1.9546325133592617 6.754047420968132
P 5.167386616360406 6.763002146332157 3.8133831677082166
P 4.195547701805326 8.401385443764651 5.021013774742428
P 4.625852741977976 10.367988548894917 4.3284905332680115
P 6.402704538354608 9.84752623986997 3.1933150303388245
P 5.563476703930405 8.12051013055447 2.112097419963379
P 8.28718786564421 5.920252343867924 2.8590410390353838
P 2.4868447451361724 5.749789613022594 5.366652264898056
P 3.695407070597214 2.3735519715264632 6.097085248832043
P 4.001088859912272 2.979502557195339 3.9908278882138912
P 9.085690175807487 8.000214349804123 2.66498020521723
P 0.4797481259689538 4.920428910965356 5.980031549067959
P 1.9414024288268732 2.2590778157302243 3.6025463073880353
P 7.466165327288228 7.2268056469335775 1.3013002534219402
P 0.4775423393666285 2.7983088225897035 5.262889326556376
P 3.4791684193507955 0.8727921055444388 4.443454992499673
