32
Energy = -162.8519995 eV
P 6.304557284086269 4.262153470545746 9.333398972045197
P 6.714505496408916 5.518970701536479 2.663528470020317
P 8.18285695852926 4.298191481892102 6.49723744695658
P 2.334148918133181 7.390728052611776 4.191153037517925
P 4.487867794368688 8.367128170985918 10.98884175519791
P 9.806552716815874 4.572895450290707 3.486696624320851
P 6.291392859432328 3.7234192712860565 3.868340221389317
P 4.403737493122812 7.990813401316363 9.04628223181412
P 3.1158672306196795 5.206220102723468 8.087904786447206
P 3.406259423307458 7.2778659525331895 2.231561915526218
P 6.086975287262647 3.8824169093631045 7.117008084315009
P 7.747898724964921 7.287061334819827 8.681107784438673
P 9.012125617319276 6.255653717799207 5.556065612945331
P 10.968844135512693 5.577803208317632 5.076058984017288
P 6.448021283838291 7.94521223741232 6.089898773826383
P 4.139818969943859 10.459073392660304 6.42391242383876
P 9.314641890551714 6.033595180644142 11.272764647949536
P 8.341031995055735 5.240421943735857 9.26032779390256
P 8.5962652417111 8.08264140544322 6.762992077134021
P 2.4414335167390004 7.0355099508093 8.78128649613893
P 9.610385295234401 3.989127620522653 8.080371284960869
P 5.2922233101948235 5.784017581420713 8.064510211391394
P 8.274456055878808 3.1705864524003733 4.578763831094597
P 6.231745204382439 8.953888158136484 4.119072982237967
P 2.654648342610682 5.426751784806585 3.254863197833973
P 10.90847300786839 7.124440065781542 10.371346851012687
P 4.457553942747834 10.250061046033972 4.397206898793229
P 9.01458360604213 8.103867018791886 10.498245684105825
P 8.615312844279657 6.442008038190577 3.3741627864200057
P 3.993292246146932 6.042817566311903 4.976548106575651
P 5.275076715919237 7.030669536213984 3.4368767176961117
P 5.651147234994002 9.397690438685636 7.5553639521582525
