32
Energy = -162.45917735 eV
P 6.207095149504271 5.3288126747105755 2.2200894973629923
P 2.938780410483296 9.914004973050407 8.819766211680465
P 9.572936311432994 7.051568903122124 1.279414392285637
P 3.113276650973646 6.257795692066535 3.7211547066808315
P 5.0895020106303726 8.726244095885525 11.84027400258119
P 4.374573318156247 5.377663812989849 8.8947081089934
P 1.915485688616582 8.070649710059087 3.3092436064804107
P 5.025695859198281 1.309813352805542 5.589266425705393
P 7.0064283922357085 0.9055643679429002 4.966638565497897
P 5.993600397544303 3.6204913109325605 3.6454977141824507
P 8.185175667042563 8.117451263419898 2.4700082462231214
P 5.0212989572281685 7.450870468534778 8.345948914771363
P 11.494755434558753 9.509027723711782 7.882625765788577
P 5.056391827248195 5.247117122133254 11.00245320878541
P 9.930327433650145 9.081693450454278 6.672101848844157
P 4.77623225473017 6.925340844812166 5.0509776172963505
P 6.285734870661717 6.968456087942999 11.66632203965339
P 8.120925682899545 6.039400965206802 3.121285585455512
P 9.642763849572344 5.044749235434388 1.922824216532219
P 7.7689530541042675 6.032070542330334 9.156464214122495
P 4.992148940191474 7.116432323333018 2.8639280934060305
P 2.639614602338829 9.671339446703868 4.351382362014942
P 9.203717430188634 5.028372780303075 7.737281643286775
P 7.69131012532977 2.402231710535945 3.6561692725410992
P 9.754648017031322 8.425464592434798 8.792760283927263
P 10.736755196217715 6.402503819414087 8.588972065443677
P 4.289263039952601 3.0904402573339715 4.745168278116998
P 4.3085757692935065 8.767842300153651 9.902622156847924
P 6.301966840383665 4.341668795080604 9.383244520466045
P 3.1294180970939602 8.233563821082319 7.373506834862474
P 9.599510902220077 5.01212877065988 9.912855058557618
P 4.329670907713213 9.02575787384567 5.6115776300328895
