32
Energy = -166.43113467 eV
P 10.698810825962706 2.492729800838131 5.991124562022942
P 9.963499201539472 4.582044206718122 6.446059112275769
P 8.282302123830291 3.914617074428142 7.693464659471957
P 9.93424343529405 2.680512189731737 3.8534085981838317
P 9.39507894352914 4.827786615570639 4.269033672956393
P 8.822571272052622 1.4910466117907448 5.371272014242518
P 7.268369912437907 5.8929951783051315 7.598418281285714
P 7.417153631819927 8.147472288850121 5.2033987738332605
P 7.227496157356484 2.923617568109027 6.021025435321767
P 7.83373197968622 8.15899023033688 3.01230240837135
P 6.3040114027728755 6.191159068644461 5.536735786451967
P 7.189491771185101 4.788392660541539 3.947701179185757
P 5.459858497208312 5.549698244777199 8.891198820085082
P 6.196668725573258 9.440029397866613 3.800453134540099
P 6.893096562453149 6.295055065603068 2.2443333464401305
P 4.48472421333849 7.271691313703939 7.901096182402527
P 4.365480391725041 2.12771719926458 8.190585766449567
P 4.840489011119495 6.358827088148936 3.1037294360355006
P 4.287933677206756 9.404511194617529 8.549374428698867
P 2.3079608261760103 6.94636504976557 7.904520249421924
P 5.841020292442042 1.3121031928659206 6.760079209777294
P 3.9263895282422974 4.303850419292216 7.838985022051119
P 4.252415843307303 8.5129841725336 3.2038976990039547
P 4.344526051825928 4.169977023897347 5.653053668686758
P 2.1102393924419003 9.235959786057576 8.056809944485511
P 3.9493484100222886 8.028267513480882 5.403225538374441
P 3.845093501641968 1.9284957856957798 5.998924062150916
P 3.3506690386107967 5.671938997617107 1.6428235214227127
P 3.5018975273181274 9.958859461173917 6.467214180598801
P 2.2458139545251536 4.892254597233423 5.1238624924099945
P 1.967612580434296 7.0186775932566 5.671493099279521
P 1.8447857338401428 5.060059322057272 2.922202928415693
