32
Energy = -167.2262225 eV
P 11.052411850454966 3.2490462767092487 6.534965524618472
P 2.416579548063738 6.5383601173790336 9.035359477754664
P 9.870955081779579 5.1753919177446965 6.1011896073547875
P 9.205412525492392 2.3512353889573117 7.491073513470356
P 10.388517043231113 3.7449629527027426 4.498697718829788
P 8.202019334707341 4.360019846826551 7.373222043753926
P 3.831835966654013 5.24211788107558 7.924397861025206
P 4.5165906723275455 7.208325696323313 8.679485724569632
P 8.373630662778544 1.1647995841396157 5.818312054504054
P 11.052411850454966 5.379688925886847 5.393734280057387
P 8.721599372993557 2.381480143266311 3.949538061196487
P 6.24580277951413 1.7077276710982952 6.253031372260415
P 6.981893687759113 3.785499280475289 3.9637133830325983
P 6.417609495702334 3.9386862068373514 6.102091235657864
P 7.978954836733961 9.0774185263416 6.774946561794098
P 7.087537743076953 7.431103110916917 5.598906447542236
P 5.6703886227731175 1.9448146206341188 4.073099774083814
P 5.049353260617409 8.166747543584911 5.164067206067466
P 4.373190474678082 8.86280192601741 7.144428721820119
P 6.228618555960236 9.868741600074667 7.909549066582633
P 6.934181959519225 10.927521387639617 6.089331443489265
P 5.466670359207008 10.237099854089795 4.5560403672941145
P 7.866383671321748 7.808131806675213 3.4925153669326874
P 2.236321368356054 6.342212468651517 6.81487881863085
P 3.6029743827591774 2.8018978469077425 4.431582580546463
P 3.8404463354698883 4.889892203223621 3.7258870356252736
P 8.797052824574497 9.76010885801783 3.763032882643663
P 0.6933195434236452 4.681593489580655 6.869439877928337
P 1.668495761942396 4.863704171562455 3.2485107993453615
P 6.829136809999058 9.672147086821965 2.827315958302693
P 0.5686851145323996 3.7159355805096195 4.867332582148881
P 3.0526673221107288 3.356682081231885 2.338848719008938
