33
Energy = -171.60895257 eV
P 8.482674168866424 7.204232741559233 9.955285953632858
P 10.014511505579122 7.019279351901582 8.541904030852521
P 7.171256963056046 7.98742996474647 8.385892013116528
P 9.520568912576891 7.902878220379226 5.23611537662755
P 8.513453118797301 6.878752354132668 6.975643809279088
P 8.113258741247556 2.503608975921335 7.067288249236949
P 7.016942257611637 3.7119202900583157 8.635901259928435
P 6.617405439052636 1.8881353334675626 3.8796591322913456
P 8.417228640826654 3.1302965664971203 3.606198835981471
P 9.056315826497466 3.8869671422490533 5.582884686107275
P 8.004194543650955 8.491125862384695 3.7073675571944382
P 5.378351419262012 6.706465533175751 8.76710281478336
P 9.004723850568706 6.490297203442386 3.5576142140664957
P 5.872313231991791 5.084530949335242 7.312861296294502
P 6.574916402995082 1.3385935360459171 5.964564151891417
P 7.513668064061938 5.030022153291141 4.448785920267941
P 4.831207393375764 3.3756282037893652 8.332351095042746
P 6.150183062657874 7.991777166829045 4.83915528332834
P 5.703357566061631 9.79067886326178 6.019014581891245
P 4.496015696856383 1.8851871986805024 6.6855504586482555
P 4.02889089727193 3.3196138524731285 5.008091524866683
P 4.578002521174629 8.147261416500461 3.293410429610424
P 3.7413128672927285 6.306966949934616 5.7517502533510125
P 3.4715328742875204 7.3509460590961 7.680490541167334
P 4.667579085351083 11.277416205212614 4.719173305293595
P 2.889875274346122 2.0111694429020286 3.6325983704461877
P 3.5987770734786846 9.329307922811662 6.498910249290591
P 4.060638598890359 10.290510473348114 3.023903453203164
P 2.0181229060380885 3.6179369788584435 2.3649293251813206
P 2.860636105382252 8.103465930145951 4.690887740652206
P 2.358742622288541 4.519805991903203 5.8968808014968195
P 1.0713044115980215 4.667641721258471 4.111238272115854
P 0.7078502439306253 2.5019464360651322 3.7591629384710754
