33
Energy = -168.00569601 eV
P 3.861594849759401 9.614871530331829 4.920674810701337
P 5.512890201983997 2.592091729178257 4.9677307025266435
P 4.733905192872154 6.395737871803036 10.306093907357115
P 7.712195076375037 2.6209243274361516 4.627404092192765
P 7.556620671446466 9.038446722607235 6.012211481296348
P 3.3361014246519876 7.042575332732401 6.673236813717494
P 9.741815520360214 9.095931260743338 6.3957110698923625
P 1.8229985717382609 8.452332618002966 7.159158171047809
P 7.828189869155467 7.5170243795987615 9.300159059400958
P 7.601235932725434 3.3226309049617426 9.828191020973684
P 3.2962975106226793 5.712353739714136 8.95438672994007
P 8.520878273520795 3.063892062955667 6.698036948541335
P 9.437365746652393 8.903483152078957 8.599870795746801
P 4.352889272634199 10.92579974763959 3.2653299136867995
P 8.448173931866409 10.550219814937254 7.45857245696692
P 6.623935320280182 0.8315396079447902 5.31135042016
P 9.265848107462089 7.312801010527064 3.357908232333237
P 6.9406648318412225 2.311406036087373 8.002597979411721
P 6.193076036734604 5.028685239078051 9.307369653879313
P 4.832305163899542 4.298817166786545 6.212789525388973
P 2.0866946202999737 10.125856897980661 5.928632948369374
P 9.458500252961791 4.451185741675129 9.359601074989602
P 7.109630947176215 6.253889058607142 7.630104186349061
P 2.985825420680655 4.086795831572417 5.032143192649568
P 7.8687070785227515 10.438320488597448 4.2924791801456
P 3.840788962217258 2.8438877520486634 3.591230545671969
P 6.373667045766391 10.915871114796687 2.827520846389004
P 8.742427252195116 6.100292886060638 10.653604002745805
P 4.521452485730457 3.8663511476099752 8.369329199421804
P 4.715048317219317 7.716010804116837 5.215611852200992
P 9.005975958272057 5.148862943768083 7.298719233680718
P 10.836453157389599 8.460059996536938 4.087483418084206
P 9.302767009758771 9.427971096256297 2.821676548913476
