33
Energy = -171.79804299 eV
P 11.09026819317246 4.227375456970217 5.1221319021383
P 10.018743239477216 6.211496860857594 5.095813562856332
P 9.486213935183194 2.799786093443612 4.691338311900594
P 8.813606377189764 5.940186605553174 3.244977701248854
P 10.293241644200817 2.9387872384490614 6.76146105454368
P 8.001944867702797 8.016158983176139 2.9641471741835463
P 8.579701206872983 5.839949583416424 6.718139079727704
P 6.791030853544628 5.2485497696713574 3.9577486555978747
P 7.3549123479267795 8.479489385935722 5.053862958160979
P 8.19484673691852 3.6147107681465234 6.474142816672276
P 7.069751320978947 3.262818487843781 8.680383593512921
P 6.662256559907687 6.512982400263601 5.8154159038149436
P 6.249103470065697 6.704220731537554 2.329962156471015
P 5.993664587359511 10.011434490847689 7.546251480043098
P 6.164973962506118 4.954331064548073 9.803595345902027
P 6.637803397790882 1.5284441606280608 6.02082143331141
P 4.963199598636102 11.578824342967273 6.760121871008872
P 5.458579973863349 1.8125393019459444 4.304106589321344
P 5.4680675832949355 9.339478949212705 4.291717097355013
P 4.417206934494242 7.754753410510392 3.103401299475154
P 5.37633592180193 2.2620608875485924 7.697024439957413
P 4.758892144448556 6.458150546788315 8.868209488869423
P 4.294578711888169 9.528644709097005 6.2165780165973485
P 4.8375193929407985 4.030348603011904 6.4904120158887135
P 3.6767513717097593 6.247415737733239 4.637220606785903
P 3.953603669729393 4.735344305678269 9.986860579680592
P 3.635295304614278 2.8575883584500823 5.0303924104621665
P 3.378680080552618 5.057908394370037 7.812954389616898
P 3.4241222893513603 4.424470136650076 3.395192074664629
P 1.6297016353518892 7.083692040930647 4.781538553010508
P 0.3227309045640008 5.316466660861149 5.007605843188225
P 1.2178593890771245 4.259264379088459 3.2541688122904624
P 0.46604405693908035 6.325701333335914 3.0265864567322582
