33
Energy = -168.6379242 eV
P 9.562426798281265 6.606322822438851 4.435734052255285
P 2.8125255596064633 7.839595151811741 3.957056345741633
P 2.560021489466228 5.60103261075608 8.407821046232804
P 4.509726844332406 7.419279798423191 2.5571004554461014
P 8.631292005207719 2.664252814022004 7.859807530389948
P 9.319541532986166 4.217908837144826 6.455179106246857
P 3.2648527400723073 5.151110362320598 6.322610620115715
P 3.8109968247491697 7.05363457840911 7.253344418693471
P 6.820303847822991 8.815370210946407 10.561584606469516
P 8.441604801974265 10.357770690317148 11.072392070672146
P 6.250823390826187 3.0575011515246477 2.1822717183017497
P 9.579690881447295 9.045549091882748 9.684597152693193
P 7.694214023573576 8.705685044664476 8.473877021730589
P 4.329076543028345 4.916004156780499 9.609408671577814
P 7.165871061424361 3.4388097155660895 9.378923952727602
P 7.17751828746436 3.3140549917442605 4.195598347230403
P 5.291500332332251 3.6992165835023734 8.250165030153601
P 5.034893265389046 9.638744930338806 2.786052964437831
P 6.830223249992388 5.09285256062066 1.4803671261060234
P 8.153649767295184 7.8982143928801944 3.4290996355314984
P 8.287084762856725 5.384676168159742 9.599926670831872
P 10.02592392331482 4.338220486997919 8.517864430082632
P 4.9489152628794635 8.591075511508786 11.280654572853948
P 5.788842959102833 9.992603402556073 4.820044349415108
P 7.286929579431394 6.589174295842224 8.088979593075255
P 8.724399933787147 8.220001534274957 11.578619743902319
P 7.457871742904723 8.587281427688467 5.363192086552003
P 8.085805679409782 6.136627534072473 5.98878891749613
P 8.365892593355085 3.753130087312045 2.3608080891906216
P 6.285291033171344 5.1853834567342005 5.009161483044094
P 3.5904125258313457 9.842085866232667 4.524290229054365
P 2.0477653443998864 6.988126171987251 5.896747022394941
P 6.444433563405215 6.4390257116618566 3.198253090475326
