33
Energy = -172.36238201 eV
P 5.798417445277027 1.670448143931247 8.39304508524195
P 6.0194371378230205 3.8758775003487598 8.0736321916928
P 8.238152736823093 3.8582560453794468 7.690579524364922
P 3.03399598297054 3.045874869880964 7.586323964364207
P 3.781092268271282 1.923454156250041 9.39069432761105
P 8.602712892939453 5.9509279331891785 6.91357222686372
P 7.230022249246236 2.026394679016245 3.5817526986582533
P 6.461647197732678 6.429758698439281 6.434597766371912
P 6.0918109011461405 7.976945599639738 7.961798539206841
P 5.003592339407032 2.6516541851124513 6.537424835506111
P 4.460291156668546 9.155563508979846 7.035250203779907
P 2.977066248416908 10.34773830970447 9.078377145943806
P 8.909179866674084 4.170932092116395 5.601134368132582
P 1.7641000524033992 1.5710260951976303 6.5691812423175024
P 6.751342184307867 2.5544969274329423 1.463019560410647
P 8.555237625508722 3.389281195237248 2.451354627757016
P 6.520002634367444 9.980982094739764 7.0645125064756575
P 7.228250770360524 4.182931572578081 4.086952993620391
P 5.57940653884977 9.473363873813717 5.118816404034136
P 6.625921945841174 7.618493420933389 4.559375453932025
P 0.9650691082477657 0.2900061052705855 8.210310698617272
P 5.128389984385135 4.0770818655881715 1.0998461160925224
P 3.6187974893698227 3.656554770533474 2.603599176709459
P 2.595853668739393 9.980982094739764 6.915843230293462
P 4.998952419432968 6.385054022359226 3.594645636284336
P 5.905171029793929 6.1207773702586 1.597360814913695
P 1.9949085737627552 4.850785281002946 1.7024698615816574
P 3.4755627843773693 7.862936023044398 2.7714572839857263
P 2.8044812240913175 5.868754164121475 10.373174612005103
P 1.7256503803718075 6.550197443731728 3.090265157577641
P 4.211062120551058 7.400140139921503 0.6932908046333498
P 1.4322466486917638 7.605299843185748 10.268921298690639
P 0.7570913957814999 8.008676027008585 1.7350264403909297
