33
Energy = -171.72241774 eV
P 6.871535898138763 7.941972574622841 3.5375185486342713
P 8.627857363979325 6.49985545456481 3.4965818212072133
P 7.546215637208468 8.06926700193013 9.517765485548008
P 9.334147339774264 6.010464188147542 5.529717270935773
P 5.697676185391847 7.0328350560965704 10.414200078527811
P 8.383117596986361 6.041459546269118 8.9258149897272
P 6.234913895925281 7.874595675821266 1.3966815018976528
P 6.805882028201832 5.69612763135126 0.8858938159297413
P 5.617676906105762 8.132813476788598 8.48049471524569
P 8.71409474038014 4.369647359370675 4.086734597724197
P 4.91030988522324 7.081752892007496 2.970268519690972
P 7.613997237179523 5.633673822555392 6.939223094937328
P 5.805351613030608 6.834164866543631 6.680154740430994
P 6.695131295379784 5.057184963423111 10.064139376741892
P 3.575010616052609 8.91900882184629 3.0602473428502073
P 6.660640716852247 3.920127032114403 4.962238245528912
P 5.146341554823085 4.692417070033178 1.9758708895896306
P 7.591135258616355 2.7554921990092414 6.624771645244405
P 2.7118587340216846 8.988561369362587 5.113177543539976
P 4.993618145613886 4.971262967106357 10.414200078527811
P 1.5923177799496537 8.002065067596881 3.4886783392745575
P 2.7242978903384696 6.773384171980883 4.97927795266224
P 4.23923789516553 5.360287973481623 7.359732996119825
P 5.044073671139903 4.063816056390602 8.996031582160578
P 5.918138482524574 2.280887661996026 8.003086727622275
P 6.461627234788756 1.985617786862335 3.7861665861372313
P 7.27420165551154 0.7703809213319088 5.500874072291105
P 3.7160709163638193 3.970414148576519 5.745100738556598
P 1.9522645543859456 5.56094320998575 8.210614304905011
P 0.9923918505274922 6.1503337036742725 6.328394565620777
P 4.141107055370998 1.9738793716453635 6.723008338950039
P 5.083314397413786 0.7986925240827348 5.073408273017497
P 1.5403807707825328 4.033519481016542 6.677395736535206
