34
Energy = -176.88604227 eV
P 10.0275598324964 5.07657854192295 2.3833681785696426
P 9.796705694725434 7.144341411218461 1.6336689288825643
P 8.784386766719875 5.3589881780487785 0.6136455784094486
P 9.125797037490265 9.301009983976467 5.161618515997789
P 9.493233291961566 5.235840450597289 5.751092644455733
P 8.679327359364049 4.22419493276744 3.9124724316353294
P 9.124943724946524 3.8198875777838808 7.389708726351602
P 7.751070942832506 7.995371236792381 2.0955521155026
P 8.155098697491807 8.624905810408194 7.031912165797636
P 7.805403924793552 7.718136792990562 4.301463202551066
P 6.794901291538783 6.03698853295085 1.5509644020952849
P 6.924604031803062 9.466128098129861 5.365917898595469
P 8.576792220681535 5.465155591396829 8.605101431940506
P 7.87350719427243 6.365180090250964 6.72162091269059
P 6.64860272321258 5.073627261759657 3.536286346968982
P 5.437178718997936 3.2890211176380784 2.7459118029129828
P 4.680364324905733 2.018994785946011 4.3469291285948835
P 3.7452652514183224 4.703534409885549 2.359862833789662
P 6.060426939016469 4.2560274055264244 8.898066404618831
P 4.204947311907164 4.7112693482319745 5.9933306696272375
P 6.18699986660705 3.770580981437927 6.6619327652822955
P 6.405952201192076 2.1295166235424694 9.351758181907991
P 3.6280508099480073 5.9720817260839905 4.169348117058044
P 3.650241238821863 6.173021335626093 7.647691389158824
P 3.003307749964183 2.963783964110945 5.331934236400977
P 2.0925560543502666 4.34451269489014 3.7499788362450124
P 5.2306838881190165 1.855967548762139 7.392476830157212
P 3.0730628002416096 8.001608008388265 6.572650677715103
P 1.7375278181639737 5.297391539140596 8.278533954116005
P 4.32029757075575 2.767745915855819 9.211325385119082
P 1.6032607364799654 8.858676991192342 7.958388380028474
P 0.66841833701404 7.036654725553798 9.051681230032285
P 0.9711909722722444 7.944302395946312 5.993863451346198
P 0.10695811219634192 6.118483697906723 7.061240629767357
