34
Energy = -172.53810092 eV
P 6.544129498303216 3.1454034967239735 1.936102994837326
P 1.5933695154900027 4.763668437200004 5.843224839140627
P 7.224595847404337 4.848395884145341 9.221036942720932
P 5.707018348668688 10.211682015253453 5.870142311959761
P 5.606718368885924 10.089216781127952 8.113315746935077
P 3.65540207221457 4.580468597772063 6.226351100094438
P 9.796866316156628 2.9874840697436795 3.1802728983109123
P 2.8385986440089024 3.296855320711826 2.9248812514001696
P 7.919670498928992 5.2246688622965864 11.339321779108761
P 9.012276630658913 5.049032528682538 3.245569634952728
P 8.307543825185741 1.8514961078742198 2.333767155736734
P 9.22263427799387 8.876575226074328 3.0513030102051277
P 6.071888955423227 6.59336707719554 8.740571642028353
P 8.966322122023588 11.579476415664217 5.5444632216792495
P 8.959168561392044 9.419438627114298 5.144478516762371
P 7.385437227429941 4.932930184668674 4.795304006504235
P 3.9249623286391375 8.373612913634881 10.463773022927688
P 3.733882793574673 6.659581852592816 9.090188727441905
P 10.512714570691463 8.120879363888148 4.638229437329363
P 7.042506218258494 11.99056993750095 6.0786089539191535
P 6.908203367279698 8.234352134348354 3.2345234140833496
P 6.3332724671143925 3.03074917961322 4.181354975366906
P 1.1245672496188146 3.9933230251828102 3.930968553682078
P 4.248210225802374 3.801889174066054 4.380074839087959
P 7.4947251128927475 5.140148107699976 1.6302809375166363
P 3.7572717832692137 8.936243097885113 8.338375877544532
P 6.292747199675446 7.958485081317018 10.512769507054413
P 7.17186179564388 8.507962107037681 8.527722049313722
P 3.8362124575979504 4.779062230287014 10.447861624208931
P 5.467835005543966 3.634061488733967 10.122358542288861
P 8.920946988686742 3.7699573567444506 12.181996456857787
P 6.235863239838071 6.11466556861024 3.2357498908675737
P 7.350562139010759 7.161670823135821 12.144388159347853
P 6.925888218034883 8.436500796813236 5.444541850125087
