34
Energy = -176.84040804 eV
P 10.659940669696187 3.5022151172565845 5.742630975182696
P 10.083737968567174 8.693036466516249 4.8799010391190505
P 9.28304186442161 7.127971923579632 3.6167415974526285
P 10.605904445939506 5.484505627141952 6.626782049288524
P 8.799615084467082 5.568744900574781 8.233926662552435
P 8.512842137227619 3.5605893962109953 5.3421569661693455
P 8.817979073711127 8.777465477078351 6.676251994735522
P 7.842460494429576 3.665839327800411 7.547020872019523
P 7.165596671262761 7.85267184266586 3.422443215818333
P 7.621443529775238 6.909957671427413 6.849176268965004
P 8.848169211146772 5.785897658074815 5.3612853136114635
P 7.146468846455958 10.083319681963383 5.806071671423922
P 7.50355324934788 10.022174385920291 3.6015384072622734
P 3.6829479172988804 3.682165951340709 2.175676112340201
P 5.742510430255212 4.295431203122637 7.049057798478709
P 4.861966058385306 3.4792693495496017 4.102808172433604
P 3.5572814154990593 1.8159726012929982 3.314434247443538
P 4.848151360402825 5.709685691157248 8.50108165561261
P 4.514567083239531 4.54012129977665 10.374732556190349
P 5.966666934769928 7.539721751839102 1.54770403695434
P 1.874774838180855 3.3087814492030607 3.4247308560549214
P 4.442247973228305 2.3699175996163233 9.72905199794601
P 4.5978812268146845 2.4592558967214293 7.5103160920372165
P 5.277640358506252 10.404982165434784 3.7136584719725825
P 5.491330699808605 7.14997984801176 4.7621724024581535
P 2.9901968057865895 4.230194632811038 5.133940375626744
P 4.179682892448319 7.127727573846743 2.8981960158906412
P 4.485241130913326 9.13355612868129 2.024386678422108
P 2.7643748068424294 5.450552738796022 7.81124427059259
P 2.2699283404933803 4.604599378584481 10.312809182782306
P 2.1943348072237447 2.542734157424257 9.830761456848888
P 5.070708034804413 9.185118672366881 5.579751373882962
P 2.577646692133338 3.3043426827413658 7.1625729040938175
P 2.605237801843595 6.229949993273223 5.700860240220786
