34
Energy = -176.64019309 eV
P 6.225840167284057 10.40393433906023 7.977944934709808
P 6.89897974984073 5.95692976441126 8.93894442839552
P 8.127335303664747 9.29857716117344 8.28523132389534
P 8.33108560316625 4.513901121919877 7.923294841156451
P 7.94748814953014 10.716294793424593 6.571703281256943
P 9.421585891628038 4.301409592142793 4.669737994996121
P 7.255073721292061 7.4680272432138874 7.308408189760162
P 4.899645549756585 5.346737261536171 8.194567114962572
P 4.317216641695408 3.8103753008607235 9.647802787634573
P 8.483859249880513 2.45097435153285 5.436835475001327
P 6.920842063188294 3.0173160063657405 6.993396929418159
P 5.427342885434972 8.673918111851762 6.6236273985986704
P 6.468847262607231 9.861121365243429 5.079029639626295
P 8.23162593962064 5.742091041188698 6.010649255569729
P 9.105929054021482 7.515797773231993 4.885212108123223
P 7.69214196345911 4.901039935597172 3.376169211916174
P 5.293045612895632 4.410103472851824 6.239228792488718
P 3.531599627497893 3.0427560169340633 6.369530649567949
P 8.548847590743843 6.925351465908533 2.7751893672693675
P 7.0427172570817635 7.784166534084941 4.298765725132252
P 1.378035665985191 7.816972775153359 5.426557545699612
P 1.9492071944459586 4.675817211240978 6.4549851932425515
P 2.567375881174082 6.033861803205548 4.802067610310645
P 7.744904489182888 1.6782245899423345 3.4168301486980073
P 9.78894134990874 7.098560162723444 6.3581522121341605
P 3.252496908454127 2.4810775371245866 8.530644937191331
P 8.16216791661146 3.301331999680322 1.8842143941458698
P 4.667751201468802 3.3403531935782738 2.462456333677119
P 5.542310970830915 1.5933465058935035 3.5192006424838294
P 1.0496056324151994 4.501632257347289 4.417608225720233
P 6.21048767397919 3.3204097671038046 0.8460432153826907
P 9.802606050682725 7.689544953492782 4.221111347897437
P 9.42158589162804 5.5681091335610615 4.790815474346773
P 5.080577072701953 1.4571220879802484 1.3515223649436803
