34
Energy = -175.86195025 eV
P 9.247938162799237 6.882950445959683 5.2435718130478906
P 9.53523864104206 4.659609455484149 5.027315061587314
P 8.548310280060818 1.8687191218925079 5.735911212776305
P 6.000042030814978 3.0528034656779184 1.6507107655295634
P 8.48269432345394 7.152329740195432 3.1293013393929225
P 6.771526819068616 4.979545504604239 1.0275998559499193
P 7.6908686155064165 3.930945934055261 5.866536418009502
P 7.129692427206393 0.7142105224620177 4.543394386234652
P 8.657042506259522 4.950974679905137 2.657013256962553
P 7.718160703374085 12.108634335476498 6.614228730676725
P 6.878738673227057 9.104847837842927 5.323624588670613
P 7.080908609415511 6.9399184557340705 4.8320136380262095
P 5.148871703272387 4.908227646441253 2.5161974097877056
P 6.884566857441312 3.9999246302793146 3.585106203576666
P 6.117293137838098 6.716246992707043 7.74559894110238
P 5.000273895408395 1.3123766307564007 5.312181123743455
P 6.104554484380239 8.952503499653238 7.376971396238644
P 3.8762466441171997 9.134750707460539 6.620745685583603
P 4.64212059963998 9.096598977473302 4.552671536268171
P 5.500407478712825 11.770995636944319 6.640838858636432
P 2.7812880970140252 10.014173226126834 1.987387031054075
P 2.5815151997224564 8.372374592374843 3.4530603598261216
P 2.4740908332761435 11.770995636944319 2.9916734506468403
P 5.642866128923892 6.729618517392223 9.92188273047385
P 1.5363439377883659 9.074674344835067 5.152949579224228
P 4.017903802544094 6.405120734013922 8.44524699243501
P 6.021043934782453 3.2039919250285496 8.470150577324613
P 4.676117481704156 3.0602400129290603 6.655286124435277
P 4.221527334686232 11.05134692301067 5.494644388040029
P 2.001162097653391 11.231843016695422 5.083142119440626
P 4.752769084055704 4.701975464835679 9.652680872412159
P 4.234884439888308 0.021139505189508318 8.429248755608802
P 4.544628719655844 1.867916243827035 9.589502006007754
P 3.1165498309446145 1.8445178703904501 7.826711684254217
