34
Energy = -172.37607566 eV
P 7.429686728911847 7.212906762168865 5.240771545910717
P 9.144239223109686 5.921352690752517 2.162335923508882
P 6.9603951169584715 8.196010078889337 1.5497235209287947
P 6.742743538724688 4.019646259179879 6.01628381339001
P 6.115506534935621 11.29564269255038 8.453926905913965
P 8.645379276547356 5.6728176285829095 8.50427216836584
P 5.257676891579939 4.96645709834247 9.72670851502745
P 8.123605871811176 7.376328231691997 11.097687840409863
P 2.027514839115765 5.556273710401444 7.486244498602412
P 9.498897430275088 7.973332828755432 5.017695431347068
P 5.96928609209574 7.288368164005182 10.032047165739428
P 8.939539613790192 4.594347948349883 6.56558929589787
P 4.669183729671012 10.754638097170995 6.861239696970252
P 9.215746175855777 8.05255283075787 1.5603410513294862
P 10.688248680301012 4.596250470807734 5.354131310656736
P 2.3120056919245315 4.189372055679884 5.971466479764524
P 4.289810792255249 3.5008795970523057 5.400780631863146
P 3.9703750070473753 7.956091271318829 8.890572564489862
P 6.957997220013613 1.785203492282822 5.893196894185378
P 3.3032743627002197 5.833002644854283 9.232334008014274
P 6.839632176814718 6.0055138147255525 2.1282753305298074
P 6.716400611458292 2.764371738565457 7.852382972361739
P 6.0405942728106 9.582671336530607 9.919717736426806
P 6.452414523916392 6.14737520328898 8.219143420974413
P 6.836216332597014 8.472157445389298 6.944726232637894
P 4.613616860092221 8.478209267449158 6.778701693443801
P 4.789329737331973 1.8267463825600185 6.5951617152759505
P 8.17337124841345 9.375695049757953 10.946930684846095
P 8.945830113906293 3.4548236572145794 8.40834449223785
P 9.43279205041032 9.346935507949937 3.3285529967965144
P 6.8885876086422 10.709970561834472 6.467337535799081
P 10.38675634632477 6.230378190192569 3.9721286024987816
P 3.8283248911679415 9.602885991768341 10.228464209381801
P 6.106181828883859 7.571952719571322 3.5039445348675446
