34
Energy = -177.05604882 eV
P 6.5245232820230985 2.305061781852453 2.3569422868748777
P 5.43717566095284 2.3787894671363063 0.37326699530535284
P 4.478848776784956 2.4404673415947022 6.056238310390424
P 4.4333135811555415 2.9372458360142333 2.22991724488775
P 9.003353147663036 1.9248600768673194 6.654527761360983
P 2.9069307538554043 1.8319700985760505 7.520956076102784
P 7.742676769507674 4.149459441601177 1.7621080172029981
P 5.843968753068663 2.6748754214815382 7.866619026868316
P 4.116402687628891 2.1851190070902615 9.163046821423059
P 6.6688317872973695 4.224194792640157 9.74625453021375
P 3.638701129556591 4.434996054658864 5.611117022557028
P 9.718690460650343 2.888886284768927 8.600286106715693
P 5.320956773602199 5.205089347080328 4.312635596390587
P 4.353445937428587 5.140710307384647 2.2767515512264396
P 8.132553373240688 3.5478533445952873 5.474444662765097
P 6.118837935380356 4.814582400351046 8.20971234265209
P 6.263702171802978 5.705417884977031 1.3212584594304817
P 9.28089941041315 5.029058316130751 8.377663348253114
P 11.066159830487699 4.2541012347933975 7.403197770390592
P 5.44984033958957 7.336294920649803 4.9385100806701505
P 7.798874499854213 5.3071751929953415 6.779193366898169
P 10.305414743477998 3.3117190538034524 5.43089682342895
P 2.169837773470317 7.719024976195114 5.656748385022489
P 2.452674213104656 9.12959822689993 4.009524021332261
P 4.092126226200307 5.434078334026122 7.531342590898223
P 4.087193945685368 7.5720065620186645 6.826182843629803
P 4.472762562715804 8.485266589146082 3.281857798070801
P 1.0906192507403383 8.892984570585275 7.194810941985016
P 2.57437561344855 8.22848022835712 8.732645805253748
P 4.179826438140089 10.49481228275078 4.258450420378045
P 2.4486016987847137 10.321346633687748 8.262287355193335
P 5.806246644055679 9.045000900426126 7.509568531923065
P 5.663338851869154 10.611874440851558 5.961488939972377
P 4.708253525661734 10.86672916185679 7.96692532209781
