34
Energy = -176.07802244 eV
P 6.551101742669642 7.535104837869428 4.175243731687503
P 10.88750927684779 10.759891005897538 2.0895699939322645
P 11.577036976263296 8.641948478269349 2.360597822106139
P 5.583756532875577 4.490492774547376 2.968522890194686
P 7.049825302806653 4.131253268272055 4.644052323456322
P 8.868506818048534 8.362183673432478 7.454251448369496
P 6.937686252020919 2.7168016561980894 9.490462662847882
P 3.815608739065505 9.477591620016183 7.1908052412515815
P 6.763493125499949 6.316120481508562 2.304859577108794
P 11.101719117122569 9.646946642639811 0.4167576430231224
P 3.8452702608782654 7.861894483246369 2.1662652314753528
P 6.669820598809276 5.993399234312176 5.7906725911936325
P 4.791118153497748 5.6298695858916386 11.780557186673855
P 7.415517826941529 3.3985605446218425 11.542820928062048
P 8.79853996090835 5.2781922089113875 8.51259026913157
P 10.118749639989742 5.94012699834819 3.600638190465563
P 8.757111692394805 6.291028392973435 6.5522424840212015
P 5.656919033350761 4.37106895472171 8.652007091445997
P 8.336153536565122 4.856771885581071 2.9670792704194273
P 2.958378970075559 7.037717252933207 9.320252560432191
P 3.6022536249372847 7.250865958898024 7.118594632130426
P 9.834115517137912 7.22867611338593 9.150994454511032
P 9.58249320076939 7.700909754867147 2.6467653507031907
P 3.7900331654062933 5.27950724082723 3.992051968480242
P 4.339743772972033 7.451429072429148 4.289304995411468
P 1.8501800278433196 8.608574911626867 6.767929562666361
P 5.4560602794622906 2.4151204876829837 11.196938275913384
P 4.867875765204559 7.350607596345955 10.39047938789167
P 7.018956730551562 5.584569698043967 11.608132309624882
P 2.3586234414640717 9.17018637935561 8.885790809027624
P 6.845963483079913 6.1496773110181895 9.463576625211354
P 4.214260231938285 4.071275778582803 10.320775469800472
P 3.0700228912449745 5.945219600286242 1.9738901608370505
P 7.886234462876443 8.257056267975845 9.415167012011093
