34
Energy = -177.501233 eV
P 6.888303930844757 4.140830296332135 9.44427519027387
P 8.173684688753347 2.91920150287372 8.065390551923635
P 6.322257143408605 1.877699429889291 7.440002248064696
P 8.12013187920027 5.950784732952772 9.942276293133336
P 6.645966898344605 7.595685641532965 9.597443399460817
P 7.982137562384357 1.6827682547933807 4.188884770367416
P 8.828592509328615 4.475881197142989 6.583398120347355
P 5.587079227292672 4.856930655769903 7.822597106844415
P 4.752257921102311 6.516948481963119 8.999966401614445
P 9.19533817956469 3.489169967398282 4.609400590447664
P 6.19144165553091 1.343333632950799 5.468052495141337
P 0.9133423345678225 6.157339558027235 7.996183124672696
P 7.105581245473325 5.891866634646283 6.576597286953747
P 8.175400637699882 7.162127610571008 8.069936109542427
P 0.6045746736035378 7.393483783359723 6.355608993504616
P 2.77595328698288 2.4254382427821706 5.030911856248787
P 1.8852054686289923 8.118316761191055 8.01934384574264
P 7.330478008838273 9.74342113733752 2.9085209015232927
P 4.05757563207273 7.897025800482888 7.348872922140472
P 1.4156947721106345 4.145393225226584 5.250489109261265
P 7.565414909470359 3.5586598176996347 3.048330006908939
P 5.753227587003814 4.3393819737591635 4.136900861809802
P 8.522687258877545 7.255999073084932 3.916541890245588
P 4.361841602091402 2.7486833882901753 3.4606142892577836
P 1.2496744708427965 2.980058599317157 3.3903482350728242
P 4.235675362466789 6.396139750950034 5.726132414158654
P 8.218755501203498 8.007388532620201 1.8133671621637364
P 6.862009195250799 8.507661338981139 4.766891839353572
P 9.47860145083613 9.162801462314926 3.1886093736216288
P 2.9239006183674974 3.7366746031323563 2.058003940328736
P 2.239214787166127 6.140488745731483 4.717695187141249
P 5.20273586819858 6.008566103635957 2.6883614612419766
P 4.894570809555005 7.746299271548732 4.07538434610569
P 2.999842203614568 5.885395504143407 2.552691241344333
