35
Energy = -181.98278209 eV
P 10.436897650228373 6.585277011830459 4.119817637880173
P 0.4310376373121814 3.775772296632321 6.375823588759833
P 2.546993852391503 6.847349554769832 6.5994711291462345
P 3.6489597366072815 6.367845913599999 3.122446474877739
P 0.9027184559850413 7.678130742493052 5.444437378921012
P 9.23906018773568 7.172710272708909 3.9828921713232983
P 8.685923615655593 7.22914722782315 9.891657998323689
P 0.35417152750062936 5.049081087200124 2.778314353904383
P 9.170699600705476 1.8059687358019139 3.1137868328665737
P 8.218445108041047 8.731776160775981 5.2761279930819205
P 7.33660937824228 0.6279043890675644 3.805071039471454
P 6.2546794106252195 7.643399582187956 4.9906074846400585
P 10.186931879959737 1.0874163897490718 4.977263105397638
P 6.346202486551957 5.845986830476332 8.096838949568971
P 8.159498484911651 0.4786343881138576 5.90823008996094
P 9.484230493420045 3.2136606960503027 4.764855798427185
P 6.121294472210891 2.0829095331604104 4.896207163830653
P 0.557121792634276 7.331564001431051 7.581578662261308
P 6.94621099511647 4.8793035179804445 2.8826187980868956
P 5.556134299309375 6.345242695810296 1.8851822755166316
P 2.239638848925878 4.654508265338898 7.178420338585215
P 10.186931879959737 4.445448419611108 4.59817715160739
P 5.320803299548853 3.4856752253285217 3.3966966993650765
P 7.718981682336951 8.97952541461231 8.83399149063892
P 5.727167256224729 7.859826299407722 8.69998574179786
P 8.608401105312378 6.035712294939913 7.955127446241545
P 3.810795133014162 4.706548611391121 4.561181279702655
P 7.794599661326656 2.70733117711554 6.190461997024368
P 0.21190997467349693 5.108303663933032 8.111928289880138
P 8.96599760923038 8.092819080776733 7.268577783286901
P 6.531688107513371 6.4557204737518346 10.248395484493935
P 8.312929729167449 7.9767315023015115 2.146002957006787
P 7.581822781404704 5.860955135190747 4.75921382528992
P 6.221384347517362 8.235728220314622 2.824047675072792
P 2.5267920209067465 4.490322492666093 2.723479149137932
