35
Energy = -177.43087791 eV
P 4.669135422460573 7.80142823900816 5.083097623556963
P 9.603969185338379 9.933901276973351 4.844979955493193
P 5.173288536992318 4.728577043152045 8.721275645758976
P 6.117829603730987 4.814973003528565 4.09768392103411
P 2.7564313340589353 5.71360448566164 2.5881402691443083
P 2.522312770584633 7.739343002262723 5.760423033792202
P 8.99282317316218 7.945210459866214 5.5340012550507005
P 7.309289791141359 9.70298486206788 8.10319410545321
P 7.181152588828864 3.0814803323768087 10.90665334494309
P 9.656103572892992 3.5451245122353323 5.297388468619238
P 4.2042430032583535 7.248977429025611 7.990821831832454
P 8.616529909841296 4.896028088976893 6.695129401132139
P 9.527115843054647 4.888072944927964 3.495661446706097
P 6.815705016908406 6.1882135342601154 8.858242137650297
P 2.5381572708409723 9.98651614729571 6.035614529217213
P 9.449008792713622 10.157476343840917 8.21066933760035
P 4.683129325370497 10.069635182054675 5.275834678197475
P 4.01219212846469 4.3294214788185394 3.541079401682125
P 4.918560390543495 6.489769300343393 10.028836524636244
P 7.578485619661336 2.0656881049735754 8.896313664437125
P 7.416058478330754 9.365013550095657 10.214321550290785
P 10.815082360314209 5.219405556798148 6.300235652083428
P 8.20937728507821 5.003252489013156 10.171460780057743
P 6.112466281508341 3.5226247882436885 5.779207052913145
P 7.560218587748843 5.458050793132397 2.740104843632283
P 2.9926981107936497 10.758786698913655 3.9961592674973856
P 3.430111100630274 5.206676805470338 7.501607796917942
P 3.0448064137794 7.634995769669185 3.555900299952387
P 2.539508749355312 9.348693797042289 2.436567945797421
P 9.474952336360895 8.884185382267326 10.003362824638497
P 9.062289887161272 3.7195393895752904 8.540862528576998
P 10.544966587605806 6.610488594956923 4.551187884849023
P 3.945402673478845 3.7437431592495893 5.758874978135334
P 5.532865502544932 2.706327024105162 9.49500572246742
P 10.58751803306775 9.085576097423186 6.583885963859721
