35
Energy = -181.75854314 eV
P 10.255217164980152 4.185566025116113 4.317614879135562
P 10.010771354938273 3.804439761223288 2.1037535156422944
P 9.796343945001173 6.793041875729062 8.998475308202092
P 10.423622339838476 6.932577519770425 6.871786049250978
P 9.061231587986688 5.522952249132083 3.0807644162209646
P 8.858731839099233 2.373034519955711 4.764593416759361
P 8.638840723361856 2.027424972955692 2.541628010136075
P 9.240793254520547 8.585989164243173 7.758658708082199
P 8.24569435553182 5.21693178052278 8.794470148085466
P 6.621798184999594 5.64860361354401 10.321013003700182
P 8.33292366409643 7.4358703274414255 6.075781206670018
P 6.98460938047872 5.048970337015276 3.6350845163408922
P 6.997817220887941 2.852652276831838 3.7395784583523057
P 6.914781757280074 6.400521721464016 7.433511267763026
P 6.0690494447490595 5.257994941704838 1.6057567394319283
P 6.179241383867833 7.553242141952947 9.255078388663676
P 5.315999259902113 4.191444281493682 9.195870004373692
P 5.096015415651398 10.762225377723643 5.3263645481352855
P 4.286583233898002 6.603721513476069 1.783167198887026
P 4.059735198033607 4.394520359151395 2.0280366715495775
P 5.600737351580903 11.212897735409697 7.280059411685416
P 5.410390233149903 9.085335296973662 6.698436811873683
P 3.3727247354928096 5.312869668537119 9.073125467396833
P 5.779740270610675 4.50047174332401 6.979354849480615
P 4.289523936538598 7.038638808392037 3.9992389474297423
P 3.7207283456125038 4.7110209871291735 4.264223788197716
P 3.9940022910753505 7.467645986004151 9.43371309417254
P 3.603479382162723 5.105398951339225 6.785229152256227
P 2.6245472762262088 2.4887286891264453 4.772286462627194
P 3.393183757325424 8.709539329026166 7.608080178478379
P 2.1594856764496604 7.4623540848543515 4.459280491268857
P 1.6294365161490498 5.271271713077824 3.9956515927653697
P 2.418805289977668 7.0284246673383945 6.591957629381343
P 2.471920041009946 3.1057025187894247 6.842614876148766
P 0.8622331791066575 3.637253819621213 5.4086011181142215
