35
Energy = -181.00617534 eV
P 9.660311550969642 3.541874698999172 4.383887138135341
P 6.852533546230562 1.562914055393213 4.384206498572465
P 7.733737559676132 3.3254905801637418 3.2923438894163155
P 3.0475829969640627 1.8501249108796887 3.679699556447154
P 9.617114172031844 2.162634140453321 6.130626529830718
P 7.639511572609519 1.6022794990178417 6.458079295399125
P 1.596547006579168 2.8298781923869676 5.134276712103782
P 4.892293214749829 2.4429919967143805 4.855029441478548
P 8.41204979524568 6.520381189861644 3.449210293409747
P 3.352851165318102 3.884270011156641 2.7559651073359053
P 6.502137774807538 7.168245962113228 2.554872640380912
P 7.939609678297938 4.871411821227967 4.8881230041900245
P 7.088981591047812 9.22754688459832 3.28603713677602
P 4.418482703308385 4.682600303060944 4.66921971506725
P 1.2736429691975013 4.36165696934106 3.458579510441529
P 3.0165740734608226 4.102721945083223 6.3041593036849655
P 8.810507461145844 8.499526485747245 4.495924305284712
P 8.570891972044759 4.472288949458076 9.304894247938343
P 7.0451922665545155 2.9153900492793876 9.36141841079278
P 6.169560085643806 3.505340226764614 7.364133183117063
P 4.301973670215461 2.3105768291439848 6.970696553668218
P 2.287296105565018 6.121831486789941 4.378715679365765
P 5.599591716458324 8.028385977618301 4.450448759403625
P 2.6680216080425865 7.192821429955691 2.4496324319360623
P 6.949513877025424 4.561838367008842 10.797946859898966
P 7.364596806160775 6.431971818044851 8.144870004663234
P 8.099618094658434 9.868327551780672 6.29827750983773
P 5.874178200099842 6.34875557591849 9.798308836708866
P 5.379201156183047 5.631947646451842 7.802925312302768
P 5.933928997682659 9.889973745785143 6.542355166479071
P 3.8676139453693597 8.862311916793095 3.286572383809909
P 0.9239011883516969 7.713481939253544 5.147993802741231
P 0.9011364274154027 8.553868158027363 3.065375585913719
P 7.114656904381162 8.987853715045587 8.044222860860204
P 2.1830483329228376 9.485415141068604 4.648915883416303
