35
Energy = -181.64630063 eV
P 4.426711517778973 2.729836464716465 2.9659354522239063
P 4.413100740113543 4.552404522042723 1.7180471582849857
P 9.08735970341759 4.830125473454438 7.88381318069535
P 5.25118926431644 4.025682996960457 7.836618059630864
P 7.757674381780956 5.788738002732393 6.335677511252918
P 8.085454446478936 8.324900965654784 2.036263608237481
P 3.1792962190802045 3.067975684327796 4.770705204271338
P 6.808596490609893 7.548872977857434 8.863046426225893
P 6.023845378242539 9.124724335986915 2.84040150110228
P 1.7998691658429327 8.36262361222502 4.4042731480962996
P 4.565744088805888 7.455260127603646 8.90390607509085
P 7.7238563604238335 4.726743923630051 2.8860614919309007
P 5.877335639760703 0.971510264348032 6.358447866531148
P 2.122638845800635 8.093904244495377 6.619645867925295
P 7.460588290689227 2.409020880696631 6.026326949562498
P 9.084454063808934 7.140424597679059 10.749894696103992
P 1.5931214412591541 4.191660340807044 3.690791117227564
P 8.339492226872173 7.924160058089101 4.233120619888729
P 6.489623482454969 2.9704767811892263 9.317409617798589
P 8.319773261710372 2.7255248348038874 8.06783048280672
P 4.0609125012136404 6.893623246568516 6.8092860024295545
P 7.430090410641835 8.41588457033863 10.772097666940692
P 7.584574435795337 6.287951807405346 1.254267967369269
P 8.960029070219353 5.784481488002502 4.406530605208821
P 3.6679663563808 5.454468506413431 8.482189078522367
P 4.953714782495144 1.8164474983419225 8.108003685165585
P 5.877076714112266 6.048256503414699 2.611399791999085
P 7.896214426965735 5.733448900858699 9.57697253989634
P 0.7773178573386853 6.80062767019333 5.515537312814462
P 3.4817459818136007 7.118964199977376 3.507628053696079
P 6.1696299314057415 7.5507341109898976 4.4025937346946975
P 2.4966695445306426 5.572726412556903 2.199311819907104
P 6.259747242366583 4.249530247614807 5.85735278907039
P 2.2661979034994633 2.18202034423077 2.956244963556024
P 4.405680636500334 8.081803195180974 1.7606771742403624
