35
Energy = -178.09127695 eV
P 3.5687458014232987 4.870584124981767 4.505075112687418
P 9.49410735772734 5.4599716243879834 8.201156735366624
P 6.85457882219959 1.699706094882977 5.868438240597102
P 1.3774223683190985 7.295310756364788 2.9761170199469538
P 6.467269915437459 10.584508149596461 8.010210995569718
P 12.235135470250272 7.179586959255524 8.354416314992498
P 4.335300682739982 8.881107943285699 8.758007362277688
P 8.378089789782015 2.3358575894263605 9.03035488055744
P 10.822109530467568 8.712078012219965 9.254122437728027
P 2.2564800256676665 5.393150092469661 7.80237162750232
P 8.499119035250718 5.532947184381677 3.044298061480433
P 3.4133111319866996 10.356943163849255 2.2295309384113127
P 10.190766249959399 6.0810228440745515 5.463428221496321
P 8.853453201762578 3.8364159371923288 4.419909223791387
P 9.946643450924709 9.136421706714499 7.189594425161971
P 8.00197842750617 9.910227430535798 9.457547249221921
P 5.832751121859275 8.449928504151579 7.261332292792338
P 4.237830596573841 8.257819820513731 5.665894502279786
P 7.999076164694881 3.22450633034225 6.992466593710448
P 8.694619396382341 7.31276098979788 4.377048554829602
P 1.5286210515351493 5.794341384428148 4.512681078962838
P 6.575632257243996 3.5732791482874773 8.68888260824094
P 11.443412066842116 7.730416054192915 6.309876358943916
P 2.8601039361365523 8.788797301157524 3.2359081870760127
P 11.341503778211102 5.367368872801664 9.183608553980019
P 2.362497880537925 8.592342279181864 6.909722432573512
P 8.302814108803384 4.409049319990919 9.806505270447243
P 7.0411750155452415 2.746624994401892 4.0771001204754365
P 5.874177994991689 9.973521623527047 10.076712356662565
P 2.6312679581536558 7.465588656560271 8.807645161036131
P 8.852452374479112 7.878006551534455 8.65341101235415
P 1.1015210252751053 6.708056635809356 6.458563367644599
P 5.067559752323975 6.2078510904960424 5.4347964833840745
P 10.458115028435016 6.567051195773271 3.2672319031375987
P 4.037204664639989 4.623697067502266 6.652881748747825
