35
Energy = -180.2652964 eV
P 8.954735788458681 6.966434552344139 8.401906188002663
P 8.410874348947361 7.409556127962818 6.26708809129442
P 9.161515985512203 9.307255781282597 5.322382346285572
P 7.191635065221283 8.247984839927245 7.9183040839540135
P 7.541109126727773 4.636740469026615 6.2037164493024815
P 9.242195712722047 4.058967952125522 4.934096674787807
P 8.236320059251529 4.781610148376236 8.308230913015036
P 6.105375860241389 4.975290346304398 9.04920736861435
P 10.571981623177603 6.392950772674734 3.826929906512398
P 7.844928743474736 2.4751014986933235 5.7206235324376875
P 5.631027707461774 6.66112818948156 7.643814327694855
P 7.997367286014991 8.824554758525327 3.4333394005586935
P 10.186364055306724 8.524327146556146 3.46716265291837
P 8.753715210996447 5.416227975583084 3.16245011366305
P 7.136271613139489 6.786884847576378 3.926065248017288
P 4.934047191592216 4.103130889756207 7.268418989753986
P 5.907359234944477 1.906664602452127 4.842196860152865
P 3.643862978848403 7.379589167111425 8.321396393998917
P 3.91274851364861 9.607130456437039 7.6836449948709795
P 5.740460909896602 6.885282430640231 2.135887931431605
P 5.04578087580074 1.8400213698864054 6.890064407723865
P 3.085778015660525 4.647954227602773 8.399099428374184
P 5.207495619414987 3.1246443854300874 3.0444314732364224
P 4.186479683056029 6.560717783673008 4.987859939526165
P 4.441176332832528 5.039312241111136 2.173775940131058
P 2.7488131067749335 3.796788515961051 5.361420544398652
P 2.671639673894524 9.499888007974391 6.082176316207422
P 2.877496030224643 1.8079575241927244 6.309215518244592
P 4.0860135137179245 7.977948725970017 3.249012381923256
P 1.5852179016690626 4.895998163439961 6.86223229909251
P 2.5489789447044036 7.204586399221048 6.365923502608273
P 2.822967505870123 6.106659525681686 3.28712951716786
P 3.275387971830698 2.1577830966504687 2.5434928681242077
P 2.5318075074802513 0.9019883571580275 4.233730005092626
P 1.4997757166918217 2.853103708938542 3.7420312746841926
