35
Energy = -180.0605109 eV
P 6.120269424955744 4.844410561918272 1.8426600994522555
P 7.021885945630037 6.723934956391613 2.8399245502802035
P 9.379353037673999 7.220255367341834 9.507053809739908
P 4.6223380165312795 8.64647199942031 7.333360876390041
P 6.476355672323993 7.21688847720473 4.942039973774412
P 3.6760151269405785 2.435170665343587 5.979407863175018
P 12.5383717720461 7.178231120477478 9.577922423275108
P 6.082545834426868 3.2280961759485063 3.315257902435384
P 7.623653410300136 7.633958636302446 8.171394462863972
P 6.528312129635264 5.534485047543064 10.516470963881604
P 7.9788251973108055 3.7434958173656163 4.2942667995308925
P 8.104625911365359 6.841528195493084 11.34931738815873
P 2.831200497340836 4.155493996258365 2.971258587042147
P 4.297824286510711 3.879940535713356 4.497991881579287
P 6.376598669733767 2.4069537885723786 8.918801001437535
P 3.9730235725023686 5.146425619377052 1.486949695000318
P 5.014887836223453 5.172927830310906 7.597259933064551
P 5.4395760916810305 3.048275383891165 7.036803173310394
P 4.359229716232415 10.579319200469582 6.356843798368635
P 7.092011453870876 5.452761290186346 8.340356249768611
P 8.270973094530724 5.9680525973870635 4.497777784627151
P 11.906492512407084 8.532008327096738 11.229033783182235
P 10.104006822533568 9.241265311305984 10.10627983501374
P 8.147144555236009 3.3686493544360046 8.090951780327625
P 7.420916926155677 2.62677184552369 6.144742809511079
P 6.439593294290221 7.766673846924411 10.16552415551273
P 4.706768454121422 5.957777310347765 5.545861700590461
P 4.8189108620311 9.551652339770396 3.1234611038531885
P 3.0455757058114896 7.429051139728404 6.472580553167655
P 1.7359534444734952 8.333190702633305 5.054885547640056
P 3.682227866238046 11.48351631910509 3.2779801053359927
P 12.112640139593035 9.343563638000052 9.169523955661937
P 3.2559129207571678 9.762815021981204 4.659679880128069
P 10.878228650029355 5.961894108333524 8.809548270511332
P 5.565402969942818 11.211745293282656 4.404479123793366
