35
Energy = -177.20680272 eV
P 2.6053730204534027 7.540320691104564 9.637424940608405
P 11.306955732685168 5.571697080613573 8.944263939050138
P 8.871183600300512 6.7218732140248525 2.7718217633031563
P 5.6595321977901785 6.329587424105115 9.25192227029144
P 2.796758406564553 12.208943737216051 7.357585595943417
P 7.1724300588085335 9.106672055923642 7.24318801075345
P 9.712116692320002 8.32510630891246 2.008520425146569
P 6.514868672992299 0.8256942433359757 5.010646207304025
P 9.892965467627441 7.235040295536093 6.442713377644374
P 5.314922488651083 2.472082421451233 5.802617386746966
P 10.053503863130768 5.112709115779684 7.102348361456721
P 4.100259326859259 6.524010784329643 4.359346041404196
P 3.588930164012533 6.02973264381151 6.489791972174841
P 6.1138957718499105 2.472134678045112 3.696543879572602
P 2.121296706819669 7.121773724270854 5.198164412668967
P 9.597039669232858 6.173642338312901 10.1883566150783
P 11.473311355320034 3.248731193618374 9.135269454439102
P 5.180020688941379 7.513552989973115 7.303858867296964
P 3.8342800318685577 10.0810518484835 4.234327365945055
P 5.028860959632687 8.426357727030918 5.1108289330201675
P 6.499599466706793 4.3262558950633565 8.795529400655548
P 4.164026434031873 8.856830154381644 8.800046898483307
P 3.0542904261300863 10.110324926785786 7.34618014324323
P 8.09971051449552 4.914340659910502 2.0023018243259014
P 8.94016322927772 8.388694413821044 8.105703450676119
P 8.699250504338522 4.739429463235158 8.900543146407951
P 8.113517826029488 3.7437238641747466 3.857237564889521
P 7.055192480107233 3.5890755557639675 6.7663476774753235
P 3.6498821075984336 5.7506193724738575 9.81626150153571
P 4.47513255477134 11.366589686467787 6.288732551175511
P 8.239114792271687 6.864707456147765 4.9980026108876885
P 7.227265371811209 8.86520506102347 5.035829891889977
P 9.531953814429672 2.639456834382678 9.151482860264908
P 6.878512626607329 5.115437233170441 5.1318793325220105
P 2.107730200730106 9.362442132515426 5.388228550917344
