36
Energy = -186.41166828 eV
P 7.492297024304632 7.710536613713931 5.965704659105775
P 10.288214085894369 7.923254976884365 7.349862931799299
P 4.903510628556225 4.377715054115542 2.0756778361355583
P 5.782946023989126 1.1991899551699032 2.8431826933825106
P 4.784259976213194 4.893150977227514 9.426054165367024
P 10.867745557259488 8.637167606805196 5.305602181168145
P 3.607441519941486 0.8018007651470658 2.4805139757750045
P 2.1717932378402094 6.035615072847871 7.433366264818679
P 10.035466660976258 6.61305035929284 4.244320722183423
P 1.2351970636628862 7.948421133754655 8.096882995274497
P 3.357256659941782 4.456387826976957 4.863056105131444
P 5.5829713690240625 2.5889473049189466 6.909706217047269
P 1.6960313607283626 5.88001756882996 5.212495870626415
P 8.954092794834857 2.953823050083676 7.219925235033153
P 8.564532400333357 5.588213722300996 5.675422826492671
P 7.784325697194696 5.375513614634055 1.8257133813813404
P 10.288214085894369 4.660359513311616 6.814711858950217
P 7.034669343907508 4.323048538445145 7.3173247176604574
P 3.98426639181915 7.231369926754807 6.946631591748625
P 3.7438244406389303 6.6603673493541375 4.751145738421568
P 6.878994049289044 4.113437435563571 9.55958062973888
P 9.510563496811214 3.421658512943283 5.191140660130887
P 2.8584768914713696 4.368444725469646 2.705515788679468
P 5.941149716900625 2.6463379708747925 1.1165513751362215
P 4.033588526571151 2.9827649614338747 8.376130098176995
P 8.784821105524097 7.269182528780482 2.569019842181814
P 5.7037718193093525 6.1546784688823575 7.932698919785869
P 4.162990960372403 1.4317284758842983 0.4103369960544642
P 5.795091474366849 6.3437677539197095 1.4916161455910368
P 6.270372793722764 5.428238675020691 3.4584323931635796
P 10.557690289584514 10.10609315148307 6.911418713351013
P 1.4609710846843489 9.432483345872319 6.412966708326719
P 7.420418931574199 8.522290527760365 3.9278384599106024
P 5.116144148482102 10.827972733012217 1.3698019939226864
P 9.327531776828899 8.615594887999384 5.129983130962075
P 5.9651892980900385 2.0379133259976667 9.047064822004621
