36
Energy = -186.00380757 eV
P 7.563152543888841 10.931315987303144 6.402448267150308
P 8.05626838135932 10.758646594598204 4.26670929550437
P 8.465941380631252 9.001395016450976 7.230998373206728
P 8.387308801826565 7.91466053290152 5.300292421999815
P 9.131748080006952 5.901910318568454 5.906754747019626
P 6.474294009971024 9.169367212572359 8.28459128743089
P 6.931662313792741 6.345987589284417 3.084311914295544
P 7.349754852113709 5.116690796624827 7.075679625052734
P 8.644895796676062 5.064915516205836 3.874804724692595
P 5.431259222409398 10.255935606300831 6.610116532514667
P 6.367398706224919 10.097794645865703 3.2914530366815633
P 6.299591274082126 7.217863052560716 5.081730489397666
P 5.7961449086699846 4.555480036622427 2.402952335550948
P 2.0089658921778666 5.384962212268704 3.174677910822283
P 5.0759135895533145 9.043580464433422 4.739261616965042
P 5.37003222072983 7.479744668951323 9.14106863892262
P 3.7968663411571026 5.230385495324311 1.7414735444382015
P 7.90861517118656 3.023583461868109 4.482936384712877
P 2.4744363427841876 6.535970925069786 8.278634201255324
P 4.560768293567374 6.2977374752277555 7.437520947169853
P 3.0459870769585335 5.640182733681423 5.111159448960544
P 5.680306460883475 3.273020738278993 4.219028261976394
P 8.33469588674404 5.3886430026268295 9.045763520055413
P 7.282606030516663 6.83866216828777 10.053995556129752
P 3.120879276837201 3.1121754007279305 1.3357475681546531
P 1.3097962940646242 5.846561915631165 6.45991911212011
P 5.897948388663425 1.1474287634451612 3.3559612347454095
P 7.872293047400611 2.964469173201931 6.758747046830797
P 1.3031733304581057 3.281632285325316 2.699734991987054
P 2.5152011782582444 3.9225370233577803 6.421755191383239
P 3.2171375628307377 2.5315430752945827 3.470749143002454
P 5.870234939409086 2.5264272920107804 7.6885121031894155
P 3.7703737552052417 0.38792105391744786 3.261477684836842
P 4.996605315449404 0.13066619888248862 5.117031488320768
P 4.3477155153837135 1.5050337095990696 6.720456379584809
P 3.6047447946154736 4.556844147739615 8.362822674598162
