36
Energy = -184.12126202 eV
P 5.631790375661242 10.21651532774407 2.7858407908261924
P 10.273341874971207 9.83474881817811 7.859970282413413
P 5.11676488313384 4.385031282034635 5.068145661316592
P 8.531518995768522 1.398839495707049 10.163785367204733
P 3.9241435153814823 8.924259300063447 7.417953174219524
P 7.283877244261735 8.677269849201917 9.096067778361826
P 3.919330599603556 5.844261407025452 1.7646825793375116
P 7.921738785423202 3.9107781277690763 7.353792645727032
P 3.8432562973829456 5.31742231473314 8.988541333381432
P 9.544279830543278 6.810813369028091 9.084346128547777
P 1.9548348610287587 6.638024376959989 5.847884539433987
P 5.449113691778634 6.323856840494012 6.048084850587309
P 5.886367861156896 5.704856656821152 9.595776961377469
P 6.77745876730518 5.574221260159976 4.1049615771303625
P 9.624666504161265 1.9990536489942852 8.536784104763703
P 7.738178602558488 0.8628475518432076 8.187987057272247
P 6.657028731531628 2.939634619536752 5.8000633858102555
P 10.100618346287622 6.6046530472579645 5.82163432464579
P 5.211957945715068 9.406214957774793 9.161470097974174
P 5.029936463640615 8.589351999304666 5.281867042709432
P 11.418702974104011 8.137576573581946 6.5209273260806855
P 6.020010083625913 6.5280693729072095 2.2222574445442063
P 8.469862291395707 7.627801174388581 7.303303239881232
P 5.933023008212101 7.74064324224714 10.541335340503636
P 11.297367428113706 6.272137262831602 7.677288685397464
P 10.48673581234925 8.773244044918771 9.78809814225487
P 6.412312135902994 8.297327625915319 3.483246329032973
P 4.510244009192995 3.716159071464062 1.811798729554052
P 5.005077517152264 4.765410065967699 0.1289545609939544
P 6.9796383580825285 5.925620077221906 7.631741670916779
P 6.254938838238977 2.6159339521074823 7.963114766751879
P 8.782939565340834 10.18864807820256 9.539876395617092
P 2.8354728674390874 8.049949812237637 4.368577417001953
P 1.3811942039787553 8.71005213067373 5.7734383168856915
P 3.6802542045067703 6.768477877954863 7.434836029181432
P 4.921684490573343 10.72995735225017 4.65122788786444
