37
Energy = -190.83611335 eV
P 5.547107639134214 3.3360518685761846 7.874202878621471
P 2.3367898934223783 5.379888757225784 7.64355919476541
P 3.2389983876296538 6.763516509533351 0.3173045781581431
P 1.6638396579124466 2.3049071842256224 8.018482376939003
P 3.4566670927827063 3.601770710174943 8.218350921453638
P 3.7113041417826835 8.844621548753212 0.1775455573764762
P 6.038699701827516 5.9941125486331215 2.790661336592305
P 7.200645246913627 0.11793424556922928 2.328715806080071
P 0.591695890704648 4.230140668106385 8.620614720059825
P 6.8889945270056785 4.075946204468212 2.167117004003025
P 1.5798036963885764 8.137435703042724 0.49777125218954027
P 3.8799062345035824 5.45118869750098 2.116823848590155
P 4.877222154905089 3.4192402223241203 1.030224024717291
P 1.3304727707266981 6.921937166368898 1.4644738588581385
P 1.3716539477855543 4.686557092009547 1.7522205053298017
P 4.923795040345093 8.564150985144494 2.0582824512509257
P 2.164474853686095 1.3110703679454747 1.0531338749220143
P 8.535355596386418 1.8129320047616206 2.442636548522788
P 2.59615714701068 7.05422715549834 3.3043114396866344
P 1.4031630138012643 7.286374561015163 2.533004410395703
P 3.5817759663644413 7.054227155498341 2.96458605401106
P 4.691625425725479 1.4968365422809382 3.370560851953832
P 0.03085825668099193 8.881572059761204 3.5577106401124983
P 3.920816252312832 4.287732494307379 4.545938888314936
P 8.212119441235533 3.10569056812892 4.409505958886814
P 1.075333419078244 6.1128367427708925 4.675787431689985
P 1.401727150064633 2.8001612933295172 5.044894875781641
P 6.7428463523447375 2.592268018120391 3.7805611887622472
P 5.539285697522684 5.7956932198426365 4.967613106972521
P 8.500448624523514 0.02064601635453425 5.681171006366024
P 2.660326034094072 0.3865142325005466 5.001899368572519
P 4.8580727380477775 0.47633118685341697 5.367459307833702
P 8.643872096842511 4.9596347488268195 3.268509241444622
P 5.8128814344876325 3.661172554366475 5.533566455070915
P 3.805251206321521 7.413742085404842 5.175783747479266
P 2.240148108392226 4.657285637056692 5.98196470453849
P 1.2529757643572972 1.1309525210201161 6.570161186747868
