37
Energy = -192.06340866 eV
P 2.2374276759227256 5.680046657802355 8.761182646200957
P 3.2080705768671245 3.723576621032491 8.66914168936454
P 0.39161396633211515 3.8266782259600447 6.661314001595016
P 2.4663218823629784 3.058572498692385 6.643202982257323
P 2.028113320445678 0.9147810811977748 6.3288646126500865
P 0.6358488333594458 6.026595357752077 6.21427343933038
P 5.224021742639497 2.1769230265850563 5.63785788645479
P 0.5280433645801654 0.9835997623334957 4.625390562744388
P 3.9866342762634503 0.3102839802004303 5.43748641719615
P 2.677342360131488 6.606505011642586 6.805944208096719
P 5.084029238674323 4.68542173016731 8.153744799689465
P 3.7722652940305146 3.8030335742832566 5.0195006310863155
P 6.372813701031399 1.5041393945745962 3.856942248099355
P 7.1430404326551145 5.099984356074758 2.2786351108255056
P 4.614758764405778 5.504123783121201 6.199061774857759
P 0.4340772916225973 6.436684942999656 3.9875795878993103
P 7.738923276544411 3.2004464039386993 3.423466965088591
P 3.427395369719756 9.53317506490757 3.305297872495244
P 3.3012100460053913 8.110814201335106 3.0160018601993115
P 2.458764263158665 6.112881834911902 3.164497297285805
P 4.940242514648398 5.304499899791462 2.32736675735797
P 4.729206048892118 1.404952163831096 2.336988257376723
P 9.107097300433695 2.969847488628043 4.84861756294004
P 9.116145215923321 4.622708321003085 3.2467150461924614
P 8.384478942671654 2.3300600146192347 1.436568611388482
P 5.155495389138659 7.479847684732756 2.295497252374372
P 5.109230317183712 9.649023491812203 0.6186925563357222
P 1.5504256497634934 0.9125586468861732 2.638467170872286
P 7.919535479184385 4.258062474561331 0.3224610239002851
P 3.8117767142607644 4.9223333165790555 0.2849592023185035
P 6.386992427617133 2.7217347721830225 0.5938258454110652
P 2.452748843865668 2.91108456150869 2.309905220678502
P 6.118631332025132 1.1653382386698787 8.761182646200957
P 3.8758399910617567 1.120586566347366 8.846811533363397
P 2.8625182598821626 2.9192604562362505 0.08154325915109654
P 1.8037612152921707 5.763545536383741 1.0387325626655106
P 0.5876174575393472 3.8887476328491797 1.4647376741891793
