37
Energy = -191.33161145 eV
P 10.606842150138602 9.279154275242272 7.546022869733315
P 3.852192265928123 8.533322764200262 9.030491965784305
P 5.0314750440172595 6.039273234803202 3.1961639627980154
P 6.189995963102981 10.386705496731754 5.019613325364133
P 6.825171453106816 2.923598769681307 6.443417703929084
P 10.151031864161498 7.282018069132816 6.517019854204386
P 7.9938801529417365 7.620364547255993 6.030806675413002
P 6.028437644673057 4.515682267523473 4.744348881760099
P 4.365309651678876 5.078040086225586 8.152829967708197
P 8.324055292913009 9.748215405884666 5.220852852857685
P 6.509074948997563 5.534875365226329 10.445421506100427
P 5.553219115835057 9.107387104401646 7.650205783778321
P 7.186671178607451 3.580498060693119 3.0805302559469148
P 3.3328566620458098 6.985736408378282 7.5396954532305855
P 10.907268028046587 6.324658631826424 4.748916798150199
P 3.7707362763663435 2.0971615758465783 6.366234524762867
P 6.533042124040295 5.859572172215147 8.25662250863231
P 8.521901773201662 4.74158624385895 10.993430934715953
P 6.634223573184463 6.524114499104516 1.7513990811316673
P 3.093557053845507 4.228380163712887 6.478452113791781
P 2.4647367280979653 9.903674286943215 7.912810416453295
P 8.69984513748521 10.445615248606718 7.321869900662776
P 10.080519194542596 8.129341236179735 9.358631375219629
P 10.5083878607806 6.281609871525771 8.431295382252793
P 6.784805301121736 3.3436890021886945 10.77048662024278
P 4.705326666504313 8.13930228564183 5.843935645793614
P 5.372868403907963 2.528922770336988 7.873918629924136
P 9.083233737752462 6.919829875468886 3.7999667436161766
P 5.619796795857332 4.51175809117774 1.6871913252468074
P 8.081358123965689 4.411145685144272 7.571954356295922
P 3.5584853430709122 11.413040575268086 6.672080771999869
P 4.062849555352274 3.4681439919795407 4.624167618783266
P 2.929032794830619 9.482225842791632 5.7292176127205785
P 7.684876242303138 8.603696295410245 8.13890596709632
P 5.75200344744748 11.194639972567217 7.036146557793296
P 8.515674416537875 3.2147050356182496 9.384119519169849
P 8.435344269290429 5.380599860055067 2.4023253893029652
