37
Energy = -192.29990197 eV
P 5.062821925698329 4.11513617959093 8.540959641428579
P 1.2128343459822926 3.338384564282446 8.283670583707343
P 2.889109132372049 4.848555117890001 8.468946142614302
P 5.852496387336966 1.9384372450159157 8.423684849495906
P 2.0826437445156847 1.5711539828940704 7.219655906190813
P 7.079245381951416 6.008053236755016 6.505848978395749
P 0.5813320644453374 4.690665664917607 6.615272031760246
P 0.3514267227129736 1.2093772300570198 5.859523161920691
P 6.512420215278475 7.576851088650663 5.0218955500708935
P 5.410401082597662 1.0792135751817353 6.45134255372567
P 6.947511007531665 2.6277251061014453 6.594473273142762
P 2.8134634715352 5.042519527648493 6.282514659872551
P 3.685138301533058 2.5093654202891753 6.008263537112754
P 3.128228364383579 7.203581901771492 5.813282543536985
P 8.619699824404135 3.254957984842521 5.184801274702142
P 5.452773421105594 4.434370155350948 6.3874155741050975
P 4.5869938088135145 6.7993885155025415 4.1669666745747636
P 7.843019259666941 5.880373479344607 4.410882111763129
P 6.240337155301249 1.5175647137097292 2.08407004170825
P 1.0285099996184162 2.001586255676853 3.8987094581520285
P 6.315617459415878 4.556004923187127 3.385413721265586
P 7.775348225349784 3.2864055566065096 2.156116846410832
P 1.7060286626766934 7.837536473847577 4.179998589695934
P 1.1911862385197365 6.010739752201254 3.0121571682049963
P 2.483341697161488 4.876474212717543 1.6370949166782462
P 3.5791143496466 8.577488532262084 3.212068097371377
P 6.7342073467768975 1.0240075986918065 8.95151055553062
P 3.9474466611589527 0.12951973522252636 1.9036413410061657
P 4.842637143280094 8.577488532262082 8.899464066946642
P 1.3319925612920682 6.760004420477218 0.9610694759022996
P 3.283088204953442 1.1616712565623206 0.19672531695626203
P 5.346105863901177 2.6689107630223035 0.4072241478043091
P 6.191731752864703 5.90460256451754 1.6132320740644635
P 7.03689816825059 4.255646140297922 0.3193080540771543
P 4.174896227095807 6.023604650953449 0.719363272228996
P 3.2685636368233992 8.026670528213545 1.029164723004851
P 3.1597071437924216 2.424280373228081 3.9047327068802673
