37
Energy = -190.95349626 eV
P 4.848827736120273 6.622206733161685 7.679417000371737
P 2.3210520066478546 5.265347220749809 3.215965775108011
P 1.484657897389441 7.2258890477823625 2.639011950095784
P 3.891336309822249 5.836502611664445 4.746725655285903
P 3.3911881928462746 7.312188769087561 1.3358358067576845
P 0.4457637370032661 6.6842380434832 0.7479240119488524
P 0.8680032319496439 2.400645429992638 2.3613330951942495
P 5.178475581397501 7.6015929625017495 2.7181825964892097
P 5.6282535429557985 1.688744940475094 5.456375994463672
P 5.710067319094129 5.555468942789522 3.3515275491945653
P 5.771168176751704 2.4735704598413353 1.0708871641050952
P 1.7902058930454108 5.100039680659509 9.338520772498148
P 7.595522051872712 2.752942802863545 5.502158857521072
P 8.435528287792529 1.4960855002637576 3.9962883270542156
P 5.809982743384153 0.4803226234152363 1.924855843511403
P 0.33336325389645033 3.455942238408696 0.4887376700607901
P 6.591025977818782 0.25145305561871234 4.010414943714457
P 2.9456213376130047 7.629900364425738 7.266191515009682
P 5.490730153247539 3.6775213284868866 8.779403815374595
P 6.714724310752406 1.7650234467715868 8.848967874053749
P 7.383003457574813 4.663801233621358 8.001418345607444
P 3.126436155216025 2.2690327808040225 2.364077167727782
P 5.301182836949642 0.7289458352084968 7.393429663948573
P 3.617691489113369 0.14361143745725402 1.8242794549149048
P 3.490886123048281 5.091331497418654 1.2314205099687758
P 7.992314405574519 4.927983560966498 5.920149627841303
P 3.8836568655938715 2.487178384229039 7.645310922831987
P 8.492973225138629 5.059027087313185 3.479629661149245
P 0.7193783124005994 3.9199790604090414 4.010303304043956
P 5.862358079754324 7.812622075762519 6.027848395820721
P 3.748701971919488 2.720824355100858 5.457066813097387
P 3.783415933515276 1.7970102552510716 0.2954608935666212
P 4.043353916156748 8.080405220894743 4.756764737687212
P 8.404276235612645 2.6673241173801503 7.635579420344285
P 3.081795152285165 5.532997603015903 6.854901482452161
P 7.178194574057781 6.578493173293057 4.633050467672574
P 8.43552828779253 5.0558894954422495 1.2919469830705068
