37
Energy = -188.25663535 eV
P 10.508843703037252 6.417826345727941 6.528374289437771
P 5.524047283157618 9.093995511487341 9.12686691623997
P 11.066754230615246 8.564504760146818 6.412852344726276
P 12.075959242094791 5.192957065780717 7.5030767980937
P 7.25156765310179 2.908035967748047 8.201761658764536
P 5.73484376171356 1.8474771037798292 7.230367396376267
P 3.586516048063668 6.045433658115314 5.509995820900722
P 9.076314322148399 13.522004989829346 3.2602538744732947
P 14.137527528318335 6.809045557611214 5.202353659612166
P 3.031096231641029 8.029527422105028 5.884677458036113
P 15.29024643889358 8.421809872451997 2.713087952828625
P 8.92980413557082 8.888167261461907 5.68963249361098
P 9.993794825931774 14.043126529737652 5.112093416326457
P 5.025851758306327 7.465212781664819 13.98451045199246
P 2.5342207877566283 7.483991051747382 7.981470054808154
P 14.727070886641773 6.464422860895008 3.2254233463851953
P 5.4638806983544805 7.205511863648172 11.845988302624502
P 3.5220334055863263 8.862872422565932 14.000712869061607
P 3.1843548352573183 10.23419610467903 10.42905841956782
P 15.182218726076394 9.708216662326965 4.3997072944362
P 4.049262361253786 4.255543938504007 9.0559671736319
P 8.375740994852917 8.918215111313392 7.855689776562892
P 6.2352220057405185 4.236918632386195 9.57089991967198
P 3.3996343225836165 10.435419203091564 12.45711183933334
P 10.193336034545654 7.693977219377148 8.32418295268631
P 7.476415836819094 6.0664625734474775 9.322118362011185
P 14.482865134369844 8.683475323173734 6.087085955373846
P 4.0552758370239435 5.974949586745973 7.624022553676033
P 6.561628689405493 7.526127746823463 7.929322316970198
P 7.621672521290819 7.082931064249138 11.342315177507135
P 3.8136905956591516 2.588539281172914 7.701704450813008
P 6.5237713171942175 9.01404362875847 11.17588274394241
P 8.455242130386926 11.521088728578166 3.2721389107070125
P 3.651156207114625 8.125478498252056 9.821172408908076
P 13.899526858797566 5.108012564520382 6.56784403547702
P 10.01276425655687 12.421558407678713 6.437540304514442
P 8.99844172999845 11.033843098977979 5.234204454635149
