37
Energy = -191.83644683 eV
P 0.9079664815934022 5.467502331103122 1.0713196136566898
P 8.294825086142495 4.801266660909041 5.527173846699073
P 0.01780829889836806 4.018328888125367 2.419475216744995
P 1.173797542767116 7.785264685946617 1.4741825833358326
P 0.8924136537858928 6.405788745509007 5.994874102276545
P 3.5343875841851764 4.24435621464484 8.21643139589522
P 0.5758479730188133 2.901506924854536 5.487334934830459
P 1.8209876145491364 5.3096180196475675 7.673891169904855
P 4.453885398134949 2.3066138109548633 8.756821357524815
P 2.8703900295812432 8.0613360882421 2.843353141531092
P 3.264369629949535 7.444613542381585 0.7670574489344653
P 1.7507622485652352 3.493469445583835 3.6367680583561417
P 2.8625477526804524 5.936820457401568 3.7089945421186177
P 2.284225035509249 1.5263856058684988 2.655822760133337
P 1.9326937397550603 3.142486885982675 7.196043617512215
P 3.0666939655996317 5.229685188670965 1.409218841022953
P 4.337615241667001 2.2256375978019145 2.1537609272188165
P 5.682589281779387 4.167956652478739 8.53108314723332
P 4.927625950623494 5.341383119415934 4.1227284751739015
P 3.966173853520719 3.1492577219403066 6.118659788263045
P 5.578448737924705 4.555810733915888 1.9723829179955528
P 6.1617168378157 6.644239225332237 2.7450049507324272
P 3.317217469036148 0.031024075132221583 4.058890886551148
P 4.053174473475453 0.8806410249244369 5.995707270920048
P 6.67215365957165 2.9374121339765824 5.593878487217744
P 5.009381885730612 0.13920236360484736 2.5625738861759535
P 5.968138141836333 6.087380739798261 6.113073285253024
P 4.884138112577095 3.1845834825652988 8.216431395895222
P 6.094347185857931 5.04125445458809 8.169653859389244
P 6.27656368822157 0.6601249953882654 5.854047817583845
P 7.08435941917666 3.08731902196944 7.847101051235693
P 7.806669811106197 5.125049240534263 5.57485937902714
P 7.671747156607603 3.7796749160471137 2.3122645837843483
P 8.071638592569638 5.704273367542986 3.4361369849249885
P 7.98619335121058 2.2877045247287846 3.919794866083541
P 6.916095840344752 0.25654449271813384 3.748300608737342
P 8.483978470465113 5.552914975269328 7.638040416128844
