37
Energy = -186.84004087 eV
P 3.788858705723105 7.086263195901361 5.7699846153111825
P 13.551343915774178 10.78502589805307 3.1504618137646228
P 7.322615528856868 6.658002242319817 6.110847696381305
P 6.663065415556984 5.67048461807759 10.484420233003839
P 4.896730751291515 6.1229092934721105 12.862058571001057
P 12.158989104728732 10.489704611094938 4.666230910555407
P 5.3788679795146495 5.629272436045184 6.3604981383635675
P 4.056651447340918 3.678272704582707 10.927910977758897
P 9.844444176353608 5.780869533019378 9.690329022505107
P 11.799145264031113 8.756941726900356 0.012067798677534422
P 4.898242361743113 7.808271427164586 3.9922914294404532
P 11.220065118234897 8.915533143599799 3.4006346014275697
P 10.777085532699717 6.422610261743349 6.238852542984745
P 5.549098061760191 8.861316206296676 8.1778373648422
P 11.942302103010544 10.131572946029992 1.765182814442481
P 8.15701553278172 7.220907268966029 9.809153177007518
P 6.842140592634321 5.051441921728121 12.608101326827734
P 9.171242461692142 9.041327077999894 2.415892124346522
P 4.453496424137022 5.956482906596338 10.686256285222724
P 2.8198453468487488 13.93697371392683 10.652692230658216
P 9.872876534586673 8.196696561777761 0.4500560352479304
P 7.829646879314929 7.3843227660772 2.8528735780701107
P 2.2815675013764083 12.707446104554183 12.145672636729266
P 11.206664489630622 7.891035498994551 11.866147393244805
P 3.8577739681721446 4.041115760909481 13.13579101180515
P 12.088667526415906 4.264070741181952 7.835300990061955
P 6.0013804199333824 10.302267139970867 9.667068080982729
P 4.551942307134793 5.605201384867728 4.30202119499889
P 9.983636478039822 4.905887029024615 7.640057364331207
P 12.455924541248226 5.152316252471762 5.938199520597141
P 5.671163030654824 3.04168494588536 12.288809009480817
P 3.9981587448211418 10.927782111522049 9.878373283639176
P 11.32553264129405 7.509972551719359 9.719822493506749
P 7.572577294696612 8.137877367537271 7.796780914595923
P 6.947846638120201 8.309309403348445 4.663224494596891
P 4.363148768837278 12.469871668766077 11.392603619150952
P 9.922075505340318 8.975475408412269 10.646048739224069
