37
Energy = -187.98399296 eV
P 13.779477291473324 12.296606131959882 12.020469212519902
P 11.677636551015732 11.682219828577693 7.345598913245948
P 7.959256880207003 9.780999350333738 4.070874773858237
P 10.434548654628 3.0380092906991343 11.426068078244267
P 10.06222034236178 12.973170853018377 5.448808311470947
P 12.151411375860516 12.175572658560826 10.688712398548134
P 4.810656936449522 11.186429599419068 4.444039902818155
P 8.590482336200905 2.8556986250451972 9.883694178299155
P 5.738303992034315 10.482005341403491 10.07963740034125
P 15.169028643420265 14.424720988446197 9.238183519185
P 4.153436403181375 9.372289299622604 7.285771644391982
P 8.480787746945118 7.596691772329777 11.860454425941048
P 11.38218976108422 4.993505938341484 11.255849752776792
P 15.335635148117165 13.982507855060994 11.32455087597494
P 4.666193700114976 9.115889867289178 5.123444749243152
P 9.707235355365372 10.647056457478635 5.220737980456362
P 6.766282968195949 6.458470123170483 12.542143670381233
P 4.761274813380135 7.238233992377916 11.642115173118718
P 8.27091251333846 5.031469507716122 9.532112286576714
P 13.2245956018971 11.396405738714744 9.026897965400055
P 9.342649724011054 5.658216007467117 11.462396075932828
P 12.081742078828341 12.118000518325019 5.056730600761985
P 15.614610332909166 11.76637215878391 10.951510554301692
P 6.619186807860576 4.832894522444482 10.950638988884293
P 15.289880518782116 12.312601755718491 8.80105086972797
P 7.2922869219583655 7.574514169885115 7.102712879027031
P 6.7426713037095665 11.55107054538957 3.857947582256725
P 8.994786771044476 3.951049768624309 12.845454162503893
P 6.698178536271676 8.1780557577489 5.076296570912999
P 5.371499066665664 7.651611850345368 8.040468040677688
P 11.340994294670072 10.433731616515903 3.9015903028966727
P 5.501933124727871 10.9629055197153 8.058305205594372
P 10.468005567683022 13.40223921684446 7.559925425188469
P 4.427726946176134 5.712278010402606 8.262506880352182
P 4.673653445037871 8.603347332062075 9.968436017384143
P 7.2697944574428695 2.862494506102693 11.714963293723336
P 4.465471028135124 5.363471752910191 10.385863218503005
