37
Energy = -191.66352367 eV
P 3.652219855303807 4.9088046069599285 10.468242232862732
P 5.874379696262062 5.726563208691486 7.7977262341415745
P 3.5450521000672257 8.249441036150905 5.328332382861482
P 4.835869657147011 3.2880389118511157 9.585974501259198
P 1.7168569755812002 3.3865532367934197 8.296975440706783
P 2.707861812218982 2.8722540529333234 10.241727228500077
P 1.3337827849780202 8.641408984042304 4.9193885957585675
P 5.847690968421775 8.248861969760549 2.69984367862851
P 6.22680314361268 7.538069769697491 6.790942402333477
P 3.69934729901792 4.6491440839374825 8.247280982214882
P 4.337624217659567 9.536217317617103 3.708278055261172
P 7.07591005896161 4.549374061875611 6.3577921263226695
P 1.719396878951828 2.504026805636415 5.268620675999327
P 5.982588036305472 1.3197836970853887 6.034898280531157
P 5.66505032095741 6.191066873361577 3.560387966789746
P 2.597193167856081 1.8235167625088193 7.016583129019432
P 0.8575509196203716 7.533317696358287 3.038189704486071
P 3.6452882391421397 6.22630048617296 4.444543792182487
P 3.8295962201249125 8.481570039907465 1.8096210425714516
P 4.357331456604616 0.14498501822750895 4.98752179457555
P 2.815617279313649 6.589158835888996 2.4434869798140064
P 0.5939415912411148 6.596008559641272 4.991778035515643
P 5.751819740129087 3.3086318361344054 5.037454945383166
P 7.220655957603091 6.451625965706696 5.133448386058524
P 7.459246556215843 1.9637733162559365 4.484157824064142
P 3.2037779417281955 1.6795257095340286 3.904925329679483
P 5.49120733357806 10.79484622126161 3.189551956125322
P 6.2272124457774805 2.9623947730387745 1.4016584472821496
P 4.080712762241642 3.276107250550215 10.56147863393125
P 1.130989377986376 1.4040014898157853 0.8891502369254203
P 3.9319615669308803 3.001224503258312 1.5324480617677878
P 6.881456766224328 1.1345464616222847 2.4987971563384583
P 3.7836089810904654 10.503480941788753 1.720699655775297
P 2.0288723190736153 0.2670692436393158 2.5635093110369724
P 5.863475579466836 1.8974726529278632 10.760622341264378
P 2.4394625394796763 1.3885135888023434 10.468242232862732
P 4.087030004429957 1.0527372850296446 0.5044570804548064
