37
Energy = -191.32159854 eV
P 8.561189049998289 3.6104907904676216 5.999895905736256
P 7.472751283657009 5.5206742353681175 5.754118404382188
P 7.107971127004364 2.0680965605868895 6.235356969785756
P 7.68106272341048 4.231184944960466 2.68838221014025
P 6.358810049747696 5.171837908208777 7.655287082045828
P 5.410824042768332 3.2742691972512175 6.993946944398363
P 7.566091241195434 6.080802816931682 1.3836184218672642
P 6.606718253305565 2.778973621535312 1.3542789338004346
P 6.199250252014224 6.943086292886262 2.95424762474824
P 6.095837892642462 0.8796013456079254 4.372838868435793
P 3.769942728662069 4.006895857470118 5.562737530013865
P 4.060268787919913 2.5966472244301255 8.57299159509007
P 5.232316709874062 1.3716643090867928 2.3710196433414064
P 6.082760051279571 4.988610304126203 4.0553575066115295
P 4.324915973339894 0.6365107076229709 5.570947508660817
P 6.355691760398298 5.560661159327312 10.431294395924537
P 4.367204354352269 6.255566929377489 7.745367336340125
P 5.125610923988622 3.8314071472460713 0.1366271574144467
P 3.310102269951803 2.473392576761848 2.7627729362544455
P 3.1356040533418836 4.297076465810096 7.6975311232513075
P 4.438757234359106 6.803414140463572 10.696597082516778
P 4.192971568522461 6.9685319418128 1.9957153526875937
P 0.6136101762756412 3.0295443472357477 0.5074123707093467
P 3.4882432166464667 5.1092367065861755 1.0823642661373227
P 2.756482289213687 0.7079152011134572 4.059321439749175
P 10.706172252450775 1.7498155811729663 9.614653197673512
P 2.1482861666308923 1.5058856074236013 1.0780201004030325
P 1.1744088130282142 3.6472119330144723 4.372140029790177
P 1.517518219183055 6.65533281478358 6.311953611855299
P 0.0995945713700617 4.987036445101113 5.877776176646039
P 1.1396434030832263 1.651222096762316 5.325157173876087
P 1.048323431755093 5.120737797292659 7.885769409788789
P 8.561189049998289 2.033211102253383 9.924944129298563
P 0.050279086927627246 1.4051592673674163 1.8392766660220499
P 9.409089457033117 0.3552796666922829 10.781335418170906
P 10.39823909485258 2.20494169296391 3.876718849853853
P 3.6908641377622637 6.25478733855298 5.603792730092257
