37
Energy = -190.58695643 eV
P 8.44569933101589 5.177533133471709 4.953579212430864
P 6.734580495111959 5.662598392355153 6.828653922017101
P 8.365212840181725 3.012053272296497 5.379785993561329
P 7.037467711044026 6.069187733752726 3.5776016275661724
P 4.963344626328758 5.268339862290418 8.489486358428149
P 5.66938200349635 3.2072987664522468 8.82798062462473
P 4.76148373880239 8.412823793333148 4.39171230211984
P 6.378487218196879 5.02671894711745 1.7789845096554295
P 3.660029077577746 7.707977415463063 6.230334096361009
P 7.45506483595024 1.8181691930054786 3.7234804345738217
P 4.570409808225594 2.612538273789485 5.829598723897611
P 4.1241197845067905 1.846069227099113 7.884375669175042
P 6.39263347479766 2.7171422087390082 1.8932718718710058
P 5.17049275547409 6.363737320253239 5.073592459489586
P 5.581612826746742 0.9775607023373613 4.620032825269417
P 3.637380750468839 7.688327937292159 2.541736537821679
P 2.76892842338395 5.088634095039831 8.035428203741244
P 4.187067065622444 5.539991593456657 1.930745976802898
P 4.556699962572081 1.9866472068689731 2.912876673499564
P 2.2344445341634587 2.9378431338759423 8.348231516747287
P 2.0268709205085056 6.418938882291131 3.4831644254012875
P 1.6339863628750375 7.352341458006008 5.454519375072596
P 3.6520000319042802 3.077987960052413 0.0626962914597308
P 3.5868671105838246 4.930129471789506 3.9980236511607963
P 3.31787264937704 0.3490176374654963 1.9793203892251692
P 3.320597246137442 3.6625662095223563 8.942474483726278
P 3.2867996502912216 0.909684093388544 10.836570390506278
P 2.085643693325757 2.977180140947464 3.666141791082741
P 1.2530981327186532 5.350741442768575 6.447253195337472
P 0.45621864532595413 3.7706408247365086 5.1153216201091
P 2.6229078390473015 1.4114739295861531 5.106041683485822
P 1.0396462423999786 2.126673350395185 6.536956954266179
P 1.934838921031529 5.367188938724436 9.07307878809865
P 1.6044410663490134 2.3169449788981065 0.1466778983038646
P 1.101023777392927 3.5025065321036024 8.82798062462473
P 1.328407317940064 1.3879911242665952 2.2127269155835196
P 6.63257386885851 3.5451355565019464 6.781263308762606
