38
Energy = -197.00114307 eV
P 7.523485941586308 10.509461596416815 8.60079568434228
P 7.401744711132138 8.303852475285964 5.696637594276205
P 4.694368503078003 10.527739083127203 6.8845302470200105
P 8.157059946307607 8.41405701526576 3.6017906331290175
P 4.223608300727627 7.26159549629534 5.504952107849829
P 2.5038891513948003 8.734113117315367 8.464718521124416
P 4.754770698772008 9.067032569946262 3.904722375068482
P 5.806459066889274 7.357730772774412 8.25810196805382
P 6.175205818250171 10.12382058950543 5.213457198865857
P 6.221670251834154 8.115809235877993 2.5108583639295596
P 3.9005957970385725 5.972890765161068 3.607137200729265
P 2.4555945594459754 5.915597146819706 6.343434589075985
P 2.1946537634381147 6.512078146559968 8.438569610499673
P 3.0800296952395048 9.071924613661528 6.4521165621366485
P 4.089891568603697 6.6843087491865045 9.569977049176593
P 7.036690170992837 7.094364763204806 10.12611935344165
P 9.246313279986465 9.15417841807812 8.65618297798659
P 5.625877592760425 9.530977932704168 8.664077067477827
P 9.451142778848679 8.973631346600932 6.441109158771586
P 10.77692227210664 6.459503922658389 4.533010301354153
P 7.165116968655454 5.613851296443937 4.713477943800158
P 8.881710110054891 6.287204686991629 3.401622472117466
P 3.725262755558123 3.81740365114024 4.315396933867216
P 3.520433256695916 3.997951476826814 6.530471507291616
P 5.9348858645518945 5.877217306013837 2.8454613126213966
P 7.345698442784162 3.4406041365145006 4.307502844375989
P 5.569831324412595 4.667729593932525 7.274943071786997
P 8.747967734817093 5.709986572923006 7.466628558213212
P 10.467686884149947 4.23746895190314 4.506861390729705
P 6.749905783710431 4.855772833340355 10.460721547924244
P 8.277207532466283 2.4438429860913002 6.087050419043033
P 8.216805336772559 3.904549499272096 9.066858290994729
P 5.448091602376617 2.462100863361606 4.3707118234251086
P 6.796370217294429 2.8477614797130992 7.7581234671970485
P 9.891547094514165 3.899658209766195 6.5194633497171655
P 10.515981476098615 7.05598492239864 6.628146076987074
P 9.070980238506028 6.998691304057287 9.364443465333942
P 4.814516089236976 4.557525053952601 9.369790032934187
