38
Energy = -195.22309678 eV
P 4.998491248053598 9.387129356341118 5.121367589892527
P 5.3737463563426155 2.54254234285094 9.269618154936463
P 0.6472736899747518 4.66610732668584 8.246130450068717
P 3.1934672680682423 5.942562957946139 2.6116144035299897
P 1.443825571483465 8.651236284096287 1.0724614032859825
P 6.964244371234503 0.6602419292628281 4.862031878805325
P 6.514928640414189 2.6109548239826705 1.4586772670779458
P 9.13467441922638 9.573123622628405 0.6216083454767564
P 7.8071786477509955 4.670957481831912 1.0259390500388372
P 1.2059364229274856 1.1296767984021767 0.8233788541820939
P 2.1256428313686335 4.101309372599222 3.4330366554263265
P 9.594277363804803 1.8646212486454385 3.3592530732549966
P 1.6883725274288275 9.268163542622247 5.006217836690695
P 0.10524032541243518 3.8584161566100685 0.5123507797077642
P 8.145957343913118 5.174903235650714 3.1909836348045255
P 6.138252094145441 4.7320390822133485 2.0042234083941373
P 6.993874832756159 2.6739217544903586 4.392312965611265
P 1.2846799809234573 2.567131625868822 6.625684514434436
P 3.333415892858183 0.9678023626974415 4.346744493399325
P 5.240251955428438 8.716384510129192 0.2893571524719998
P 6.2104818496359275 9.437908673717379 2.143021709802075
P 2.4813191021456307 3.3563860941612935 8.091287433796479
P 0.5343885556890715 5.71505739541081 3.661759734508973
P 7.738691408197875 3.074172631114249 3.844688727156025
P 2.596734513224084 4.138219386031257 5.626475906675781
P 0.6421996641996217 8.369255460811402 3.182110989745506
P 8.553046975982918 9.682290700644426 2.815841154014278
P 0.14767769032700306 1.0864577020749067 5.444339220451925
P 3.4440582218313476 2.1652748136344506 6.253167641788383
P 3.459658917819023 3.281886084688728 0.4028798421808436
P 1.2517722255617698 6.590146461755758 1.7990032519945953
P 9.142697115294016 2.771145275649269 8.41274985037968
P 6.993874832756159 2.7480221106247407 1.7837906154239014
P 4.713125204053214 0.5089085792340682 8.705962492058406
P 5.169051324807155 3.054380607436699 3.174449975355462
P 4.674223990845708 8.475659714144019 3.114701320761301
P 4.322950358434333 5.334129667073633 0.7872699747944865
P 1.2491223814516375 1.430842133513532 8.301187980391994
