38
Energy = -193.9473923 eV
P 2.976647300005198 7.318059275102065 6.2587750543237926
P 9.802800103032887 11.82421879394445 9.838845357941654
P 5.779944758403979 3.1787342453058414 5.304612911284817
P 8.139038461701187 11.248760841153944 6.97114059729294
P 5.871166721325851 6.525770948266874 9.161458678610478
P 7.234599534320603 4.799466278051756 8.041636047409293
P 8.144965684166838 10.367796396414459 1.036545189770977
P 1.709533336090976 5.5589846194279104 6.777014540937106
P 7.56618447075344 8.250913552034403 3.7347318348491565
P 8.16744545418233 8.358924099477312 1.7285964334718162
P 8.822987230877295 2.019144271099493 6.680866464353159
P 10.058026532740902 11.73697008548917 6.272706315429679
P 9.572198250896827 13.758892596676379 5.64831072668221
P 3.8634878140310676 6.038842341430437 9.425511948200723
P 8.31701522732463 12.06967287729152 4.875237628613491
P 6.205732413879183 8.443559651723854 8.100162957664637
P 10.992872312321886 12.069672877291524 8.154905292721352
P 0.8660584589459237 7.00365403773054 8.376493918626094
P 0.16228117315788126 5.973883927159231 5.295398912771124
P 7.384714401361872 3.71573125006559 9.912067123668102
P 4.633944456362284 4.072230009296351 7.02814959146489
P 7.644827670884734 9.16483254656464 9.623365167921879
P 2.9545519304297168 7.840212744674797 8.483516448223694
P 8.429073935664334 8.141764897613013 7.818504895918082
P 5.0375479088054504 5.27650751090772 5.19647676293512
P 1.4976275011675542 5.61510388407566 3.612357410356882
P 7.263738913496175 10.294013836189597 4.0816702443187936
P 7.597127635150423 5.791281539007587 10.563406555149369
P 7.793983922808667 11.382359229387687 9.108634129675385
P 7.775087668227056 3.8481609054969037 6.044431325615119
P 7.508029440675694 11.685269985147627 2.5386031430714344
P 9.687851107672552 12.831158747324574 3.6051315158226513
P 8.234888741186769 0.788591633104627 5.136924043769209
P 6.336424804662517 10.892522688080385 5.969005287709169
P 2.513582029492724 3.505529264929465 6.327168266188722
P 3.0696462764687715 4.347044541821495 4.365596425628002
P 0.8120956310178884 8.024162408106417 6.374900341112215
P 8.880334513750475 6.1105621720210594 8.743611057888282
