38
Energy = -196.07677673 eV
P 6.850041819177315 0.08714792730645808 3.0499727743558016
P 7.288597956562215 3.596122032344298 3.695311176383884
P 1.8811037775088977 3.4063451764310018 6.164410487759861
P 1.7843740222749864 4.054901564846382 8.272126134513877
P 5.734351452823584 5.400236599632244 5.784530436354244
P 6.0398169013781295 0.5073540823851966 5.089581862464219
P 3.8147162544089186 6.4128822774832415 6.343907651693893
P 0.9312579476009785 1.8234906326546183 3.525899770011469
P 4.006699950515313 8.767673927035496 4.049873872847783
P 3.116090825434277 5.830698168325975 8.395530577407984
P 4.522924289621279 7.138834891080228 1.2142957831515182
P 4.425557818320826 2.1760360081136367 2.328181955974027
P 8.775707612201176 4.297424850471865 3.101842077970128
P 1.0376734923392514 6.565784197134694 9.874240831144084
P 0.14345155399900986 6.758763147565408 1.6066696223179002
P 2.1001666677961133 5.475886554194543 5.314863659835941
P 9.30714718533647 2.7300451748982235 4.303390348485737
P 2.3336619974570176 4.758187672873498 9.838850027346133
P 5.336637498265517 4.678798485372033 3.6839698316410403
P 0.20363432876097476 10.131338392439048 4.014713916187202
P 0.6733993393506438 9.349640019087087 1.2359394050273673
P 4.831759366908211 10.193942526060326 1.9100600841852768
P 7.112352915902343 2.3805477730648907 5.599451995657681
P 9.303731584763625 5.687875358741135 0.02558196673624031
P 2.0781106434024856 0.5128675726090951 0.5543744080335973
P 4.092463518933941 1.2905555011495062 4.366427298028976
P 2.9758538398265753 8.205860551013323 2.354132032301756
P 4.2041933964414335 5.207579096573214 0.27757291041960797
P 0.27356364417044166 1.2881105156252177 1.3488099746586695
P 3.7630614214002773 9.439510652735162 3.722089953116783
P 6.156346403229145 6.505829772406928 2.5424837991349216
P 1.1351184008326256 6.014073936623963 7.3592420514509005
P 1.6826094576914452 8.767673927035496 3.2875524870935404
P 5.493887974165027 3.3927555093405855 6.785576286088592
P 6.630654103574911 2.1213498610486394 2.1565116982022374
P 5.973459043708768 7.932358148235382 4.177675207611323
P 3.6582283441663876 2.1485227941023703 6.363135323428561
P 0.11196677540852645 4.519175345444904 1.5871558998405058
