38
Energy = -196.10113126 eV
P 2.3008928367883072 1.9141202551494876 6.4975091230446
P 4.8267193675567475 0.008486940824519599 8.34015364821047
P 5.336217506528788 2.157236950852652 7.956964726659169
P 0.9453063683481787 0.21493657089978804 7.149227224714956
P 2.60224689798152 4.019827374399617 7.245106803721256
P 7.847723486478221 3.823907710621356 8.20620660944217
P 2.7183313654188646 0.7759783765552275 8.3402231170611
P 5.506834501585545 4.611274981292105 0.6929002012479604
P 0.9325977916380886 4.928622708890772 8.430703519693855
P 8.1244565848496 0.42662372494285095 8.68319959159722
P 4.666744900448668 8.69315058507617 1.7905977900236265
P 2.028687617878345 7.519640120951895 1.5815151070722275
P 6.794329168005839 2.748198681345269 0.7399731220243307
P 3.718741236252402 3.3070445614826482 0.2536114100714977
P 8.300386380338551 2.4052449459746343 0.9619352140836089
P 1.092425328079754 3.936057793707798 1.6484896862795255
P 8.574693385472084 7.5859176730511475 1.3428807839350487
P 3.334129350768293 6.543891474155424 2.357040491766884
P 8.199709879255863 5.171272191871398 2.262534073072055
P 2.5696395867654664 0.885373315251086 2.156718115299755
P 7.009201877837897 3.0137671485835247 2.9147184650201745
P 5.379801851694229 5.706915027375965 2.652839891477356
P 0.02185856499431259 3.0899721219106655 4.131907291196994
P 2.294484213020797 5.015559030780859 3.3719470287654425
P 8.627148594347005 0.15401710222152876 3.084130480457381
P 6.264015553882088 1.3249197124788115 2.440193752471248
P 4.640219660764086 2.4450703691835938 3.4339561082904875
P 2.2971633338509303 6.846526184719822 3.7604624696166518
P 2.742932747983096 0.17524004601181054 4.357650214974047
P 5.455253627299882 4.2630729524497255 4.393613446306253
P 6.794329168005839 0.7942496593707346 4.102631032890489
P 3.085904988575077 2.660684810361609 6.3196347667561446
P 0.26697838720772676 5.305587413288317 4.346483711820925
P 8.106744435823678 1.6095103817425245 5.700072102279781
P 3.4458329614408334 4.523865922882016 5.288870117023744
P 4.491219675967449 1.2500997901557465 5.312557719725261
P 1.1274027453028712 0.23489283938199604 5.883750427957909
P 0.24057579372373267 7.383887739418147 4.578972336109196
