38
Energy = -196.96706174 eV
P 10.867567456651857 2.0884213642881955 11.262169881723235
P 12.392852250027286 3.6354357748999857 7.922694487499448
P 12.273034810200308 11.423472261737292 9.55427583945469
P 8.98938444972999 3.1353692342690276 8.497937386587722
P 7.409790417715691 11.33773991229426 11.256597543616703
P 9.338861269363637 7.578667729013519 7.7770707782698345
P 5.3802890351541 11.719903404694161 10.52535508368976
P 3.366865374512782 8.5268939696059 4.688929104720521
P 10.707539699247235 10.396429744644504 7.902502840784273
P 7.655882762964092 9.625560920339566 9.869263496868518
P 6.683497660916979 12.684578082361664 8.00188816976511
P 9.147601086504412 3.278484768252383 11.98926720376378
P 11.17059581237991 6.306148181909228 7.7963583536895555
P 4.92088794826519 7.012511166150592 10.0163200295691
P 6.314224631508027 5.815320317899288 7.383067893471554
P 5.008978691052171 9.598964924134712 7.452407846337758
P 8.543868462416546 12.804701730582165 6.574370416757665
P 5.419965215524231 8.418034073299008 2.351566524810941
P 7.136058318672232 6.706997671423919 10.63400818440201
P 12.242418670683154 13.331214644173741 8.469803804695509
P 5.139144251562792 9.76502986535615 5.204851593828246
P 10.167530928138861 12.51166087709053 8.15821902836958
P 10.928512869398295 13.012301901253363 10.230893156934606
P 8.025044128988533 6.0921160930376255 8.736881917353465
P 4.86954626326977 7.442666947858015 7.874993251999099
P 9.778439210641517 9.05012026954056 9.423793560814396
P 10.680047784349194 4.561954328748858 8.941372508092762
P 3.510967702517108 9.204964937792193 2.5565511662544096
P 6.334072146835088 4.594496772514982 10.79206249201675
P 12.044929162712334 1.6109185480525494 8.124381735389406
P 10.945354616054976 4.306867327553925 11.187473013146095
P 8.563415651212754 10.635801929793834 6.391682897307864
P 6.937913486509061 13.203491189225621 10.128295107730914
P 5.4241950289017735 7.6862027241679325 4.466214378323696
P 7.730497493827094 2.9500642678737203 10.285627090819562
P 4.981327873239504 4.932743106801486 9.054720121241704
P 10.113894561778672 1.3814388863205072 9.245447952059576
P 6.952833591332358 10.535802644610538 7.99676299540822
