38
Energy = -196.96134482 eV
P 2.767142150865414 3.8021356239545088 6.566889009648031
P 10.567140292567723 6.614346794269635 7.52549492183595
P 5.174392795257203 7.423081866067178 5.380742003883714
P 8.459161279121789 4.1683598187543005 0.597978906021395
P 9.319446120291994 10.670477213188445 6.082342535121352
P 7.183451350915106 3.9225078606864665 10.600680843987115
P 8.957199423687666 4.177201032144917 9.36107713938988
P 5.524764205066257 4.8749157717218825 9.212008202901412
P 7.170478035588606 10.187311231420916 6.610339424437619
P 10.488893714781126 8.798606995935694 5.379032314114693
P 9.627152615978304 9.94230594386838 8.199938241409065
P 4.837097456474429 4.513371865945963 3.9100035686947923
P 6.178601670638851 4.486123551731606 7.143835066769007
P 5.9962584751524775 3.235917332035747 2.5237677009379196
P 7.034337082128322 2.1242440525853463 9.363771841495918
P 11.395923531588792 8.715717429163858 7.476392416193512
P 8.24713969124992 3.449156755683587 2.633784659310648
P 9.056122735543793 7.2116300812694485 6.000111008501493
P 4.0282348091254665 10.501404612776927 5.674913201046338
P 2.6821063804239325 9.557732390378494 4.142111524496263
P 6.719538873039581 6.647304022936526 2.35983739474082
P 3.093158816416172 9.201136385669574 7.272664778567331
P 4.710241332481132 2.7432982068768994 7.167226302381294
P 9.361584187298599 6.426140280050609 9.423029510627357
P 7.934275493036816 3.1909242508944144 7.616337587236615
P 7.295562785967718 7.213577413674542 9.110594175783906
P 4.837237846473517 7.9367537593808395 7.620605004197759
P 8.714337308058116 5.576543505289895 2.204074234912462
P 6.5393833909696655 5.9069989442569995 4.448349777460809
P 3.9374886872565176 6.4829336853556265 8.9962702601749
P 8.085257549934122 8.449955651141968 7.589479962077484
P 4.223294926912119 2.9836470202384953 9.32406561465653
P 1.7950295858564569 8.142031874582521 5.727477146203945
P 5.857575172658468 9.500448673326094 4.9035106669880495
P 3.246631293082925 7.384631008392349 4.272486906069755
P 2.0809407481263 3.6566608703090084 8.734643231026089
P 2.330118354453255 5.617972441075535 7.74805791148063
P 5.185269052105778 5.106258435230012 1.708883533032172
