38
Energy = -194.02978666 eV
P 3.227809746433217 0.44864698570597683 7.095628949789986
P 2.4195239179401797 3.2280657997338222 8.102535753711951
P 3.578588942933474 8.15728693484256 0.6308015257634116
P 1.482801386976318 1.584278277148493 6.654500645289546
P 4.290785852291937 2.209137500345761 8.049510586534607
P 7.783626219546543 2.371451370277447 8.338425062061306
P 4.3784691937869455 7.284572556992455 2.491323704595818
P 7.488757567420868 5.044279979907238 1.5635286309955538
P 0.12968960397969004 8.689992116350261 0.0795142293005544
P 3.1679697155886153 5.211079393749662 0.1159597451978444
P 5.034820951083352 4.1773806494838 0.409910436018888
P 6.893121735508407 8.927440981408314 0.4852743196329609
P 5.129759936563941 0.8211939649887164 0.9234564419668557
P 1.908209908002156 4.964740974672572 1.964316921348646
P 0.6239041260700576 1.7074888189741828 8.722050951828859
P 0.18139625690479413 6.246556544487976 1.2295581915103504
P 1.5528539879468628 7.523217607815287 1.3011202687426857
P 6.893121735508405 1.805611158340476 1.0788783885185316
P 4.796660198698989 2.740162351346265 2.0575981308828517
P 2.6549580745392896 4.224810452464467 4.69341688764361
P 0.15139333480022873 0.7026198236821963 3.187205611298321
P 7.847343597582734 8.997341995537864 1.718652618424455
P 2.8410675959877025 6.726939769121955 3.030302229632485
P 8.20754792295927 3.0913174458509696 2.406925023725333
P 8.234031115034053 6.374361018191711 3.1094034559636317
P 6.216673678105018 2.879244801271355 3.6465917722144567
P 2.7790960069718356 1.8046759670750103 3.4917979791951534
P 6.123836430183236 8.771544589004549 2.5293424713918493
P 2.163172724275701 6.366784948701134 5.127591288069562
P 3.211098267459183 8.694582793388461 3.7480375071349137
P 8.210395478116064 1.1611315243352875 5.00911468586376
P 4.605642849073543 2.0138729443429186 4.8319205416821935
P 1.1443373014142184 7.873200526916774 3.5478239995448266
P 4.219874369408749 5.77647070055582 4.503106989390048
P 2.202934549541358 1.246828812197277 5.8725854787968785
P 7.46006940137418 3.0391099113434015 4.4393841834273475
P 4.073328210697709 9.148854460236883 5.782541870914035
P 3.449474466280088 3.0392670706526994 6.471111714532304
