38
Energy = -195.58082635 eV
P 9.34690944170219 3.3774576896840367 9.213502913657825
P 4.4133322203570255 1.8142577781283995 9.216144209019212
P 3.610968331775549 3.830131580311856 8.52990418949587
P 1.0497957321674733 1.8518503859618718 0.051515918134191985
P 5.484860549208538 4.767897166497344 9.367172694973416
P 6.28446756601188 2.7561558253129417 0.3077792815003501
P 3.38551738512734 9.266369070222309 2.493396843503983
P 6.511160556684806 5.28278141562106 2.6292285159586726
P 9.714542173958044 4.67550876598282 1.1149141039213282
P 1.666985234355544 6.137481304041836 1.237256639821608
P 8.99397066844758 3.3905106328690113 2.803785282391699
P 5.489562264479847 0.14458086718986407 1.8886858231473844
P 4.897398775632287 6.07137509043806 1.3423548140407267
P 5.500066218701367 2.3871480901366633 2.3713934702932002
P 7.147085942448092 1.8204537111321386 3.7957260872527496
P 9.543818440581866 1.4353452882315147 1.8632942282242417
P 2.925357753633099 2.9513670549432014 0.7122088028007986
P 3.6282656965529285 7.183227323789183 3.72032175075533
P 0.19575647518238637 7.4230820568711104 2.2430110523245457
P 3.181716981648354 5.237111003351836 2.612446588557768
P 6.081682742695251 9.616684715944363 4.041573601160441
P 8.31922020970244 6.334225299053084 1.5157785541859754
P 3.8848098615444995 9.68684518951784 4.677467043287362
P 2.110767544954295 3.3473093525166684 5.535230051666153
P 0.09315712031105215 2.641705909877201 4.816277775252096
P 2.9372642919975895 1.4948569939051515 3.4054496203390188
P 5.6149836862020095 6.353600715361752 4.1876292483285935
P 5.053369845373578 3.5214781848105976 6.657177767163706
P 3.49180762672404 6.919364792383539 5.988795012299859
P 1.9405265208189062 5.370376483592681 6.49687409744662
P 7.10613308185608 3.101073824390738 5.627302401977303
P 7.03295401095181 1.4305839177814288 7.07853389216946
P 0.8500003227060526 0.7801719567683003 3.8196832138462637
P 2.092997061411673 2.5150884634143456 7.571828108523958
P 4.746322374013142 1.3672131671066752 7.407188510085007
P 5.5447676195289475 6.027332854021415 6.256919406435195
P 3.0749783409361457 4.355035512580898 8.08643471880288
P 6.008421174368138 2.805439565983254 8.52990418949587
