38
Energy = -195.23970429 eV
P 6.325050212685684 4.096726933228557 8.620249630271173
P 8.190044032684398 5.855805512553788 2.582553329206258
P 3.347385137329135 3.7567811189136253 1.112532087013715
P 4.843635205269917 6.670720271591209 1.6175480574284224
P 7.5457993275754545 3.973112239634331 1.7060381942599285
P 4.426519970841079 5.33102719627963 8.666639125489665
P 3.668772312317884 0.350031781353352 2.599193948721809
P 5.183606093122333 2.428934603637816 0.9495274608822925
P 8.732863246699072 5.521790990330798 1.4843462166335388
P 3.7825306262838847 5.0907753494835095 2.9273942167931057
P 7.722005996355497 4.864586150465617 5.924047150347074
P 6.729122920848366 5.879519618389202 4.124170422859123
P 3.039771028295489 8.045545932261728 1.656473719935928
P 7.102739169376712 1.180509575600432 3.5772853824469957
P 5.348272860394638 8.079225587958927 4.038360032653263
P 5.952843555024833 3.0227968440268898 2.9711702275517413
P 5.47684381895102 8.425887418713565 3.6317100293957325
P 0.7006231048336092 1.4266703805838312 4.147788680906166
P 1.9009507735841644 6.250003368140459 2.2926690464747117
P 1.600868374551802 3.4548906517255875 3.911569792503622
P 7.1677902383868055 0.7657019515589117 5.878451934742413
P 2.6968424490483582 0.4923212243911867 4.441903831490857
P 4.2672397360582375 1.9648192805324545 5.731812857870339
P 8.457190555818864 4.452395646870366 3.4049919832006768
P 7.553283517158407 7.054503283125961 5.837080789866662
P 4.2092531017211146 5.860730740529239 6.242515876160159
P 3.265892657168803 8.407122363496095 3.8451809336590466
P 0.8442750279195632 2.824466708701381 5.91917828774524
P 0.09541042673551992 6.634640084984679 3.46438613672009
P 5.066324850352282 8.641837266320431 5.832770177089419
P 6.750306358957923 4.041503121526629 7.743099999569377
P 5.40536283345989 7.766358224003112 6.279639078147343
P 1.5538829548108353 5.083404754678777 8.194675864735
P 6.006860479632181 2.047977503448733 7.230898181129697
P 2.5404447460835353 1.9753384211924891 7.133624299905688
P 3.161801328129056 3.6106360208590953 8.620249630271173
P 2.261651856223743 6.572763197229176 6.941090486884203
P 4.8009207104688 5.075136467542937 8.206968255705476
