39
Energy = -200.00191862 eV
P 7.921196043769442 3.662551252297115 6.555589089470158
P 4.4115301434819845 4.422175878663593 6.480496582011383
P 4.412748982329026 3.0226395533245545 4.661531255295282
P 4.504982835782851 3.9996922636288534 9.661754949500367
P 6.072061979525066 3.072216912719256 8.366051584988512
P 2.9188272382556173 4.358088677043112 8.179991214144076
P 4.367204334719849 5.995684958206436 8.721642535943632
P 3.9348799091303213 9.665554715350982 5.028750845679159
P 3.097562991670288 4.773799881236291 4.7306872701808365
P 5.680835666361835 9.286901691505232 3.694250736596023
P 3.0743318918304214 8.994513889638073 8.160098927145864
P 4.17032262332472 9.206442522873205 10.083717798631373
P 2.918789632743759 7.392385929896139 9.736726562743323
P 3.0160854611762113 7.6621040696419165 5.112989491482746
P 6.255180824285686 5.988542700085465 3.381469511970422
P 4.5668754786273515 8.23304849337049 6.623151351792534
P 6.315765364448149 4.192559308068023 4.7612587839394065
P 3.9720263387578387 6.397928510158005 3.5167552564420417
P 6.942705516105496 7.673930745712292 4.75648754818897
P 7.646788284520143 2.396008387096266 4.585728092871895
P 8.46141064473765 5.239554357948358 8.51874100346544
P 9.88634261352596 6.7376544179860485 6.2688201934133865
P 7.443238815031896 9.996699020826517 6.363784953985801
P 11.187177933936423 6.04356252312246 4.555743574351222
P 9.47097009417915 3.5595447956221498 4.907268596359812
P 8.737587303743656 8.229641300753475 8.386998419672308
P 9.419359469563378 5.179025991283927 3.516179151251947
P 8.687365061795397 8.498370390067064 3.5511103365544416
P 8.763265321153005 10.483924624210204 4.6060026678504045
P 10.548641387262688 8.165429606330829 4.742617680920865
P 10.875679837439906 7.754023165060427 8.057289457087165
P 9.71236095576642 6.720823725230007 9.691871294253978
P 6.29060813574893 8.406740265441329 10.012265687815699
P 7.612579029050199 11.38266177186294 8.052714216265038
P 6.626811523655372 7.1091716794592195 11.487113511020992
P 7.705562487839353 3.568090719464059 9.769224260403204
P 9.329275644480989 3.1773034588471827 8.332364209849404
P 6.63521001557454 11.104468865057754 4.615529681604524
P 8.217193427509338 10.057880469541969 9.576572711906602
