39
Energy = -201.59040059 eV
P 2.442685268172234 6.009195387624755 0.3841987706460311
P 3.649819950815675 7.714109316088837 1.2206185331698625
P 7.230929181930678 4.480054354959484 0.6372482286774955
P 4.462994499422691 4.877549679952388 0.32975147788756437
P 1.5064668419742524 5.674932473908882 2.4620429340117185
P 4.822396132928695 5.98706383599727 2.1815592562381347
P 1.8177815688056649 7.895566931867448 2.48509872962718
P 3.8213140703253257 2.8280368166399 0.9290790861332819
P 7.174039468997174 5.794197450646473 2.364785166191251
P 7.253508375717284 2.4276008256304054 1.339367710026494
P 4.6500950922944595 8.987290561164887 4.560875315541382
P 5.4460503077617775 1.4548162247695684 0.608215617966637
P 2.526357526114384 8.356545952884392 4.551143865688231
P 3.3162185500064276 5.1841948296631655 3.6818335856316
P 7.31191132509101 2.4248526812554285 3.555646204609572
P 5.230510665449526 2.5500211299204434 4.34272559999594
P 3.3700418919659128 3.0280745659498285 3.15766648940548
P 5.60132759170902 7.278142930594973 5.668712083168825
P 7.722032120936347 4.521954353359167 4.07084497967422
P 5.59209116451973 4.512029974703126 5.422993126489705
P 4.692395105166136 0.6972700337122408 5.397416962910935
P 0.9179272633589085 5.251823834850257 7.621314167542469
P 5.076332788620966 7.512033451050378 7.803043122096305
P 1.6145497660807198 3.835247922949517 6.208424982297176
P 6.849129947015529 4.437389379026292 7.338017719537206
P 10.840306355335908 4.700096591520798 8.89728916046147
P 8.278599909464809 6.102121118200686 6.996185322946005
P 2.1033706163523465 10.468112345548022 4.971206315404912
P 2.2126129791049185 5.7369080060379725 9.152803330242753
P 4.003813667905815 10.676206400809459 5.802295480410613
P 3.6825931655320847 3.611306578733572 6.852487812331034
P 3.780340415843681 1.416146886253393 7.101561430269047
P 9.30172372893019 6.343157445339438 8.961509180404109
P 5.646355360881543 5.580135566547568 8.786679407610418
P 7.111453083362427 8.040576030023406 7.083977235211318
P 9.465128432875147 3.1835830330983623 9.8132653254806
P 3.843633662034392 4.2584180097168405 8.95374370724316
P 10.591537714487774 4.545541023884032 11.119534836172761
P 8.445230717426698 5.023302339835757 10.590444015365156
