39
Energy = -200.84355155 eV
P 8.167632978031554 9.86462033797977 7.937666725590503
P 6.181696433354882 4.144956972599754 6.9227032746168335
P 9.336830162628873 11.75267534267656 7.634779901548325
P 7.808143005654297 5.177979938003514 10.433563244695646
P 5.095301371184544 6.71426877054859 3.638327070061195
P 3.700043302868762 10.227776390945857 8.033744204614683
P 9.501205482643687 10.199420668636408 4.432784823588737
P 11.158660717368813 5.048377131299205 7.707132134727507
P 9.999504674415386 9.948972778070162 6.54764438896977
P 4.2203408010765875 5.316662158289753 9.628025983582662
P 6.191388296824962 4.486064401552636 9.145859844944102
P 6.834626753023492 2.1015176006425023 7.216642628309907
P 4.0921213037527036 4.298780594875655 6.2642436767884
P 7.269971326183205 11.708167457259153 6.797128266831229
P 3.5159916636572053 6.13258447097859 5.158073737674131
P 6.971134770330179 2.411323008321114 9.40685828156684
P 6.749599257819277 10.071166274489945 10.018945895820092
P 6.154409802511014 8.00591194863384 10.453502416057367
P 5.273832446442392 7.080857147848122 8.610136277913535
P 5.128155025943297 11.246609791262552 9.354353173718696
P 3.211955915522366 8.02902193165286 8.383507887676352
P 9.832008220929996 3.2518041925005683 7.657783210509776
P 9.03957944717447 3.460049059467859 9.709402984142969
P 2.9859155306157947 4.353667783354652 8.136367086401005
P 3.2474087194500183 8.17216782335398 6.14190174998614
P 7.437000478509559 11.276948484579558 4.662012418381051
P 9.503307272847973 6.613167680869417 7.591477229448319
P 8.310348921957804 7.319411660952264 10.645676865593892
P 5.149599241167187 9.247250312384883 6.58776705169378
P 9.664718473024347 8.153101372443482 9.115532491345634
P 7.792753615147954 7.489471172575664 3.0702748401616002
P 5.497735699038489 10.130267530618038 4.491399977232811
P 6.4260318924808075 8.114227155000547 4.702185332130686
P 9.009387111520226 3.8108971073911655 5.652401647972236
P 11.00743427916015 5.027440956724049 5.451082310424735
P 10.70618680528068 7.2135987113048206 5.822002193426073
P 7.6091630548452365 5.529612458073599 5.878853984316643
P 9.828553799033465 7.995418225093324 3.912655078049479
P 6.972592942859208 5.456054193026549 3.6278707057685797
