39
Energy = -200.42090337 eV
P 6.82269136755478 4.6416220504739725 2.7324972953246958
P 9.598992286342437 6.559479224532116 1.3255223782950358
P 7.960021221868944 7.571845714374768 0.5586597635891477
P 4.179478717814751 5.982156683036399 1.582947668265204
P 4.9015651390118045 3.848576584711564 1.683773412800093
P 3.335677015947202 2.676011275442344 2.772075789561068
P 9.06251329122351 6.532426228972229 3.4270247355141157
P 6.701071550658393 8.3326457976758 2.2368349662658646
P 5.718957628864271 6.526263843848077 3.1084494688791775
P 7.027600381353564 3.922715870766654 4.8531103458440175
P 2.289760252006172 6.17773521348625 2.83536245453336
P 1.6185804005583913 4.082752670287618 3.1511109788997844
P 8.356715330682354 8.577882601858878 3.7207303125442683
P 10.708750073240973 6.616945466875349 4.899166592541532
P 4.078423457359388 1.9529237611310073 4.744020481855886
P 1.1365927668127167 10.261802322996218 5.843355927944291
P 0.08041448510111746 8.930333901936637 4.5869979480845835
P 6.865858212585825 5.820285792698335 6.087128397576495
P 3.5944327472058877 5.237059547770706 5.9949123823544035
P 10.340654469945065 4.465894560258394 5.90460891436105
P 2.3340835695161193 1.914163185195853 5.957037360055988
P 3.0086294783311964 6.962340946376472 4.795378306832154
P 7.47649331293641 8.027866050678828 5.681771143070776
P 1.916730334310211 3.9239068603719387 5.361725479448292
P 2.180252359217997 9.573449521057357 7.52299648356891
P 0.9071953976932732 7.190235921461828 5.577949542810204
P 9.057791394970957 3.099238097568693 4.934133868027772
P 8.814491972920742 5.568530721166641 7.040143369836127
P 9.55554905712764 7.685027580445587 6.524062434275862
P 6.415959141812048 2.846790484742663 8.27150697007832
P 0.3553381821118513 5.0900438060373965 6.478283937182793
P 1.1574219135542572 7.652327564369794 7.665308411039063
P 2.0971492909763105 5.597039714692581 7.784666955412201
P 8.520998549773397 2.5519782482995077 8.81974245725008
P 6.217238591798378 4.694026383896811 9.401767889529674
P 8.376951490662254 4.695489070912441 9.121104280666279
P 8.492558975623142 2.609931746827483 11.234434266495485
P 6.947225387668129 4.111586217827626 11.627154946100427
P 9.043991589029012 4.743469551108238 11.407342469456236
