39
Energy = -200.54049374 eV
P 4.3355723481749155 6.314323383055346 0.5640658920813252
P 6.096616026344875 3.1029713398989114 1.5658702411152476
P 2.3786595577079024 6.578957414807373 1.5914273549324325
P 4.388610963603207 4.219175842811246 1.2313847083400997
P 7.26165720851504 6.653952008466321 2.5872263264769635
P 2.5287750392754877 3.3630927066357628 1.590965913842235
P 5.583511742091857 7.587423110358765 1.8588964223269455
P 7.665108546384277 4.566824941629342 2.082620225604617
P 1.1882123809266187 4.8777854116552195 0.6415438963505096
P 5.471728274944498 10.335138652441188 7.156536698306517
P 8.41187840751621 0.7545131848273676 5.181269268941877
P 1.4767806686097684 8.472124861545161 1.5920813981410407
P 1.7795593572432287 5.87880942458825 3.640859294055552
P 6.036456766060311 3.4188403827451346 4.885014215517712
P 8.017191923925877 4.244253724084251 4.302610374328939
P 9.99464241221403 5.157139492860268 2.5012420643164752
P 7.88995769956611 8.2065157124071 5.78370384928934
P 9.99464241221403 2.0087591212749127 6.2167081100721715
P 4.359847941173747 10.004571293400252 5.315276314478185
P 4.178094796939772 7.344610615098684 6.892294166574391
P 6.449387246713572 1.4861464877688089 5.943909224759923
P 3.413233436856336 9.473713672966692 7.212757309381158
P 3.2819942829499342 3.7565129524480803 6.506230298409099
P 9.338007019057185 2.4795225823877063 4.12294055178567
P 6.2867509837773445 8.233767569130036 7.170404304784127
P 2.583880586238164 4.637678930336589 8.41986821560326
P 0.2203073912270468 7.37425779925197 3.0488902577997785
P 9.351194172050825 6.906268469869008 6.746836841947691
P 7.174190528249578 1.9563671460763838 7.981673856050262
P 5.388817049173314 4.732891020838618 6.543332506054069
P 3.690118060265585 6.546739428558105 8.901777487292401
P 3.6838970600643997 2.6919405262992084 8.43174709272646
P 9.021226894832143 3.2280288091366267 7.824458681266848
P 8.032512141526514 5.162474246792139 7.185330501145153
P 6.991866036075531 7.803283897109125 9.246462454739545
P 5.742096242199183 3.5628303358515954 8.449170137224167
P 8.703170408726553 6.4675328137177095 8.848780068165551
P 5.530552574380388 6.345542761617019 10.257637754211856
P 6.4226898102958705 4.3775007927756455 10.28897858908235
