39
Energy = -200.88878541 eV
P 5.763462853409977 4.900644863938004 0.8890193343603143
P 2.522507047491686 6.0017462838891085 1.4999315905659931
P 4.777138232415357 2.898024878465508 1.3396318387837332
P 3.0291561778866 2.8624329687506327 2.7745722636286083
P 2.348963579788678 4.8589300433476685 3.4324339744375996
P 6.420420348593756 1.5523004201456354 1.9636000618822973
P 4.653299385679979 6.52873379338134 2.0021468482227043
P 7.826864763224648 4.678170518053004 1.6171374022364096
P 8.071564263409195 2.6197647357636997 1.021716794029086
P 1.5742363986333914 7.84404382535645 2.305842376567276
P 5.1255620695684945 8.538756235581134 1.671444836898738
P 10.563913778802062 6.107672065426979 4.313996148323206
P 4.225190299828884 5.856766658024626 4.115140833408229
P 1.0272224375025993 3.986095287374029 6.193238014863313
P 7.581550871037608 4.8194095635719965 3.8376360574232242
P 3.1988531249663077 9.391720980758885 2.2886119376412775
P 8.477083683608738 6.7763198885254905 4.423056870865392
P 3.463316260048272 1.2907733527257177 4.393667280252644
P 7.248601420930789 1.3382991305069158 4.0092015218318995
P 10.998341151782595 5.273934379065672 6.18726870608607
P 4.11819026578578 7.6971364173773535 5.260260665235438
P 8.501600135040976 3.0325450775828737 4.802847834013773
P 2.3394720716904107 8.638644225816158 4.2651873745624345
P 5.444802070351153 0.8160172282713339 5.245949242066422
P 5.640574816998747 4.385860647530127 4.853581463668749
P 3.1634231229251597 4.58485745075512 6.442014020881058
P 2.5568102634916015 1.5140956307989102 6.3763981371858405
P 7.927196307319113 6.75359856643006 6.588347075748188
P 3.4669502818072706 6.664258265808738 7.241326985903539
P 3.7906457952054624 2.8125341054202697 7.660017770536298
P 7.632283973896382 3.3032097630143893 6.92014147848284
P 9.48448746986613 5.57331317910419 7.605871414682423
P 1.38949943048557 7.29323662879146 7.6967934632061
P 11.207097621070341 5.942325905711451 6.631427765113842
P 5.797466270457943 1.9024291838379437 7.152528797723996
P 6.357433298839233 5.1159221053673285 6.803754818103825
P 10.998341151782595 4.196030897831579 8.00653966683461
P 1.030399546539548 4.512693903211976 9.751583799167776
P 1.9657087483539 6.325077783436839 9.604460373324299
