39
Energy = -200.24727588 eV
P 7.150550819991254 6.91993376742422 1.6548664830540039
P 6.510450110393418 8.950061935256853 1.8953831668317886
P 6.096232587722066 3.811805473960205 2.107674884020036
P 3.486253038542226 6.054842287862003 1.6934898009582693
P 2.6993891304216566 4.23826002122426 2.536804108885459
P 8.571826807325895 6.495618794035778 3.4256425464763867
P 6.123615004230805 9.132854564509044 4.023488388035342
P 5.419801087185952 5.880559067804072 2.592173294571275
P 4.237339354055044 2.670226656345348 2.447455890545866
P 2.686290731357652 7.650438936615924 4.663708501169872
P 7.024548150943912 10.969274013763732 4.6785202220628035
P 9.167771360043211 4.289955674727503 3.7361843622356643
P 7.005955191980281 3.82130529548582 4.111682371863769
P 3.919553345591983 9.513752634021904 4.477424977775077
P 4.143532221981647 2.303175948342692 4.835844920069743
P 3.0327357716245844 4.201782732512356 5.141642807525888
P 6.41182219253195 1.8632653065397666 4.921669225333161
P 4.12738930122956 6.138852071506846 5.470883055731239
P 7.2598288402890265 6.027347385970103 5.210623569632778
P 3.5996237783530645 1.6894576190401382 7.121809136915146
P 9.213960366588314 5.149964212534025 5.8313508115707435
P 7.31397919264516 1.8334643404696425 6.9876205277396535
P 5.664414979736911 4.9613727282252125 7.480504201791235
P 2.5670500540521566 7.064760046172823 6.834883317371039
P 4.259653879654958 10.188374504531806 6.584294783964863
P 7.0555067232803115 8.160677806158162 6.257372222086873
P 2.4458981688695114 3.5510370569536156 7.393801005619746
P 6.527157668186132 10.418468576973645 6.698604031425601
P 5.429372020769395 2.6222522831273527 7.8059585489826695
P 8.790527007700423 3.759809203573142 7.522311399953343
P 3.8702760154293094 8.4862137046291 7.993760863890507
P 9.315147708907627 5.926126414842801 8.583185527801014
P 6.899540715415814 4.270429387365755 9.251424227074704
P 3.7945148450560944 4.780597015211614 8.772573956456805
P 8.765249678336504 7.98553490773633 7.976673734503215
P 5.770411185788832 7.357118674274712 7.876100361872039
P 4.972465125000703 3.2018031323862917 9.918316617866457
P 7.854537126700844 5.960492697826214 10.2781975957402
P 7.121063345288074 8.003967753261264 9.511329183797192
