39
Energy = -198.80196317 eV
P 5.622546619322544 10.225635971893801 3.780276790820524
P 10.562972942918924 4.980094440790539 5.95745476621255
P 2.4007023084459624 4.310691508809524 8.307740043306707
P 6.32331714788378 3.000330413594776 2.8693262838071507
P 3.1808952192340367 8.874673331723749 6.033342354166981
P 1.1191826994566294 4.179042090227277 4.647880091189078
P 4.179103665108049 9.284296533968924 7.982253557440165
P 11.52069267273083 6.711668143506909 4.678018555136986
P 6.595518895557091 8.06815016828445 5.490931018500473
P 8.298284581120209 6.30585437722562 8.052142152819366
P 6.787015348252553 10.313220655565273 5.7465032459245515
P 8.296327395336291 8.498986864460882 8.159238893458364
P 4.491157780207596 3.6607292239224396 8.946949687996641
P 8.529030840174737 6.087852942233842 5.581888653074402
P 3.351360877926611 4.607023671050216 6.121837935165827
P 5.653853677736189 10.920112466803507 7.57360334515876
P 2.358568691861511 2.5221796933098974 5.6362552097296925
P 6.270411181614985 9.163439636497987 8.825770558487418
P 10.58398873773576 6.188524730429232 7.947714327144921
P 7.141160217282002 8.562136961708537 3.3807651797854437
P 5.110937924973021 1.6243579696346728 4.148059519992463
P 0.5091709553794695 6.173592335626543 5.639748974547218
P 9.647282123919544 7.003758447079457 3.4367721468245374
P 2.970454194169442 4.9640153691363516 3.7723576610258855
P 7.737672307599804 1.9440438174148336 5.618745999345911
P 10.178715122526478 7.458597161001263 6.217273301543336
P 9.324227426061217 9.480025006184137 6.207708517011734
P 7.1268489469712 2.4044970298279313 8.865177771929549
P 3.0682034873387427 2.3018362913843036 3.6054459058053427
P 2.5442455533789055 6.756025506250814 6.3671413176041876
P 8.087890693097002 3.2994244268536352 3.910837316567837
P 5.071949922739694 5.318805544797792 7.573824758123592
P 8.619089178019623 2.724534040273955 7.481051468341288
P 5.226017534038995 1.805362772564173 7.842948099465269
P 9.275307472946926 9.137698315572324 3.884919749554038
P 4.604101289017988 8.30842936114879 4.389334937063664
P 1.884127379406412 6.952844934064392 4.045892329343443
P 5.725753769794637 2.810549566260408 5.92141135674257
P 3.3019379039462655 6.30565038319093 8.593922429871235
