39
Energy = -202.51854914 eV
P 7.466270026527802 8.995233961222779 1.4171781271949628
P 7.00307730315579 6.871131019980498 0.8664169217636908
P 6.183121109187451 6.0031515591692335 2.757976252160291
P 5.02043908115988 2.052203087585778 2.993816046843876
P 2.903596742500067 2.4193842354895994 3.4629189803659095
P 8.069054877068247 6.781584737293815 3.648261040393988
P 3.5396101608079 4.427433765842004 4.031668670427609
P 9.074651207066344 7.5807951427611915 1.8615749321442032
P 6.432327689199963 9.414878201757828 3.387909988453426
P 4.915469401723365 7.804780476944047 3.2244102162470583
P 5.2400593490086855 3.0267229227428682 4.892202113768185
P 9.619546621956198 5.480705650784453 4.587013818317787
P 7.439859519934414 2.7685438228061297 5.582126886135936
P 10.716317738109133 7.303886178943141 5.524860496016154
P 9.891531699197403 9.011320147723971 4.4147104850595955
P 2.4507685320019474 1.5804412765365048 5.7059865828917395
P 8.289427450988507 4.716982839636851 6.186360211553839
P 1.989673510821587 5.160029559477083 5.391239105117935
P 7.802658139152734 8.52845262639471 4.927937258086342
P 3.8546318030194886 8.256747748639874 5.104680803294292
P 2.091042979996094 3.4538800947173813 6.932715639671974
P 2.4545643456663067 10.450349985392801 7.42254757164686
P 7.048508811964786 1.976385318000279 7.66489315136423
P 6.656159665681755 6.089062088242753 6.796370696467769
P 3.5220300345576883 6.518649958926084 6.3439895223019
P 3.158579703426655 8.940984359698719 8.915163725523785
P 9.918103024770025 7.7008406003972505 7.520302854183267
P 2.0986825310239223 7.228961940298521 7.901961309974829
P 9.585580500336263 4.024744205914434 7.8268343201661885
P 4.566062455391667 1.21676054409771 6.068420789015442
P 7.823299443970732 3.506876671039414 9.073265371862739
P 7.701066606751562 7.901684927566142 7.6857602199547825
P 10.12328736029094 5.9421740127891844 8.886766321863343
P 4.811997106300588 2.0038096561445524 8.114269454929184
P 1.1276006661698106 9.89404236360652 9.086114507485847
P 3.8459959179156438 3.949637834021666 8.098661249086629
P 0.857593118774906 8.92263959175808 7.075112669207797
P 6.5719025528098625 5.341547854120788 8.91880839058952
P 8.124114274965107 6.740822094886535 9.687056361817781
