39
Energy = -201.05009848 eV
P 5.289823484844729 7.949087782344048 11.123859914701356
P 8.819025798904994 8.165257089293032 10.792863657391653
P 6.032716467109198 9.29614348145424 1.453590598821149
P 7.093859713774066 6.780045898884646 10.528505478608864
P 3.2274249187732624 2.364551856584971 0.9923584484964428
P 4.165890802428426 4.196052061229303 1.8925444743948698
P 4.9464911308041914 0.8875194052143902 1.342686759975018
P 8.19877853241676 8.773525265420345 1.6034472009831233
P 2.3417616966217087 5.539297469982939 2.294145559578172
P 6.052638337577907 2.2191195831240385 2.7284841955262533
P 5.311710819689508 7.267902022136217 2.011441181708207
P 2.095603618943144 1.2493426539765788 2.586138915894335
P 3.16801114665025 7.675132104654523 2.5961802843238977
P 8.391557718963595 6.6144613645142964 1.089833104774369
P 4.685882741350679 3.498186508252109 3.957459727596038
P 3.6597782849021216 11.00939910592443 2.7515084070387794
P 2.6514372278994247 5.1669041763924 4.44790819955812
P 2.4611643347496943 2.8614475982789136 4.169999322329985
P 7.719287673789248 1.1676354869030496 3.584035201580495
P 8.457651989577972 1.8829246240650346 5.378114769724978
P 5.50249116918625 8.015492766116626 5.217521498190161
P 3.5904732775114607 7.258431898240374 4.772010842046016
P 6.864855489708371 3.1418511992377973 6.287667165232838
P 4.20082583270291 2.045514809289981 6.609495667056686
P 1.9840532084872344 2.171167399393837 6.237617095224325
P 0.9778909500980606 5.698140442365123 5.827609176946133
P 2.079468478498797 7.595278481824603 6.485700624162294
P 6.899659034035352 2.132665320939672 8.292370481743498
P 5.5254259472768465 7.737134979896098 7.380322258046437
P 7.871140120585916 4.145849680062536 8.01776370926274
P 3.9892794468539425 4.574188778837331 7.01678178022937
P 1.7856678002819457 4.211209847424252 7.327484775167898
P 3.632790199284267 6.697800657057034 7.806957138422709
P 7.012741034014084 6.236596300070053 8.346864481580903
P 4.694712286219928 1.914776651510283 8.785425211517705
P 4.345380942023657 4.0852427036119305 9.191069881291497
P 3.700325150292111 6.668851455162359 10.175702160922041
P 5.738071787650473 5.577230015877524 10.045873803722284
P 2.794645929177592 4.728186967686074 10.528505478608864
