39
Energy = -200.19810065 eV
P 5.468484748729154 4.1426118877695775 0.8467355105097067
P 3.7596352767040204 3.5973882957690804 2.1902953323571905
P 3.126895627784568 6.8322469701673505 0.8735747585631111
P 4.848419950164984 6.073426025909271 0.025780107629048792
P 7.419796932433073 4.855850523833604 1.621118344398421
P 2.685278940801602 5.49306198144242 2.565057715919577
P 8.441867792773495 2.846948104056751 1.4179196264467366
P 5.391558189802837 1.0641691359595435 2.5197038482906664
P 7.294014226730704 7.581693034869376 4.022555893666806
P 0.5720360533847374 4.524914095077314 2.949880294295846
P 3.901170145328537 8.441232881252073 3.623426024070317
P 9.37733223477206 4.928543984515607 3.920981555358165
P 7.142404889253205 2.048945416571076 3.048029587046174
P 3.3554585958085257 6.449890419598766 4.531220953935331
P 3.7897444946044523 3.284907667938607 4.383558226090947
P 9.971715614235098 2.9111486737341603 3.165379450602854
P 6.286882084868797 5.841241275440659 5.009386408656705
P 7.287073953760128 4.223847927408198 3.9466393495742014
P 5.79710571261737 9.19818535873732 4.497295708661175
P 4.880458235218373 1.4282981814324254 4.632749334183324
P 8.719481378386584 1.5451962052608192 4.597104032347283
P 8.117031490588456 7.989484016083727 6.117655701572505
P 1.320032998037289 2.936827180530364 4.326354847549761
P 3.26914017939687 2.2358958458077995 9.042560788456052
P 2.2210948164553495 8.274504031083454 5.070229362248031
P 6.146792376798013 8.996362260857241 6.705094615201729
P 7.85092173570436 3.000405409330167 6.008225973915887
P 4.549236040140889 5.512327392300437 7.53497881241952
P 0.4371591666922621 4.707475808309379 5.08937900568748
P 9.456671873824439 4.55847319273563 6.128023525841405
P 7.718556217425573 5.866345691876198 6.753082536990071
P 2.333543003750354 3.545405872778401 7.790086701787521
P 4.372855509369845 3.392844467523005 10.583136041433514
P 4.780943709567716 7.758933112551352 7.957234529389101
P 2.8744267399532157 8.58285201760476 7.2412171345144305
P 2.6621776981437266 5.584474528088918 8.657381887009247
P 5.450593567807483 5.090638950469858 9.626712580215026
P 1.4526761248093547 7.299348907033614 8.271715138791174
P 3.516725593421472 5.401047188341595 10.755932674424027
