40
Energy = -207.00407857 eV
P 2.331389035929826 4.307249206511307 3.7677416292226718
P 4.054012787089686 7.386934322729933 3.7025009339314594
P 5.734033797356007 1.2819453413787403 4.669327947031779
P 9.127084677823177 2.4869642376534324 4.753072775696737
P 0.7575061032179019 5.729222075139298 6.824430332937531
P 7.448408050045072 7.3348121864038065 5.843487900900836
P 7.352765785786272 7.1326589903735815 2.076859965908641
P 9.614852461810393 7.2435463703501215 6.660552927528453
P 4.329642468165822 5.179620318924754 3.2896855098612012
P 7.803518117796648 0.8870940722568611 5.511924069138303
P 1.9292088790554809 3.8864846969123295 7.402434105559892
P 6.192141038820423 2.3569141017881146 2.8193813444006577
P 4.795796322187403 2.8133130938700224 6.00344113405352
P 2.6307995509789466 2.8562275755589037 5.455267703480413
P 5.266320922413083 4.84692827630091 5.305807279898439
P 8.267780959105634 1.806783474427557 7.495000638591262
P 1.8835361945103426 7.87275878525427 4.14285300179864
P 6.953841492235129 6.558177753611325 8.28549585176747
P 7.977538256487481 3.424497687983536 3.1321081139299927
P 7.634047190806614 8.608688504704347 0.6090331101144543
P 2.0583637865048625 8.999372818800921 6.139751972752321
P 8.542591038804302 8.045281922334805 8.58137591581521
P 7.415553665525956 5.057577757572595 4.988524778869061
P 10.303595632974691 5.224218642074897 6.536408820809182
P 3.843491319305782 6.562192754176569 7.6740627438896105
P 3.7237117732695126 4.600307349725197 8.41836939630893
P 4.907599327264828 7.303974548196945 5.7153567600614155
P 8.509555735733 3.9505182615080248 6.619106178445195
P 0.9439491228275791 5.9022500134549505 4.588210428586539
P 6.56838349859103 1.541643431298796 8.7679860702112
P 6.259785586945308 3.4074611408812676 9.662323322178056
P 7.835630810723649 4.634447305073607 8.865929693533674
P 1.84832653793077 7.462551699659236 7.756465330886857
P 8.262014294652344 10.290611720716498 3.603345590547777
P 8.166523604760398 10.455777264822407 1.51413240329493
P 7.803898761893847 8.252500216438053 3.7915421191646566
P 4.36173322967017 9.39062789197702 6.070692909744638
P 5.414321202755084 9.50385248912077 8.079763146859356
P 5.125091672159232 7.523014996014033 9.190958335617317
P 7.436676492339583 9.30601789027381 7.1003091255656585
