40
Energy = -198.31969806 eV
P 10.814446649858171 7.253991157009894 4.811680341392829
P 7.025636642758207 11.51064561393525 4.828449167490598
P 10.292542466858142 9.466388024029996 5.264871206925509
P 3.236826635658365 7.253991157009894 9.239592944123581
P 4.828449167490598 2.5406276715812885 7.025636642758207
P 7.025636642758207 4.958861079712431 2.5677315258654017
P 5.988870752176107 8.598457265898427 10.466079431325033
P 8.786402078590772 4.584885261486549 10.292542466858142
P 10.814446649858171 7.253991157009894 9.239592944123581
P 7.025636642758207 11.51064561393525 9.222824118025953
P 10.292542466858142 9.466388024029996 8.786402078590772
P 4.811680341392829 6.7972821285066525 3.236826635658367
P 3.7587308186584103 9.466388024029996 5.264871206925509
P 3.7587308186584103 9.466388024029996 8.786402078590772
P 3.5851938541913757 5.452816019617855 8.062402533340308
P 10.466079431325033 5.452816019617855 5.988870752176107
P 8.062402533340308 8.598457265898427 10.466079431325033
P 3.5851938541913757 5.452816019617855 5.988870752176107
P 2.5677315258654017 9.092412205804116 7.025636642758207
P 9.239592944123581 6.7972821285066525 3.236826635658365
P 8.062402533340308 8.598457265898427 3.5851938541913757
P 5.988870752176107 8.598457265898427 3.5851938541913757
P 5.264871206925509 4.584885261486549 10.292542466858142
P 8.786402078590772 4.584885261486549 3.7587308186584103
P 5.264871206925509 4.584885261486549 3.7587308186584103
P 5.337545430313732 10.85939046548298 8.083760806217112
P 5.337545430313732 10.85939046548298 5.967512479299303
P 3.236826635658367 7.253991157009894 4.811680341392829
P 5.967512479299303 3.1918828200335825 5.337545430313732
P 7.025636642758207 4.958861079712431 11.48354175965115
P 10.466079431325033 5.452816019617855 8.062402533340308
P 8.713727855202814 10.85939046548298 8.083760806217112
P 8.713727855202814 10.85939046548298 5.967512479299303
P 8.083760806217112 3.1918828200335825 5.337545430313732
P 4.811680341392829 6.7972821285066525 10.814446649858171
P 11.48354175965115 9.092412205804116 7.025636642758207
P 5.967512479299303 3.1918828200335825 8.713727855202814
P 9.222824118025953 2.5406276715812885 7.025636642758207
P 9.239592944123581 6.7972821285066525 10.814446649858171
P 8.083760806217112 3.1918828200335825 8.713727855202814
