40
Energy = -206.55969857 eV
P 5.691250659116727 8.177386257947907 1.858699447976433
P 7.781800829128208 4.405658609899427 2.0499226434967417
P 8.23806721908204 8.17734668257077 2.4392360005790974
P 5.595349503232612 4.68766477714285 1.4811062716786016
P 5.01409185554829 6.334708391369829 2.9020350386997076
P 4.907838126149758 2.933807302244104 2.8078178837471506
P 7.880590682799312 6.272524049822293 3.477315681601875
P 7.938118594711675 1.747049003271702 4.784837890515589
P 5.095795728395647 9.532088212718623 3.5522955128936804
P 3.388279345414263 7.3461608353686545 1.7384303538078882
P 6.084084623599009 8.226347326935663 5.081590517507081
P 9.49900588816171 8.67414678977659 4.259758887351824
P 2.9431054526438487 8.65992838419771 3.454598903782066
P 4.177705212510887 3.8600070315833523 4.777141637130005
P 9.85720721630444 6.441194886931615 4.514611001838315
P 6.906919646337661 3.2673564983957664 3.7261601080410487
P 2.4424110227985474 5.207833156306539 4.4629715336667175
P 7.951241639017629 9.304013773909054 5.776746711343768
P 3.2892042127492958 7.161844931595808 5.079751165999018
P 8.769937910553146 5.769499561656469 6.348998498165888
P 1.5775576594542473 5.139054049167227 6.559153001789491
P 1.6945155977951234 7.440678702447562 6.634565436671085
P 6.186221439048565 4.708682790646136 5.517778856709456
P 7.268120448594804 2.8979280940410472 6.486532850893337
P 7.848738853793093 7.585628173954755 7.115406148182735
P 5.364986840419078 7.622056943437343 7.166533207388468
P 3.412758854016848 2.383469540519 6.234879453861782
P 2.928274652028278 3.870316928515889 7.769089617591103
P 8.824920080147988 2.9772734679353974 8.143828944608202
P 5.655887591653279 2.3102979175716474 7.993911949630557
P 9.644812314926636 5.064065772756893 8.308837304144145
P 5.143794514646939 4.496626211503477 7.867074080800614
P 3.2011858379137808 8.44140641322209 7.938173542262869
P 8.161375053786069 8.027965933363527 9.22980777716183
P 3.1212497414344806 7.2276894817859585 9.69063731003956
P 8.164661687448179 5.8594745086554765 9.827835137148163
P 7.259591571985035 2.816894444389458 9.707457729772056
P 6.011275902652338 8.822885225470115 9.065584950846917
P 6.233547220990171 4.792983001616772 9.85329038606933
P 5.034341399056675 7.517878565401652 10.50541925465247
