40
Energy = -206.28554496 eV
P 6.0217219366499295 7.582229292146404 1.8032715691001782
P 2.603635155016909 2.1756096675040153 2.4420241886937983
P 6.52645911591518 5.451071984727745 2.2803279746705005
P 8.676922508124012 5.883013794804585 2.279730440656591
P 4.088316883554737 1.4552564265359764 3.8652416338619107
P 6.987250187936388 9.212316060304909 3.0416836209583993
P 1.999356205144619 3.564980018834391 3.918547527177113
P 4.00193634480357 7.918205226962802 2.7384367942582846
P 9.226190891986134 3.725983232248572 2.221260572054795
P 0.8025642095835357 5.284545600138247 3.493806344074012
P 9.231284203001389 6.843138740510733 4.285344541775728
P 4.859854952214486 9.827446527258877 3.6339199801907056
P 6.602603392325134 4.20938978989311 4.2653682253919465
P 4.542812981721683 3.383655100208046 4.938026470602894
P 4.511296497193469 6.432443632637621 4.2808320384240846
P 7.655563654898218 8.255422649486759 4.930842838589366
P 3.091368236495827 1.0870042310962387 5.969470872090714
P 1.2898070358819573 2.4031201367262076 5.670856647752571
P 11.054549166019795 3.815908596020668 3.562366552019379
P 3.0393090357412498 6.634496346463729 5.8560393246279006
P 4.9053682194028125 9.447992057749412 5.833259323559794
P 9.779275218099702 3.696146992325702 5.354732449370775
P 0.676728655313509 4.158498541837951 6.932331248143861
P 5.802120072529664 7.405123802541698 5.838084926948033
P 0.9735186465000197 5.8877151173390425 5.567647910513753
P 11.090342453477337 1.671897561292208 4.208183721428463
P 5.045984679369879 2.0290225036521687 6.620222260525178
P 8.17286692694515 2.7434194659961992 3.9897499115358555
P 9.054272415720627 5.681982379574457 6.199219739612531
P 11.090342453477335 7.313047974572869 6.774266052355356
P 11.019209300578359 2.2473012157994825 6.290068773971325
P 2.8333078129991116 8.757530553913485 6.353370521052772
P 4.723391336165718 6.866847202338132 8.841392803155108
P 2.0523859704288747 4.846170382723554 8.532854042812819
P 6.953221612468273 5.046386901659007 6.361833029449251
P 4.03703975846475 5.23931056814867 7.578835969370234
P 1.1555374835225578 6.961900256344032 8.559316133678953
P 5.106887040559363 3.2368733277251236 8.43590701718113
P 7.19334263765073 3.747579233002706 8.021240594932271
P 3.0711623410860107 8.237312704985586 8.59738121146393
