40
Energy = -207.1232205 eV
P 4.4384500748863465 6.72802334746391 1.5097169330867353
P 4.517123901406708 8.93877698004957 1.6078889303458235
P 4.506306878951939 3.4335532015424044 1.4251041618497302
P 3.02261683911822 1.8056643388015856 1.9708992896424429
P 6.642527471243998 6.433393489631093 1.1490204876932617
P 6.3600018868586385 9.46874068768656 2.8164458746731933
P 3.22956815984332 9.489755190164281 3.430734212698664
P 7.575392970413242 4.480524665853626 1.943431393611547
P 7.677078425078258 7.7041952137378775 2.658568982195493
P 6.460470902742948 2.6187957677283906 1.6039718778146546
P 4.29477249866552 6.355318634582531 3.701713320042983
P 5.078866836807912 9.86171952581965 4.690327429962498
P 1.7235891144597684 3.5335590897171056 2.5022640735998536
P 2.401023357334785 7.507273128629219 3.9857277096346952
P 3.8040175906767684 1.1397129165047541 4.028780141114209
P 4.116733294318041 3.04246073518427 5.1272424689506755
P 3.610967414017287 4.29556005841441 3.3807440114358895
P 7.818305782006215 6.599926022746187 4.668775691019369
P 6.851615151460296 4.717040281830765 4.026366861314011
P 0.6596750561781508 2.687179171480383 4.210832522546804
P 1.3486528622760314 5.163843320182352 6.440803555183735
P 2.26964005312814 1.8451482015490333 5.48438872191367
P 8.184719705934002 3.3488484818200654 5.20830450383766
P 6.753804901394709 3.063640177061734 6.828191818827969
P 4.880985190481761 8.505266837039686 6.416918749504918
P 5.749127222212442 1.1805869642483948 7.631566209434475
P 2.9776841984432303 7.3537628472947905 6.122675094377831
P 5.688322078939341 4.6063537348544275 8.033369939573404
P 7.896119936561977 7.803917846009731 7.76531188592805
P 10.227544666530724 4.638225770670029 5.001455072314795
P 6.463747594467929 6.9120687321770165 6.443914313423001
P 5.130298734919691 2.5644877901532985 9.256459991595786
P 9.706537661283031 4.551125382754182 6.463161764252099
P 9.024956935676112 5.991358071734773 8.130017081724297
P 10.227544666530724 2.845058259802732 7.743252439125648
P 0.1878053708318336 6.757609054919942 7.367563414720471
P 8.255892502791019 2.955332682396806 8.48615763160051
P 1.5514011560273937 8.3328640122727 7.432007819910063
P 6.968970584604736 1.341472942291453 9.488496584507898
P 7.5226513945141695 4.917868401552863 9.337438993364948
