40
Energy = -208.07414716 eV
P 6.534126499695329 4.842611852427759 0.4986284016706536
P 5.226320429411297 3.5253849508215755 1.6889937375421376
P 3.4410654634943914 6.8554471966720625 1.0800766912202642
P 6.795980566363617 3.1887882911088896 3.188211175982979
P 5.251913769275924 6.764830397946034 11.119500728459997
P 3.6158668066279125 4.633438496891669 2.839465981467728
P 7.593714372023362 6.207877967336568 1.9311995001190725
P 6.8092914077000595 5.364915308277475 3.7750496544200756
P 4.693080901004085 5.99022333043172 4.1982691242523105
P 4.414845583094745 7.820355807304377 2.8452765828527715
P 6.220916969553584 7.993439611942866 1.5683203477461607
P 5.558548127426706 2.117031806336236 4.7527128191840875
P 3.4781377406394403 2.824155745210669 4.224918033887172
P 8.823282457409093 9.458874894040846 4.889768880769107
P 2.7371208858339036 6.122343218790782 5.861030190025717
P 11.064429543805597 7.055619459892709 6.058424971233666
P 2.565956308882783 3.9058850771700167 5.979795096624086
P 6.706571068762244 8.859519515092526 4.711431153497323
P 9.558868640888026 7.398492764650225 4.472387128589691
P 6.544646621689159 7.329584347206025 6.310120086023977
P 8.133762738465 5.973390264819855 5.509814172694507
P 5.477438917505744 10.613244959705176 5.360868260763602
P 6.151925022065431 3.449564062445917 6.44848875676142
P 4.16834823647372 3.523306850706828 7.426299307945592
P 3.1072437224449385 6.7577053334717 7.796399414785388
P 9.048614258590185 9.71694626981214 7.08176618127271
P 4.305710504130729 10.015382620604086 7.171258676532631
P 7.611974641629302 8.271242551005532 8.006816201021557
P 4.510336851234096 5.29128716456346 8.70145430063706
P 8.056555778840742 3.840737438407971 9.012661058962575
P 5.930417689719086 11.532362946204717 7.352577992013014
P 10.85977368559015 8.489298991463894 7.504498067752969
P 7.02063782896157 2.1391697208610196 8.071190279368391
P 7.187967629080566 4.260006052670994 10.821883803299167
P 3.493373688996526 1.751373597445226 8.57185781868122
P 2.2608486686421907 2.8840780587396084 9.910199537408014
P 5.972536019726262 9.695418929432867 8.621632501592094
P 5.490585077568267 1.4697249826991254 9.588114709808378
P 3.6423710227994985 4.434261260644557 10.57139805476509
P 5.365637448544169 3.0634214993339093 11.119500728459997
