40
Energy = -205.5770316 eV
P 3.5186393667688356 5.175444262904055 2.162914918420767
P 6.6475811427348095 4.2807015694195645 0.7338473374574143
P 4.012328418727316 2.2559767552126875 2.1515447709196387
P 3.996914001075394 0.14105482651920384 2.4825437063393294
P 5.775266144076267 5.7059097009720166 2.127667138542435
P 6.1644775740419 2.94040187053907 2.3452030932619348
P 2.2423702429187387 6.814328156684741 2.9753146118463687
P 7.336172118196049 1.0502496477487184 2.68708182568966
P 5.917767144041169 10.917251107939896 2.3737644660217097
P 6.046032036889862 8.262044897976962 5.551788749166883
P 2.9605600281425932 3.630361690609983 3.7752522033295803
P 0.927170806142435 2.7921654354914 3.435912394744727
P 6.310964032883067 4.50179110463146 3.984278556527144
P 8.56450950985277 4.531340618714585 3.963872362893409
P 4.947337968659232 9.381247330526369 3.970815919782705
P 2.9620754089228982 8.446729373863636 4.337079258900502
P 1.7145905306506843 5.496406840109309 4.747732494297869
P 8.255923653983574 8.503685440977602 5.643253183512222
P 7.226197764506737 1.0191663108816837 4.8882230016047306
P 5.04012780224037 1.261827141488486 5.558334586194321
P 11.40165792053126 4.389589912319087 4.236354069812975
P 8.848531401919695 2.5298805062493073 5.029514423971068
P 4.4284995052109455 3.405974230700134 5.5221584748514365
P 4.402032358352253 10.917251107939897 5.615549116784093
P 8.106479695055977 10.323649444008574 6.903399742047609
P 5.990550403439711 10.053873155390436 6.914425066435141
P 8.447184271696061 6.892531749202236 7.232555387842881
P 4.917861277141681 6.080629506892944 6.62769032484589
P 9.243842880751798 5.201845631089998 6.030190218997244
P 3.2677668983699446 7.635818859635226 6.366060826020441
P 3.4899990470692064 2.9327918186802786 7.5514670150809495
P 4.711903568742462 10.208014518399196 8.62941043062691
P 5.455612260414129 1.8043514055384684 7.718428489955759
P 1.4220931581985066 6.510449105328687 6.6151999538820965
P 6.372299688981879 6.84034661349973 8.159657886372052
P 8.663313878371666 3.3306772479994873 7.1300468474553
P 3.134859419895377 9.885657839044299 7.18119012095836
P 6.492828262335436 3.7124522538253224 7.123591694557021
P 3.975665692973685 4.966780309914884 8.45365816913681
P 6.1640239019745335 4.773361888011218 9.03564370583568
