40
Energy = -206.33288764 eV
P 5.084127375043159 5.4478298643914105 10.45888488297736
P 6.717226653926719 4.187074995151488 0.7025891820080477
P 5.153766952501013 6.137267380865375 1.6876533427526321
P 7.415986863945205 6.212365050805937 1.4281439952726593
P 3.425636641542456 7.464875393318698 2.0219639103715634
P 3.1807064150237236 4.3963304822117735 0.22945102353960134
P 8.55933516740157 6.177609753023054 3.358004880452665
P 7.472732126388135 2.6294599703868737 3.8939654277020668
P 2.085216520841133 5.974765410999128 1.0892250244143384
P 4.940841542156158 3.943171985994413 2.132114158247467
P 9.087464135354955 4.157573313300085 4.285668372982184
P 3.541594505794667 6.8320897513681516 4.20720929317596
P 6.8856321285588065 6.511699852437146 4.802796903694713
P 4.237152657870118 1.9556210339069329 4.61053639359577
P 7.564070566106878 1.758727612521172 5.931087108839522
P 0.718300784790738 6.476773743297331 5.519760933711989
P 5.665895418456275 0.5677397170120033 5.718507747954416
P 7.374665102408437 10.31064855202965 5.634136967722714
P 2.2541851678333953 5.058804264208608 4.577787235953201
P 2.197995654259924 8.195971876034696 5.345207786410685
P 6.065407707741793 8.57061549109325 4.744731161205434
P 5.552465497324796 3.7588901255517997 4.270763960357791
P 3.7668692955006584 4.798653892118325 6.2208417072125854
P 8.835334460999222 4.581835133856546 6.526186704777562
P 3.1739902290532935 2.639419892008039 6.495792859623113
P 3.151235969200053 7.912249078527766 7.364956614451395
P 8.951357221653366 9.710498511168694 7.03634962319215
P 4.459855246746908 1.0683634882700113 7.542632883030334
P 8.288596068875624 6.814552288883604 6.470854356882542
P 2.8185721170123563 5.80785431811488 7.984122457240553
P 6.83982317533592 3.6524824303407795 6.900331745108887
P 6.0093133231760465 10.341950512641617 7.428680667293375
P 0.6954588084298241 5.889351281792468 7.573900729602489
P 5.2922190227105 8.289608972634296 6.794344970095266
P 7.557734056673891 9.280800419242428 8.653687774489565
P 5.973262239102881 4.190060446036697 10.232294947751994
P 6.688131339033951 7.022272746669594 7.9940999948765326
P 5.905455269213252 1.2956895899056844 9.160410636622386
P 4.669398418696209 2.589529740209181 10.45888488297736
P 7.359072103903134 3.0050055882578417 8.970916767678409
