40
Energy = -206.22579679 eV
P 5.1579868048057005 5.200324055493744 6.233727806955383
P 6.661052723490389 5.774935211766624 4.657528882104423
P 5.862400890148314 7.484285925485336 8.807322087839916
P 7.484205599970998 4.323561098758926 8.703961619137653
P 4.178515336444319 6.322590818454865 7.916720664504083
P 8.055227946464479 6.91827836147227 6.0854855488825335
P 5.89787089285349 3.4301820341974922 7.364383485998138
P 7.116306243091074 3.606403862317491 4.481624945651627
P 7.769116676400129 6.480058094080224 8.288396504500689
P 4.237112079215342 4.218170911604461 8.795283358530492
P 5.8183874023102815 9.685104934802125 4.145941240607953
P 3.2136597404236875 10.05835411584066 6.494147351499174
P 4.681862840577669 11.255611925506223 2.884096498775777
P 6.113714574900592 8.718482848074698 7.029794543055556
P 4.668956275606195 12.703320733050482 4.654125237445915
P 6.1602988206833045 11.357957374328416 5.600793727095012
P 2.6388358349370886 11.838086739809395 5.295814186411216
P 2.6672581745580053 10.393854966757107 3.5390260279576027
P 5.127577329059543 10.6376505434452 7.442743552006553
P 3.8413372609302656 8.794693746035964 4.785027284539601
P 9.714967999672108 5.4212479586549565 5.830786914119371
P 9.979132112259292 2.3198261310845725 6.902680804736941
P 10.729895769710236 5.80774983905255 3.571800031819143
P 9.597573148228573 4.114659635179078 8.06849694308308
P 12.719602319901824 5.425208495015611 4.5435927731126915
P 11.73534172262882 5.430888211534268 6.662825110112616
P 12.429314868722694 3.1747533482553227 4.301634484399068
P 10.504279560337665 3.622144509261391 3.1936006420444394
P 11.997132017020114 3.1971494160849887 6.518296265071134
P 9.172405908019647 3.473658922561487 5.027129946100245
P 3.201389868219593 4.66610915821137 5.263354068561265
P 3.1290689467724127 1.6775526198457127 6.51082478893132
P 0.8773753605960339 3.564005644187346 2.9845968465569004
P 2.690231955303296 3.6916604310288386 7.297282193869223
P 0.3882815928062883 3.6550067809852504 5.058074772966502
P 12.719602319901824 5.0235451071043755 6.532301284537125
P 0.9981236264370937 1.6782678676224718 5.713468053625925
P 1.9675835617354833 1.7856224226226598 3.589858824808128
P 0.6728669945960247 3.9078550887537835 8.085163584345505
P 3.8633886345708257 2.600869005416991 4.577975808483205
