40
Energy = -205.64265338 eV
P 6.18852904602922 7.99172338337983 0.7037793611413165
P 4.631823961969 5.7667161185936235 2.829732836818054
P 3.631893248927017 1.2712738184657664 3.036378799736469
P 5.318900166694539 9.68161428341203 1.7029695079098124
P 6.753105092335874 2.248888576613916 3.0373044997064276
P 2.885683791204113 7.1122506860211 2.2502224408565343
P 6.676076355914113 6.772433855509357 2.4175413147640574
P 3.863040375815131 8.845729411479498 3.1657527261658958
P 5.211891341020551 1.5772762643453977 4.557066453875026
P 6.447607735450227 10.307560922478778 3.5233642934483678
P 2.2092229857397454 2.375602693676022 4.080687681852065
P 6.967496669981881 0.17972279290250698 2.520470496981065
P 2.6952513642732345 10.646693807924185 3.057956490387816
P 7.375322805914359 8.22085557673305 3.918643262921423
P 3.9659433531840893 6.167250021435675 4.8987438703259425
P 4.491732068324374 11.500036708386215 4.21512240621125
P 1.8047623391776695 6.456873834375187 4.172957567892783
P 8.578190503898306 1.1110014376747248 3.68440236995401
P 6.043169849955837 11.500036708386215 5.610523470800788
P 3.9190274185816856 8.537841173716599 5.639498055219424
P 8.183032739179191 0.17036401681753116 5.653060122878372
P 4.660751870754183 4.456744458961106 6.113338628622918
P 7.577496427207024 4.680795446109269 7.719476911591383
P 5.5542753768833935 0.07283568645658085 7.810242174261978
P 1.66984935569887 8.202591600450003 5.584843433097466
P 1.5216350308734352 10.37071110548504 4.997294119459185
P 3.5255258021696165 2.569342959043023 5.826372056024337
P 6.601134956893327 7.140836686507373 5.683895900312658
P 3.533309330455205 10.679747316289498 6.093254770831331
P 5.649214927957212 8.620574717850259 6.904392355552434
P 8.92041518062576 1.3247180213194862 7.459722169731326
P 7.171637043268047 1.2667614050736633 8.822441388768139
P 8.544956809418034 6.313217911307186 6.516128041876288
P 8.09095696434428 4.295866430509707 5.638826048809358
P 9.465433504951996 3.560272037166642 7.231786680045384
P 3.96355682712835 3.0366016224260077 9.051241031858021
P 1.6490010214643829 4.485541709655858 7.7650970592261785
P 5.571532981183505 2.283871168870018 7.68008797138018
P 2.2192512375084745 2.4088200435014313 7.803566842029858
P 3.7508799436111993 5.072737340931002 8.104332192642131
