40
Energy = -207.81490271 eV
P 5.054098247041468 0.9392572674597052 0.2328291018961125
P 4.452868455349518 4.192287583458772 11.082240237208477
P 3.5024971484687075 2.540129507072846 0.421596372567692
P 3.8438885951458053 0.9361263093039096 3.188074937535922
P 5.719909460326591 0.2952540135818418 2.3410885049772747
P 6.67101158809196 4.0942304154486875 11.49932997477555
P 3.781433756069199 3.1437796810297334 2.6196402527973053
P 7.063307096027349 1.9913773438368858 0.24900808850528464
P 4.5886483365917305 5.937771902901673 0.7654192370831937
P 3.009402220187366 5.261920642944078 2.0867748894216898
P 1.181267643523816 8.296100184174612 2.0099887693558625
P 3.4246969265926266 12.101857706934982 3.5174059440292886
P 4.232881305624165 10.006574242883474 3.702186375864163
P 7.211222881037557 2.0449672441290336 2.5079854836383215
P 6.554829861734244 5.189359216199014 1.680816391624167
P 3.7600213338320994 1.3867752019544306 5.381714414824282
P 2.092682930880858 9.395140297138672 3.5049825191271005
P 5.891229243521407 3.6857825937114104 3.1496316133092086
P 3.5400100358167577 6.44082818485524 3.88387244358864
P 3.582934647001211 11.17563052866742 5.500919832923853
P 1.4474306431215689 7.405844419052553 4.052709853209991
P 1.5742776721243545 11.322599915627448 4.51462755028626
P 2.47848896136034 3.1108544022569293 4.621325083755406
P 5.060495750580743 7.065633777411854 7.003963581317773
P 7.5563254492964695 2.603453840234246 6.1864525989270485
P 6.8862774763975825 4.686526320304602 6.119047198445044
P 5.705519939427984 1.3354928648893596 6.625452265474495
P 3.2759558405820797 4.922194585504231 5.562127973492756
P 3.1337100774330047 7.22542385579183 7.997458120416885
P 8.076357545976613 5.701487330835457 7.754460174857292
P 6.444673252044064 6.933397513001937 8.769851344565375
P 5.002543714852093 4.631446115155759 7.262455045333571
P 8.619251141955056 2.3435525827919057 8.173917056936748
P 8.396861351345432 4.208522221626259 9.361673142757919
P 4.393430261696917 2.5460754330846274 7.891479936301087
P 7.2103566452920935 0.9318520143677897 9.117178744377199
P 1.8568918879182983 5.9924515409858135 6.878111051983419
P 5.121011981029729 5.322053101634543 9.447344251663452
P 6.476771558694726 3.994570698820682 10.558070640446772
P 5.5584949850129055 2.095385247941122 9.823964236110896
