40
Energy = -205.67102547 eV
P 6.3623176184665455 2.354431119743247 4.098185596543799
P 7.243788332840753 4.273767321752859 10.811504530076856
P 5.361909850470122 11.452018628040292 7.310776210003053
P 1.8995896053796937 4.821036698215178 7.9602186032286655
P 11.415699727000302 5.850978328204763 6.3852644506234295
P 8.448350303004018 2.9775372578773225 9.534054390941964
P 9.133872420676045 5.958845598866244 3.78620694280782
P 7.336088937192274 3.3549820194102122 2.34271051989263
P 1.6193104545626729 8.20422322426071 7.203322854190621
P 6.863333893638519 9.899495672954451 8.305517488343012
P 1.743659616239494 7.966763714938144 9.425506239568332
P 3.112170997117739 6.609704397641477 3.8163334112688854
P 7.042343433169151 5.558791581233743 3.111487890261866
P 10.357814458635447 4.840816960218562 8.185948700046751
P 10.366588926667253 4.451595340093953 4.873902496895385
P 10.504329648463138 7.018941972720234 2.5990862465427136
P 3.341618749841667 4.174166311878586 6.332873378308564
P 9.29418492296349 3.488040296049666 6.660892038822533
P 10.759038106001341 7.955634233961889 6.098186876876465
P 6.216622891840917 4.877730893428931 7.963251206715846
P 1.8503454464019307 8.41883382968065 3.921640990521362
P 9.435787100487147 8.057086955302166 4.246745769586217
P 6.856420035210461 12.206278289610765 5.893503175858637
P 3.02498686875694 6.141419299790209 9.308972905335713
P 4.906458320340734 5.807423856140697 6.326916586628312
P 9.025507690416722 6.531184667326066 8.810045601075672
P 1.5013816805990412 7.131941050498637 2.3770050754457253
P 6.949188028733762 6.2353966111830985 9.553195615965903
P 7.079585272526208 8.955512601736492 6.317444744071781
P 0.7559860931523115 6.244490005307709 6.668150251615871
P 6.287952817514836 4.59416572489548 4.9488069392814475
P 5.580637318648241 10.54682037581565 5.30634425674972
P 8.416480821299418 10.619093103959992 6.901985059049004
P 3.5935180197776124 7.994480135980551 8.188579166373074
P 9.242298750210637 8.428200625109758 7.712593575734351
P 6.348658900926091 2.86832374705961 9.310696375156002
P 1.848998905686 5.175678797005994 4.969653435510643
P 10.190445849138115 8.093024324769711 9.647674239312467
P 8.476849457547717 2.3712620036643615 3.9209493112065066
P 7.7969260070012965 5.0782997577538245 6.457072952551783
