40
Energy = -206.06022905 eV
P 7.6258508786552754 5.97659265535461 2.111525125904261
P 5.647098809304837 7.0066470692050915 2.016621717165835
P 3.057955564486162 7.916760572362957 2.537185185946631
P 8.811939071281909 7.83234267996398 1.822263303420893
P 3.740383963248157 5.905625809056643 1.642300662724733
P 9.305559401238295 4.494372206746248 5.169171862621265
P 6.019371013760454 4.3773401311477445 5.014748649203273
P 7.916453011621116 6.060545030076318 4.330065951571552
P 5.037423915759666 8.405542367925019 3.608199599244324
P 2.918739088642718 4.267069143041988 2.981356133590251
P 7.693516930137955 2.88430161832609 5.450522983276069
P 11.500300961425589 6.950862785169678 4.355098207692023
P 9.511163000112361 7.568626949159536 3.813877260078783
P 2.269058168762935 7.43326153895094 4.577977332017477
P 4.137900792882768 3.224299744356171 4.577682391909025
P 1.4075855364408576 5.4533294491225925 4.0405324419510205
P 9.531234532423532 9.01903196153264 5.516948473367076
P 4.330034759517051 6.9901911519227005 5.2425387211830685
P 5.6969256317810055 4.977993308971598 7.127894408016165
P 10.906274646995914 7.48342424750158 6.382545927149701
P 1.3428998938423409 4.7074835937196085 6.097812749925455
P 7.1803491245066215 6.787879099690006 7.168562586903252
P 4.330222377409416 9.834610774235726 7.945029345351373
P 3.0240334827367845 3.5572028707244363 6.432270518102313
P 9.268778426462903 5.926067108217369 6.91422891332868
P 7.461629715417149 8.867574455994662 6.302855232952615
P 4.801183644284918 7.792533529983167 7.265241419223663
P 5.72134848892492 1.6775897840241618 8.165435635187622
P 7.094048234883641 3.2297151019671726 7.549946588978088
P 7.8956060447691625 9.972981819487037 8.199871632001484
P 9.203135199967264 8.540458997426319 9.219285139389335
P 3.1412717233353793 8.079518129134005 8.691711421135945
P 5.995991647539965 9.924343753480917 9.458514306637849
P 8.460197994662089 3.4344685614929964 9.233752487042057
P 5.261525036260077 2.6676185552068854 9.980258417033665
P 6.73559978454069 4.094502898309166 10.480776433265357
P 7.763939338341906 6.950575305297268 9.368658792657673
P 9.468001855917931 5.43148505241695 9.081060828545208
P 5.9549634333275865 8.07632105304324 10.681854804891941
P 3.988227923740171 7.376632185604604 10.601539458760445
