40
Energy = -203.67054788 eV
P 4.357478170097443 1.516345348221441 8.440482685622758
P 2.394893324317677 0.6186342553373214 8.855897080048306
P 2.79970700504726 2.679896022267552 9.502781984566486
P 5.250566828248516 0.18059440168785837 10.022711055766973
P 6.677066713902677 7.206482316245434 0.7479289845216736
P 3.2321702337725564 5.17209779229382 1.5148708230935837
P 3.3246216473330157 0.058783280136816225 0.23964488100235504
P 6.630397604746081 1.2418688860208198 0.3734777504028552
P 0.8429133389919564 2.0498237263198784 1.1039527261636923
P 3.026452836153542 2.2539603257366614 0.8331666266849413
P 0.8220399005106138 2.921365458637005 3.1439848397450905
P 1.4167262072987035 4.959002485545988 2.520657755261431
P 5.313364953285895 7.372780431376634 2.3333891369203608
P 3.090809599072055 7.369069048220633 1.9057591444751392
P 4.670400039289701 9.63881744758523 1.528544440218219
P 7.265645838384301 5.697873468687088 4.140639119556127
P 9.729363920177825 3.9437334685672782 3.1503661229461937
P 1.3880004234225185 10.766838527261726 1.9426933627009995
P 6.237794700111014 5.460078085403704 1.9764789916467178
P 1.772073485544705 8.77317815222701 2.96990448308949
P 0.7908515207661256 10.557416559306489 4.06501815220029
P 8.888719038072518 2.8723265093160797 4.9504368283737055
P 1.4522988549581826 5.808308471145013 4.666550323807101
P 6.134640188437222 7.564769141291115 4.532774014676518
P 2.775371833724929 0.5729537162386954 3.5839196386212233
P 3.810234998143901 9.527385333142595 3.5872454318892717
P 4.083178895695829 7.919221208234613 5.409065685813203
P 6.181411493864403 0.17426542746923024 2.099455659013353
P 4.351286524092134 3.69693314450391 4.749738113730839
P 2.2994304236741225 7.75878210198971 4.0083106080082125
P 10.178454200096622 5.562046774191714 4.68358102629016
P 9.736512808590618 4.165860070274318 6.328646509355985
P 2.336918574989878 1.6852754282724016 6.738849821023569
P 6.5893808399416045 3.7016128208295718 4.822525002009578
P 5.424467075331308 4.361541985020758 6.583490797629229
P 1.819828423455218 5.80832898189115 6.86019526831057
P 4.221442706394166 1.5892706226881435 5.5999027872931935
P 3.2897150208169985 2.4106720692271955 8.440482685622758
P 5.28763984996595 2.3134272984051494 7.515912025731307
P 3.7040224137830413 6.607151493143591 7.124860080668335
