40
Energy = -206.37667671 eV
P 6.937804647539358 5.269568857252643 2.43316752755949
P 5.502705481862852 7.991914944602264 2.047316835379346
P 3.9346266366679323 6.460901156718048 2.5083887060699115
P 4.795281650544936 4.365827849790939 2.2416256757215183
P 6.676539716652979 9.211172471049384 3.517003891294518
P 8.538741938979717 3.8290598098711275 2.9451360238991553
P 11.108086724181485 8.704442314916776 4.679794598216519
P 11.250406566502525 6.505655509709043 4.557804271632024
P 6.340157303368526 5.521261975215475 4.610831780813456
P 4.617660647153411 4.02177329864872 4.4408722124419935
P 6.417695900202948 8.401945244759732 5.574360481365407
P 2.715937245695247 6.9206810298002335 4.305309114807436
P 4.471751203878183 9.713698661651028 2.9266649851690634
P 9.448258312905654 7.594882013185125 3.8321582775475775
P 7.649184684708241 3.7795025926613266 4.869514736854937
P 3.621733393765974 6.223741212830299 6.337389604748492
P 5.9540867690417665 2.2787334577435834 5.026055702626289
P 9.867614596315606 8.232481807448881 6.774024264425812
P 2.890449526053288 9.049053278413494 4.297756407298892
P 6.4812289381729915 9.952612774369907 7.244201029780803
P 5.408011767566268 2.600485667812998 7.16794542961678
P 11.136258544322862 6.445521836258998 6.889177432442777
P 5.926432729204974 4.762463001650933 7.41339647565097
P 5.520836773165439 8.133193137987611 7.966864560417954
P 1.996459190422715 4.836102312652323 7.057186697463404
P 3.2976845650268434 8.056281487836436 7.592645056792073
P 8.184887779130282 7.089251776978806 5.7321251014037005
P 8.88611060376891 3.348457192077227 6.762799037196
P 7.7588997956118035 9.66334958055395 9.217739256945986
P 2.799321288528914 3.7606907908545146 8.855606240795776
P 7.275519500718661 3.114158173716867 8.28425217537414
P 9.367970180771247 8.117171806175522 8.982889677531027
P 9.6998841796339 5.028920930822156 8.025898625147263
P 4.558493527512044 5.110516364723878 9.201120439350715
P 6.110805516501173 8.433705215761472 10.149319118503788
P 1.466143500335286 5.603521369652022 9.059246353920857
P 7.155421393588334 6.483461083489071 10.571198031646933
P 3.2446975183116993 6.91905161763143 9.488557024979222
P 8.033711741936274 6.477459166328415 8.339975590270509
P 5.816471313062044 4.8513005197112005 10.936654840211133
