40
Energy = -206.57197678 eV
P 5.133544371510841 3.2072875600803297 2.8823351189796416
P 9.259297596112622 9.597583954210581 3.37043751268239
P 8.878653795388948 7.360529938509702 3.641865447018711
P 6.72551938373579 7.8758606297770815 4.087182328471705
P 5.320926113760303 6.913041060367541 2.6955089154835754
P 3.7567483265686055 10.365034195088572 3.457116087042396
P 5.044025071353093 5.149885621734027 4.1534718047161885
P 3.4812472748824597 8.183353693316782 3.408251158216576
P 7.019209745185695 10.050352819968799 3.7460924425001374
P 7.344652096066991 3.3647425994288134 3.103836907416218
P 4.491550657922159 1.7419445462716758 4.468991108849033
P 7.174163071033109 4.790503752782078 4.822100979892333
P 10.150220437826597 8.507197882205146 5.053771129575437
P 8.036483000224997 1.4332361943695233 3.9235236711526165
P 6.100192860359147 0.2566061881322862 4.128618805145112
P 4.505190273221243 11.094302911789201 5.369074256178669
P 2.89829574879934 4.688088535472039 6.655513713888753
P 5.851216361991447 7.225832081745186 6.002197958960436
P 3.7344644743358937 7.852580985931593 5.564652618335247
P 6.703854105511913 10.71300359140397 5.820621369407478
P 6.756053723286029 3.3028995058556925 6.553712073871128
P 9.576110918020857 9.607820171603668 6.989647125059408
P 3.3265432942108615 9.723365097587145 6.621310468687874
P 6.850455540507919 11.094302911789201 6.262375247194455
P 4.742670439809281 2.3889983884480586 6.619548302807232
P 8.263860751633539 1.7074901549336463 6.1561373657016185
P 9.926911774933183 8.170586138047723 8.542458583120903
P 2.1410450998324437 6.764938562843651 6.679151711589349
P 7.3695045836633595 8.767575274510527 6.890251590748503
P 8.971481197482953 6.709195466252348 7.315120097692741
P 4.266323439972043 5.429673174673141 8.109197512911278
P 5.2617391322097795 0.5487150711549134 7.565344034404868
P 4.17918442421475 9.158883534633514 8.669072692391216
P 3.026886451158042 7.135088207209748 8.759733731611755
P 7.190182506408652 3.670223470481691 8.75729938408799
P 5.073156657412956 4.096399747029084 9.716672516229577
P 8.175864667091863 5.650906885716548 9.086892326417303
P 6.462764272808166 8.906096098841763 8.96020839347831
P 6.233109236548965 6.702600738397113 9.162004954242287
P 5.267639920330379 5.946567035986402 10.89964135116686
