40
Energy = -205.83103202 eV
P 6.882227523511673 6.602282970130786 0.7613453673721239
P 6.612714332712438 3.0939500131861313 1.831587197839782
P 5.433717513321913 5.008376575741788 1.5421653657650454
P 2.204470972428345 2.827771461560449 2.3700422537351065
P 1.295227337197259 4.8270811451476945 2.403770924514306
P 6.34485714521376 8.487834094328099 1.8755768130131798
P 5.274176280338499 1.6956885617323287 2.968870175099473
P 2.047640458544168 2.2020660432773522 4.432153648711036
P 4.813902808642981 7.763859786275544 3.274499228039659
P 8.642556304923602 6.499494538221721 2.272466090020454
P 8.382417604985557 3.6824144065033306 3.4636113882444857
P 10.238535355705038 5.018019420250715 3.995475834117505
P 7.47463154794431 5.586447966080468 3.8821305983706833
P 5.287392241647867 5.612434435348507 3.6501878555994183
P 8.26720730801515 8.582613268221673 3.174205720561309
P 1.3146659952960924 4.182851023247802 5.308427846111791
P 5.550490940247855 8.870306205086969 5.06049900401996
P 10.238535355705041 4.877460682113664 4.229028604330614
P 4.23617050122377 2.6283403676904733 4.680609193840185
P 6.729736247103127 0.810710861680865 4.563507991883711
P 5.968726357907838 3.4416300627633536 6.474223916612411
P 9.652747912380935 5.3199759228480765 6.264180377153331
P 7.57898891219391 6.168669298881462 6.010020838006671
P 1.7941898935252694 6.031612717807371 4.207241949182477
P 7.699891220534612 8.336603010420367 5.356865065892471
P 4.204298354142985 7.64699786284581 6.413895162214788
P 1.0361417703801978 8.232606904783523 7.293184502614191
P 2.776142001581173 9.279451316945437 6.733266161214353
P 8.508849248528774 2.11121224100287 4.9537072357711605
P 5.294108378551096 1.3525778620415547 6.232229639681978
P 8.96460101849335 3.3626198885820995 7.036792184673602
P 7.104266930316275 6.100886871575075 8.442818582034262
P 3.9916453416248516 4.262247456402951 6.977443682920866
P 7.164530018064476 3.8529107149049793 8.32288361363949
P 0.8663759579046986 4.540534464190291 7.5449625965588245
P 5.239918841937006 7.35713570689945 8.448732832301998
P 2.139708900010596 6.398916053327425 7.437120655172912
P 2.482731529545813 3.1019824063087493 8.192855471920698
P 3.308650529413726 6.472716505157015 9.343218404306823
P 4.03926693453162 4.374749556581239 9.18023667703209
