40
Energy = -206.807056 eV
P 7.440369331488249 3.5941290987396894 1.073821859519409
P 5.831744936636862 2.259835830327379 1.845733607553922
P 6.338403293657208 5.511891536571631 1.2649340411560173
P 4.5509845409544045 6.557712547787294 2.986203403656001
P 3.359006266061398 5.023882998597254 1.9126134895906162
P 7.737791472365992 7.028173547833747 1.9629957043699404
P 6.8328423260520985 1.0306879386973244 3.3516170749326317
P 3.1100445224294107 8.256982087291519 3.288167542701765
P 1.591073333101403 4.695159123973323 3.377236172565044
P 9.229822800797143 3.3727769672230385 2.356094614860951
P 4.513955473644111 3.601679355022825 3.1703079389634454
P 8.82556956332359 1.5659669201878104 3.5042000678842684
P 2.5086931731327042 2.602654902570434 3.396837984121398
P 6.631441681746161 5.318697389631437 4.638160177363667
P 2.3151845048358246 7.805334550693499 5.329514567069008
P 4.53252682461393 5.506420349234414 5.4961682597854855
P 5.778684153166024 8.144396425989433 2.0249764636003498
P 9.102969376921326 6.750461698762972 3.9020997303426617
P 9.654958429576002 4.5747146248645345 4.21797645682814
P 4.952182362451399 9.49901529262403 3.6667331751250516
P 2.2185106837334665 5.5491340000473475 5.320835997446067
P 8.01123092074402 6.497963598833395 5.888964543401115
P 5.703632515437332 8.791811130723335 5.651639819208951
P 4.5796309129434265 3.8983233664227974 7.133135823051695
P 4.199845573660243 7.467786780644456 6.550836657386471
P 2.914896407428964 1.4375099352832086 5.302819151566168
P 8.154401350562422 4.223894560580382 5.832392574799024
P 4.9268073779507615 2.116681182591962 5.887491992640195
P 2.5020995025801964 3.925125288954608 7.949931879656659
P 5.8673734482868145 2.719606541141525 8.904103519623293
P 5.158509269341721 10.670982263071581 6.770453871436868
P 4.6339650826445755 3.0228823613497706 10.55704454833261
P 1.6724697314001924 2.030428409828634 6.999770422313144
P 7.45628124418481 9.851511099468427 8.993663037644884
P 5.018118995869357 0.9374126599440314 7.806633771659562
P 5.219441010215385 9.93086868258607 8.90734990570521
P 2.8389232508180315 0.7641936707382015 8.45996093772317
P 2.6467341390757846 2.5742888035142073 9.77661929385029
P 7.23659891632052 11.372118168703581 7.360913746980409
P 6.440488933044229 11.755111942146904 9.417253806782421
