40
Energy = -207.27810354 eV
P 3.1638636913099685 5.806055124647959 2.1521482644091576
P 3.7188219936779237 4.009595877484095 3.449031202872401
P 6.2287946408319 6.907486357164447 3.027902507971678
P 7.9928269378411505 5.786167352567204 2.4464428593018535
P 8.725151258704916 4.145957728874386 3.7295062560497523
P 5.712978845630722 7.257114309109144 5.393257920865932
P 6.712763199398597 8.725875030047778 2.0178658437649957
P 1.8770607396940364 4.281105382313184 4.650249057516365
P 2.4081353805680545 7.5098262937377545 3.3354739922191814
P 1.0826257773864651 5.760091056987447 3.1289062164598547
P 8.785725399067498 8.745089034810457 1.553649010861522
P 9.73967587753755 6.954526507968998 2.0289111902738153
P 6.922836811609664 3.285171224782116 4.79003603578702
P 5.656171584677629 9.389920590127158 6.06861855641015
P 8.01019682557803 7.139421663304448 6.635172361351626
P 3.4348520952113106 7.350808941073123 5.293233261778466
P 10.321105045201502 4.918847784859109 5.144535940070981
P 10.077602398726977 6.969898237720387 5.986719882726644
P 5.220297434980595 4.757620294633595 4.911726668779117
P 3.4740007512851174 9.401845444927396 6.1474205939274436
P 4.201962210079479 4.472575152729284 6.924235719249842
P 7.573617374592013 3.6600967288404047 6.894317996850394
P 6.071920959199528 8.660817484164376 8.339019774344475
P 2.3976170147500895 5.634112015233404 6.340803957555008
P 8.328340629549892 8.905485453553762 7.8624894306966135
P 5.196667994640239 6.391857644771346 7.820541816916572
P 9.796853835747678 3.44582326321064 6.68956040547116
P 6.795363768602432 2.2468292152549463 8.283550423137838
P 7.263392719936488 5.544988699096846 8.24555990231369
P 2.8172752312867564 9.31951806309269 8.505140195749519
P 11.087770700339536 6.626639305936188 7.962195075480611
P 10.747489733014927 4.454195153663632 8.444487459185904
P 9.743826400481097 7.876288318528263 9.374989659349566
P 4.733085072487735 9.971268935660165 9.48649297257499
P 2.3619439776836253 7.42462281009215 9.366453301215481
P 5.578247488235498 8.129130046103098 10.49769981116494
P 4.212014315132282 6.476453498666833 9.916994748188104
P 7.122436766954457 3.7237901027896196 9.792438528825324
P 8.301457747894512 6.395344748535062 10.067920397148336
P 9.322286058095534 4.456795810561289 10.213357488807153
