41
Energy = -211.95813764 eV
P 5.342816512601196 6.64453848037479 1.8457281691067062
P 7.519490928678203 7.2647447613292755 1.6589548273724029
P 8.887271534319945 5.611851091233789 1.755121338462874
P 7.7851993912592 3.8996855519752045 1.5254155211531295
P 5.639492537335666 4.3783974003900585 1.6465741897519843
P 4.712372225338929 6.751753151070331 3.982948748451099
P 2.8415511156970434 7.9206102265203455 4.56969482396839
P 8.695682167271237 8.963735503985335 2.6331664790082936
P 7.468188983246962 9.601952957270933 4.366795989586923
P 6.545294739143899 7.5950647425868745 4.868254647841025
P 5.525113501657335 3.2974007117631303 3.546229514902486
P 3.938076522863984 9.684982994143006 5.268655320614355
P 8.911113304334329 2.928989436072515 5.860764961124759
P 8.459655569189128 5.177655975084938 6.174046735432687
P 9.889929280330776 6.458754121363378 5.034735277148563
P 3.8345297471715685 4.3675148465711064 4.198444827280333
P 9.488356372832898 8.692362325590102 4.68886252592481
P 7.0098899632479625 2.041002437044149 6.670237565757659
P 5.840113730033978 3.915246617043365 7.096119244853734
P 3.2920750625875215 6.983757843473097 6.6163411590634515
P 2.578578080592106 10.278915257093034 6.928159179822402
P 6.440181026439607 6.636296037349117 7.705542340978131
P 10.298918357072294 2.746092092956626 7.549785205844032
P 10.402700040098898 5.8051057766404535 7.120260068355898
P 6.070964184815775 10.234035353953242 7.528125479367011
P 2.5718598757496296 5.122584166881138 7.321409496562313
P 7.316802815463188 1.8304884111510833 8.914646962543744
P 8.072919678103172 8.085259505299913 8.044367957822264
P 4.188426858667283 10.960641999962128 8.42687711667864
P 3.731050866473511 3.611909535732012 6.268401590342897
P 5.326109980412965 8.267737770468786 6.595660929131793
P 9.09972602365281 3.1029791757313654 9.338799889713174
P 5.50842128037069 3.2183549677284558 9.229769904813308
P 5.180615590642944 6.431294742175491 9.543613066992712
P 7.050801641512968 9.553561861445173 9.395797256657552
P 9.472788022846979 6.683096427582636 9.036653165892673
P 2.2318579779023393 8.307110237515126 8.051123284309025
P 7.98963316041037 4.98554925048225 8.8273264947191
P 5.428943777167083 8.406794315771087 10.518098591376535
P 3.507613895232921 9.258851882331673 9.728654618722016
P 6.465336216156209 4.8538025957886495 10.480298071472715
