41
Energy = -211.18904443 eV
P 5.217741810653072 9.501933212706273 2.8320506299055523
P 7.367822596578245 9.04018093302863 2.275267682190899
P 6.482550892402759 6.2150013044411345 9.357028171503476
P 7.7350480716041154 3.1283785735809406 9.341857650291859
P 0.9518479170983992 5.182337906732118 6.038564485694432
P 1.6556776066445684 2.748991708281288 3.8904765367450276
P 3.698481306373658 7.115770894631594 6.9693420971867015
P 1.0346595059055033 6.291373438607978 4.1275696578735355
P 2.442977060124453 7.842708143280317 3.3397615049280684
P 7.508324240976147 6.872520568809837 3.007361563940384
P 4.484711115940388 7.378662234512386 2.5907012936451252
P 4.502924779586662 6.152325200353006 10.307755405443059
P 9.299954808708437 4.442354464515852 8.384149531225829
P 6.511672599105315 3.8850694293724897 3.145036771188766
P 0.1491514378312903 8.180602278018776 5.044546086566996
P 4.207623578764151 3.88763895532925 5.33174352105217
P 4.692013576528696 1.736885266544126 5.345828041798182
P 3.071894198084628 0.9894468309316014 3.9132713517161832
P 5.951697157661978 1.7789812229141297 3.451727425879426
P 4.087466197318916 2.153565187559551 2.266616301394682
P 2.706303013177567 9.118996031801888 6.936063561514419
P 8.565969047319669 7.710418417156067 4.773752577211229
P 10.276201749138597 6.597849054051418 5.612620207461013
P 9.028059075701236 1.7746742826207722 4.677869291410401
P 8.340735176314341 6.859037880683704 6.684423421326843
P 8.217755903306642 3.738931776787739 4.435475854100591
P 2.0543532778944265 9.441056932784642 4.760694690654004
P 8.017128640860733 1.9323323105320709 7.222925309798262
P 10.169495193593502 2.5126988503427525 7.5937151922652575
P 4.87998508330992 7.666924694037854 8.819516805442012
P 6.066195990444105 4.267420684542496 8.326309693298134
P 0.6627449917035134 8.162728582390084 7.281263963244547
P 3.3924277195503287 4.0818620599147675 3.2450118143054034
P 7.73638478646226 4.177461896539175 6.794560243482577
P 5.73909624607407 9.065963024009053 4.983179140292238
P 2.0974046298245637 3.2897603909103914 5.99735211389464
P 10.856566034966871 2.8448542365645295 5.449732297967534
P 5.764455189987361 6.817512017600287 4.367884306704226
P 1.763497279153525 6.265158332918645 7.75550934930411
P 7.777001925530749 9.78823130041976 4.383943126663311
P 10.192123834421276 4.7169132855272435 4.309110508267588
