41
Energy = -211.30736299 eV
P 6.986573802412366 4.285272962179151 10.973904941309781
P 6.042690604359683 6.949051357137327 0.9233959853335753
P 4.927906411111355 3.7611942234772893 11.526534955354618
P 1.3058360749195455 6.079954095327731 2.1830217556681126
P 5.336241241609766 8.92039737774092 1.24900892209833
P 2.6033129350912874 4.3146801845951845 2.029368224937432
P 8.316746046976263 3.665139667384556 0.8227862698589574
P 5.579776046321017 2.242679266791915 1.3424706234337613
P 4.6004018051704785 5.146903210531802 1.4744135800953513
P 7.603421983874435 1.6181204887570617 0.9361676831853195
P 7.633557684591072 6.552552345869976 2.428585176319749
P 7.7095537552296705 4.39425915051871 2.8792265730454285
P 4.186590896881227 6.868666850874186 3.990393392061891
P 1.1474055501212654 3.8259242372741653 5.0425991471973655
P 5.584315550980297 3.651807279186215 3.029909412064643
P 4.624012662437774 0.5468174567646547 2.551180676724588
P 2.2287528501512375 7.720719580935986 3.4372604645272187
P 5.351761298765919 8.685149717513486 3.3935844364482923
P 0.06273648092463956 5.512689195935118 4.021141963401633
P 3.3337685880434456 3.7524366357462924 4.081054365847996
P 1.1005117433773435 7.122537899516349 5.3033405270106195
P 5.7032831019539705 1.384010216595235 4.264750241587904
P 4.528583212986425 10.00476238969063 4.869109135986533
P 6.184630586896268 1.4906640298146085 8.13013726881659
P 7.589368425427169 4.43977105020443 7.336322200885382
P 7.368582863733876 7.974975209660703 4.157683716298276
P 2.128772404333123 5.365907089927183 6.268910071977285
P 7.829987263481513 2.2545904824428713 6.821397643704417
P 3.508407881539946 1.4843261709543636 4.241744695626187
P 4.174965538236101 4.644000333789282 6.934684572305034
P 6.507213835458774 7.364342023800047 6.16647470490099
P 4.343351311490442 8.096074777367418 5.908068731472232
P 6.055946441311073 5.196795468617713 5.903053611281117
P 6.693774859888048 3.3954219021784837 9.125906841336189
P 1.5836671943565603 5.507416983356577 8.428184580885924
P 8.22704426443231 1.7908883392411825 8.975630195435619
P 1.285498227323826 3.289404660350685 8.717224379605987
P 5.993021390436155 4.12317353605674 10.973904941309781
P 3.73989937813434 5.903672766784633 8.78446535166942
P 2.798444516003945 2.651090936119116 9.932703704937824
P 3.9195778832576287 4.451653043019989 10.451012071498177
