41
Energy = -210.64880927 eV
P 7.827007090139115 3.666847454411156 1.9848892178536952
P 8.340136600934828 3.9390345306763965 4.111859615075559
P 7.227304654755141 5.062753705510436 5.775561939474489
P 8.090036785852357 1.3881026288174545 6.6127722202102905
P 8.204981869094883 1.7603132031650075 4.49018755032488
P 6.428652139600289 1.880706997090589 1.5218536487353436
P 4.387156500205449 4.333708518582358 9.826727752777131
P 7.13710159293936 5.772705802112694 1.9193754616177818
P 5.304920287448909 7.565262572896038 3.8831643715065685
P 5.238975408445692 5.5120491283351685 3.0923248262378293
P 6.454346031626639 0.8150823856691397 3.4793122483922403
P 5.19422989865177 5.805363337073975 0.8926721312497388
P 6.220964992716059 2.249558872680912 7.128376793869473
P 5.285074007366983 4.068643503119958 6.227766735597626
P 4.832002440668216 5.033595823443564 8.23027534547373
P 4.19010236779102 1.6759141132614226 1.9135094897931895
P 6.426795822707912 7.136189516167832 5.599181737742502
P 4.497457617800911 1.8215343334722711 4.097862725756952
P 1.7253787493214532 3.2064786891278922 3.3388996710913066
P 2.9127843032253544 3.428327615931616 1.4808231839306227
P 2.955157276559292 5.952216512374208 9.413787732365481
P 1.5191447188874505 3.9062672751898524 7.2411603664827355
P 5.745686463543508 1.915209929332166 9.264225317277667
P 4.051415557565105 3.355871868990467 9.41378773236548
P 3.045075293953374 8.636068933537258 1.5300709809385158
P 0.09598888458044219 4.554090470829582 0.3789315913952008
P 3.5494039200656253 9.4273448712735 6.454927999169336
P 2.7812849844381975 5.715786284831928 7.526572268256619
P 4.310488872330742 7.5802704887801395 10.234237219268703
P 1.3006749160179427 2.679939591258417 0.10851022293527565
P 1.4567918251521086 5.945363372740862 3.5828552963666573
P 4.410926834782119 0.9870843405474033 7.585777150002173
P 3.103114714302601 0.07711350277899637 4.473240604762515
P 0.027074994167026495 2.911531532064622 1.9511243386253763
P 2.7024989159929276 7.722272778603732 3.6510278885483483
P 1.541629837380731 4.948097166504974 9.148189882558924
P 1.7481836167908043 5.772899086515272 1.1608799957116847
P 2.571428738778762 2.0465555511557274 8.075905051374761
P 0.5188919351269861 7.929178920664134 3.110788601404488
P 1.0444755976188624 7.890894544374154 0.9017555482288551
P 1.8244610134201327 0.43668838246017455 6.265185808815166
