41
Energy = -212.70840118 eV
P 4.7466742368455765 7.824313989404465 9.848886642121263
P 6.303602728337952 9.479453540874951 9.94521409035341
P 8.245357567912627 8.421197709228297 10.285792417133056
P 7.012525232723189 10.53691758376965 8.055274007664316
P 5.4002301632071275 10.617477074572786 6.508355651670363
P 3.870650542866139 7.289536339850228 7.8549982649842445
P 5.815411245078519 5.900176590611901 10.018125329494357
P 7.63596048810548 6.426534751853797 11.198618683857815
P 8.79940643526564 9.418793840763009 7.228560270695027
P 7.01763622869007 5.482685112074466 8.159497533207135
P 8.443312522456349 7.522698981647241 8.297134754464544
P 2.7201177168017794 5.614314601441471 5.408832605122836
P 6.139185616356953 1.635652231138611 9.163421467204785
P 6.547428811988545 10.022093414617824 4.657994974166633
P 5.694942488428321 6.759127651944484 6.775135852900469
P 6.132709140783311 3.328936790704924 7.783704735094629
P 8.403245460630838 8.888853790917533 5.123771717276879
P 8.74102833802243 4.951434180142904 9.832212283434796
P 3.5497174437349837 9.31125490073845 6.881413132253496
P 10.192380262497656 6.235057818462511 8.704301532936054
P 3.1246950207351687 4.727026233111841 1.9828629206748438
P 5.440843128274595 3.891910176831038 2.3530647087500376
P 7.624109098336792 2.9018955131607234 2.977136677535981
P 6.428143031220134 5.814160203908471 1.696293187417201
P 5.260353317230804 7.676243351574849 2.0790235140750166
P 3.0642485200402354 6.926436336454423 2.0588552885820404
P 2.5240829910459124 3.918638233447687 3.951190093900964
P 6.569075116240516 2.0880621692861303 4.734375106822886
P 8.272710763935365 6.317438861702244 2.868299383203041
P 4.805505766663017 3.533152146368376 4.47791500975045
P 9.068244622963089 4.382913678110399 3.739350649769054
P 2.1069683281425786 7.290394525830578 4.082733729670802
P 4.255060544991482 1.2781645816661678 8.294388115691259
P 5.449856395037403 8.022309412414899 4.27448591063129
P 4.912640902236803 5.756165111302531 5.026746772803485
P 4.09832097516572 3.057140399802714 7.052474239722908
P 7.381184003697394 6.8118524939022205 4.869565891576219
P 7.76134804613945 2.808893935132475 6.408036779068794
P 3.4300432467015973 8.976662547091331 4.680963373245979
P 10.512583703671147 5.2526849561078715 6.768749870910865
P 8.552832598365557 4.9557170296008755 5.9466156217284665
