41
Energy = -211.72895638 eV
P 4.773907595106175 6.099715069415446 1.2247475165123598
P 6.558855071246173 4.809004772373482 1.6824649742712487
P 9.92512921387622 5.412975726268558 3.377238795858881
P 5.846178577155149 2.7738191798313796 1.2602557310164273
P 3.69647932650756 2.7576033428739026 2.079469636728953
P 4.988581820709093 7.116072270981761 3.168070723162417
P 2.935783273457229 4.756877815777187 1.5169569937379044
P 7.964370623197529 8.148536989415389 4.731130674941952
P 7.326536752927044 1.7156781256462652 2.4316062445191284
P 4.767068257650658 9.583535126004586 5.134856577812118
P 8.145437828840974 5.979001614285492 4.341049621594362
P 6.308070235192896 4.841621312230891 3.9143575670499886
P 1.888520573999116 5.431708257284883 3.3784360275676093
P 9.81473860435343 3.410304117310106 4.2265621537579054
P 3.5736642332401978 2.4652967658817966 4.222201140228232
P 2.694061364235368 8.72570000603222 4.862338211563465
P 7.575119783526161 2.938322257239055 4.20478190290215
P 3.3641206502897365 6.597858154771314 4.603354188374494
P 9.083538242263455 7.797841766265777 6.687921287363838
P 7.561224025209557 1.5722377598019865 6.094512263024012
P 2.2303941878608744 3.841565664722868 4.914238204953669
P 5.243629645122703 9.238142963780957 3.012566681663777
P 6.005073504680834 7.813212073019144 5.86984960860374
P 10.24268947817195 3.9777476454255116 6.360930477581684
P 8.72103597916056 5.573750065117292 6.600026575069659
P 5.367382622862595 4.762282500965682 7.455583417425922
P 5.844357278707044 1.3536933886027431 7.325142987753802
P 9.155999762804742 2.29020554428315 7.42978429191551
P 3.7406874697495436 7.461292282141841 7.883851461356255
P 3.45737484431824 11.183083000690651 8.07299475175998
P 5.892471689419646 3.0018545452713528 8.750273390458236
P 7.087150891582657 8.209607671857619 7.783496752943544
P 1.8814456286499432 8.114563481310174 6.851773063469412
P 8.07610348442388 3.2280793745550507 9.21491019669238
P 8.525029075257429 5.362397832681041 8.848506151482285
P 1.7066236739043679 9.843197946750468 8.275986502379656
P 6.478285402773851 6.233313756749369 8.70526934656546
P 4.58071874659281 10.129839095254365 9.474585431309698
P 3.7115793845491147 5.4503186144280615 8.865320671929371
P 5.1059614790830565 6.339263798152869 10.363426670435215
P 3.0436093248840232 8.547867932090755 9.688160739806548
