41
Energy = -210.33954232 eV
P 7.277393217747564 5.347510193448835 1.7291804640977468
P 7.759615586455397 7.1718422098967025 2.914184354607199
P 8.083600122418742 3.5786027950312693 2.793909539468702
P 5.674927189656996 9.289537711438754 2.725339680415168
P 10.084129847865308 3.676842879250995 3.5756243239082393
P 3.5455941390600025 9.656809705121464 3.2171935717915052
P 5.053073799762958 4.813825945913992 1.9344151290460243
P 8.895576387246496 6.917550340076138 4.826932249695749
P 6.806178831798089 1.9337655038523376 2.320335505319098
P 5.093004322694401 2.95061999848976 3.1845980445503397
P 4.23834604653949 6.084154578222904 3.6090198758330545
P 2.5828475879491024 7.630488916739819 3.2388261478547817
P 5.8203516248213685 7.530472960611798 4.091196595851903
P 6.726858019386241 10.471338997932962 4.415460148041734
P 8.484357478739495 9.101620667571748 5.335752251107916
P 5.376403590058654 3.427942597671636 5.362887186338093
P 3.5973720117878725 8.444208781484294 5.08173679838795
P 7.167017379417011 5.617016826917911 5.509728214635099
P 8.457413381854597 3.7875109190466167 4.966841134704884
P 7.089411699031495 2.080451940125812 5.550854301016457
P 5.53517076961632 10.591659461705536 6.2955100626202265
P 3.3051751370542357 10.263090487989096 6.395242723233434
P 3.8818752716057916 5.756486747327782 8.115506243924004
P 7.519024474820554 1.979720091858921 7.810569534326747
P 9.229655693377266 3.3779730909884735 7.687898428326875
P 5.689042991069796 8.477880088764692 7.220055774264009
P 3.271565723546299 5.242923148942125 10.197856350902056
P 6.194559047228745 3.6283055885576205 8.576609633506571
P 5.837817405044764 6.5963341839623695 8.646613154881623
P 7.542156651266294 5.187098067175055 7.697027567825212
P 8.328708845998884 10.162527122263922 8.7810530291353
P 7.9495693780296115 8.504455578676533 7.413077671908417
P 3.9237965510452857 9.371380335271478 8.375159226242795
P 2.584034438725235 7.614599208660139 8.400859472715872
P 8.172152548621492 9.238026016554791 10.61783174520611
P 9.233432923675005 6.0625212157680135 8.823412685986506
P 9.39119781793868 4.055337582306245 9.830628211004951
P 2.2716456965452525 7.044111111072014 10.492523787198339
P 7.1948080324474475 3.9234197639204553 10.534998334291517
P 6.405802862594144 6.082250026281163 10.757863014637504
P 8.423724548134384 7.026175685784545 10.644076903867001
