41
Energy = -207.69959779 eV
P 3.650765398357031 7.822869417970504 3.4180899298609564
P 6.099270538459652 8.775243457088166 5.718584171738985
P 4.209169245653413 8.165183789433339 6.84748426662573
P 7.75060512045042 10.418505847283562 8.467249773905305
P 6.165968312243228 10.686247431172124 6.941692049484274
P 9.350781952831953 7.291629044264866 6.96255017120277
P 10.520738401977463 9.06459424432297 9.148100807705374
P 3.871625506390935 9.417149231673896 5.064736976836042
P 5.353864999977884 6.547098519429513 4.158717151363071
P 7.674052763916549 9.066286143671194 3.051948281021184
P 9.490078241256366 9.63389525982401 7.306946433617114
P 7.317664580677487 8.784911526860974 9.935210015556894
P 9.367432294447608 4.728294385417377 7.0402740790081255
P 9.6428792402375 8.82602858194498 3.660485090393204
P 8.925887856879347 6.883181024888537 4.478210867444144
P 11.512980705385804 7.188015883948649 6.407486946391839
P 11.390250065537938 4.969635788185588 6.0532830464898355
P 11.035673854805937 7.037737772114112 8.60411344047394
P 10.076143752841789 4.926732543598827 4.189310810974169
P 7.327186402003084 6.819022226532644 2.9659910291000977
P 9.14152934322218 3.2293261756094065 5.485050614343191
P 7.945538595604228 5.271362133239326 10.105236046172305
P 9.309529356912051 3.841036386967638 9.036471595683805
P 5.253100989330875 6.7744586998084655 9.920865468381677
P 5.084254912108201 8.989888886172158 10.104061715116261
P 7.13607278317653 6.861004373847348 8.720224832287801
P 1.974236392150239 6.7627325680082615 4.585399519445409
P 4.352546223570692 10.01211337580585 8.114018487193437
P 3.4506702683667836 5.462559805870456 9.617153292105346
P 2.655580800058159 4.465859346945661 7.743976866427454
P 3.294589137051119 5.422724652310404 5.795283871461378
P 4.306137912962331 2.980573133152965 7.582625437678107
P 5.1084653491251055 4.724042969784477 2.9640033164945527
P 3.3461260421631285 3.6061848609412377 2.808541584104071
P 2.0395315575447674 9.457741663909687 6.164252692704619
P 1.963624200773345 4.485983519146354 4.328590450923876
P 6.129472701097067 4.302761216992235 7.182229400722358
P 4.272520156455812 3.386950727626076 9.766125155636765
P 6.9924433720050425 3.4984009198232173 9.133880447004358
P 7.136294859675268 4.0863271752185835 3.528410890131836
P 6.9125079677605346 2.990928916048646 5.430924886441525
