41
Energy = -212.50862799 eV
P 2.5800680784131242 4.346237458809088 10.76126360665169
P 4.882706635932581 6.6154756927820255 1.0433714160183045
P 1.402849524167764 2.572119995373286 10.882640933988995
P 7.887625441775349 4.801104729448059 0.6256194217495704
P 6.472041416386844 5.551083295714568 2.0783945927115464
P 1.5154532869455621 5.1626639978327935 0.831254796940045
P 1.6623338233222322 7.320085531750779 1.4108018931531503
P 1.5695784362762548 4.06418753266722 2.8107924159413105
P 3.4931400534724735 6.985465319718511 2.6333074960416143
P 11.249825787863506 2.686206427056259 0.43544744849355144
P 10.92807108432545 4.879748132975888 0.7333383764844443
P 7.6115860970120535 6.792867429352155 3.64449100264629
P 8.512764296408767 3.0616906295603106 1.6958820290433945
P 9.314165143023653 3.237196213703267 3.816107085654775
P 11.110615522454584 5.0166384355381455 2.9788449751801243
P 3.428590410668103 9.033560342077726 3.664004725534284
P 0.10267583464429901 7.172684140649829 3.0630269904475442
P 5.847293845647112 3.9528377936127184 3.5256856090193174
P 2.867370019321146 5.382008258717836 4.094622786927499
P 4.843359495001607 1.5564240655466148 7.346637938694353
P 7.750588814869817 4.652114441078317 4.493282494911207
P 5.163742593731127 9.048289957140604 5.1194058387352745
P 5.7693223828746 6.936252739653287 4.835547837316292
P 4.456151364273109 4.409990919345962 6.797846397472236
P 6.686553947273097 2.1328259889097434 2.559371787446552
P 2.083485048523251 8.590636172013545 5.388071281814059
P 1.2112951823567917 6.60503135927096 4.9002627935910485
P 7.908911647592258 1.6485880892457665 4.366075202127523
P 3.336802350415933 3.028974424049143 8.110405866452831
P 6.397614304671671 3.3475941332277506 7.543772104283591
P 7.839257659250249 4.9679419913123235 6.718501422481157
P 3.812618372143422 8.398821186884156 6.845747471217084
P 6.616278983155827 6.834040363891674 6.89876468647644
P 4.570082806929494 6.375255171701034 7.802541219095497
P 5.054817039674389 0.9485889138856431 9.465707419375041
P 8.197643766602628 1.8172644995855745 7.887214797922624
P 9.322034921084347 3.088391588106366 9.270533017487745
P 4.3754791586534365 2.996304489816548 10.167276207900283
P 6.157009272164689 4.181323326855597 9.607153861048328
P 7.333062434161853 1.007269659403779 9.770629247678157
P 7.651787074383305 2.995638754457085 10.76126360665169
