41
Energy = -213.00953754 eV
P 3.2462262815961203 3.477444475155237 2.1451320492633528
P 5.063531301053615 5.554414599889417 0.04147140151538784
P 6.031667853622592 3.540416866003601 11.063575651965168
P 3.0014329030713722 4.904127765538984 0.4278708867655173
P 4.679670254852947 2.2102660554618185 0.9899874938757977
P 6.203790256294616 1.163672915519751 2.273843646452241
P 2.3018020177516942 6.729923541948322 1.3877107328148224
P 4.420057282354125 4.789894510492317 3.4759590562545184
P 6.5761024239670505 10.5107793249529 3.047249874844742
P 5.926322619753268 5.762293543342487 2.145662497746245
P 7.478278183577165 4.366126927992997 1.222169439489244
P 4.454290522885574 11.067357881799333 3.464259892232821
P 6.652792082202243 2.60050683411046 3.9111468626646726
P 2.980265614491016 6.499225902821153 3.3861566154500427
P 8.0558737729431 2.4603335213622732 2.225704108554278
P 4.893612184554111 9.294696473050058 2.1169969910864457
P 4.782097484275252 7.927353994480115 3.93753279053405
P 6.76212519513387 9.059509632202925 4.700048587099515
P 8.56213444650442 8.190482114889367 5.2646820492489725
P 8.143616569842901 3.7768415581964905 5.962963723546531
P 5.587662402907304 9.794408475000688 6.424338797531668
P 7.597705441881788 1.6008441711232415 5.734186108599095
P 7.320240620076298 6.64070461807259 6.2360884810733905
P 3.8013097573045678 9.596868216786495 5.089530740343239
P 2.4447116631819017 3.6610999845513197 6.928217632387055
P 3.3084185127489554 1.6447302708786342 7.248701927161664
P 5.38881783703212 7.594075822563418 6.981400976122673
P 8.917409191836363 3.9302362127807564 8.083543271023732
P 4.240855223313114 5.024157908372416 7.435202766930607
P 8.673540262217871 6.213598450894246 8.008872506568228
P 6.140593613351756 3.0831571608689985 6.633272248083002
P 2.751699237695484 6.323281009501178 8.491292828626527
P 1.7778105617200488 4.332332056302788 9.028520376266627
P 6.9721825348618385 2.8329901616829676 8.725831459236465
P 4.363081002103622 1.7049752120261419 9.12735137824894
P 5.703136396566569 7.851659989899164 9.204272686792164
P 3.9036196257905234 3.7840617274934756 9.300537207167913
P 7.366426640973882 6.486116174424236 9.78041801887514
P 6.811013615372048 4.408561462298541 10.293451302459596
P 4.003123849331714 6.824550269463152 10.32130794210875
P 4.735157060395644 4.8061265071951285 11.063575651965168
