41
Energy = -212.23333859 eV
P 4.665640722175796 7.276956763778207 4.29081815204137
P 1.6922197269305714 6.362936614565256 5.66269958436164
P 6.456056106544893 8.608851629507694 7.933828440637355
P 3.44121807089278 6.54663131318042 7.3091399572594415
P 5.020789194159199 7.274080824542592 8.947738906174317
P 2.987910581702852 8.463487931858836 3.3847385959340484
P 1.9077226982447493 4.257951675834864 6.021644144268944
P 1.6662389137355873 3.5031859303991153 2.6197300923252906
P 4.200424087824406 4.446005525527279 7.260086346027262
P 5.737412677549583 7.052772023639601 2.2769373048017343
P 1.9898882587123987 6.065101033157042 8.978072190488941
P 0.9724118307913144 4.317792634842428 8.04072794932292
P 8.35735126914799 7.512462746679677 8.046622462358684
P 0.8287421605805482 5.407997874987021 1.6748035061144757
P 2.8003594801454024 6.27848072202407 3.7131724265115724
P 7.4074584580031395 8.042636644316975 6.02523326500547
P 7.038915584032126 5.8571859650704505 5.586411297715539
P 10.166670349234364 4.121171711764547 0.242929715894933
P 2.939632635974989 4.024339730170366 9.103761124696437
P 4.235635448326713 8.536498633147781 1.4161485815188886
P 0.011183536406561318 2.335101449597661 1.5454448972883812
P 2.4743407070083574 5.5490977346384405 0.14961651144505933
P 6.919404095465177 3.756657822290314 2.752917630554508
P 4.447459877120345 6.537924872500122 0.5669292669523126
P 2.263338403984958 9.715108448285353 5.414863478558758
P 7.730817056389741 5.357282440104984 7.6907981335152344
P 8.976224770491266 5.904277262205797 4.551900527759867
P 3.018360444434108 0.848361990426146 2.588801163759947
P 5.8323930702820945 5.262415021673533 8.837688874836548
P 4.313587914991073 0.004157017090490103 5.657826057484394
P 2.809679412732032 3.422807980596975 0.678146288486575
P 1.0359592058913267 2.5409135267047085 10.150092907022337
P 4.777201844468951 2.794947437102507 0.4039275109950557
P 4.588056850869343 0.6314422344157832 0.9647986213216396
P 2.490901581082972 9.368672731006683 3.22615492585308
P 9.0878891204798 4.071321366528314 3.341845117031919
P 7.74173328953821 1.7102619094574099 2.3758933574198906
P 4.021317286910178 8.608851629507697 4.643304043922796
P 7.776096400940695 2.6179297101255354 4.4195502972522
P 5.976530802130761 0.37934594473783134 2.734385834653626
P 4.552647130306568 1.504011667848318 4.060016490076762
