41
Energy = -211.10009059 eV
P 8.443078227855855 3.099083143050477 1.2244037093879643
P 6.5283671971933686 1.853326105607862 1.3291343303575838
P 4.827480491333083 3.213738437298364 1.743236379345422
P 6.137734651131884 4.808588925407987 2.6273910779352274
P 5.4493907550254645 6.851264044516419 3.1822050603291725
P 7.7465239688215295 5.137936537838302 1.2726445656926868
P 4.013061079876421 2.20566923401741 3.512945820028588
P 7.22413124258324 1.1502996881913339 3.3723546851997384
P 3.261598623086769 6.565044938678794 3.4659938690272742
P 9.102353477690784 2.424687004144423 3.36205612447882
P 5.745371934356739 1.9401825580897016 4.762487249486642
P 3.182906501615254 5.083265069078479 5.122343141739488
P 6.602232908239543 4.188735890916335 4.93096416611152
P 5.61042279704886 10.233074367194721 4.3245798341579835
P 6.47803958683522 6.5547012208298945 5.21875868099711
P 10.507872114851606 6.556908646825651 5.575973142338505
P 2.4851401405944005 8.515996408730533 4.383806505846888
P 3.892839564323573 9.685022230174681 5.704394629553705
P 8.725787513579697 4.352365744811999 4.377747057261626
P 6.802269842904268 11.521214284203381 5.657388952009134
P 4.62004148641396 6.257367764406479 6.322818480296583
P 10.307304701321458 7.988021411207345 7.055553709637968
P 6.789788411073804 3.674949098784894 7.284647966153366
P 6.271619449929605 9.850050029395538 7.076704014076266
P 7.441270167631708 9.388343501822371 5.262024900123424
P 9.765416312217878 4.637737206326075 6.360634207945366
P 1.3837429065485218 5.5835766292322875 6.225581966496149
P 3.6265799236122818 7.994577849048391 7.298101728852289
P 1.5785816547336333 7.7321547226300895 6.280595788586734
P 5.215195268888073 4.969359085947915 7.993269769919611
P 8.066453472022896 5.476207299147683 7.67176975833209
P 9.644150179534222 6.848343042924806 8.778633047000811
P 3.4251057012893877 4.501611208010252 9.126291235529145
P 4.773898874619442 3.7573026329579786 10.791337581628412
P 8.147062655161518 7.931313364005515 9.955723329309444
P 7.128376520969643 9.787714590552788 9.175290676438733
P 3.0280509790499224 6.7400684437448675 9.333492476844329
P 4.914759620287054 9.236416857441089 9.034069541602783
P 6.569041974910259 6.286010300438668 9.367222304701702
P 6.556133342516471 4.806941162018666 10.987714530218739
P 4.8434724284074475 7.473477970436124 10.330362655107487
