42
Energy = -216.02233002 eV
P 2.639223243427214 7.969219765250153 5.382904152807485
P 2.977606390961702 9.418227340309466 3.7960974952981807
P 3.2810490402140986 4.86902196715751 5.142114258274381
P 3.9097670778378344 2.835028384495552 5.855498053273462
P 7.159774934799272 4.596394995465731 11.147563421734926
P 5.25288405073801 10.925917250902891 7.623247019334972
P 8.960446210840512 8.958493605351277 3.0442348483110333
P 10.111553379737963 6.618490561847391 4.77612745324606
P 8.146770563359869 7.128686177029883 9.234827530049701
P 4.543116398772581 3.5886566201223453 3.8209002097866382
P 6.758898051888837 5.164452712651869 5.987661631082239
P 6.50643034776575 9.473857476671586 5.068632074371697
P 8.151525225726743 9.185992123515545 9.9837075505994
P 4.953241696185054 10.602516994363771 4.028849279004462
P 7.336299420531868 11.817205328168747 7.40843519553852
P 4.686396356142681 4.771755765912173 9.059401787413488
P 4.08300431290436 11.519992925609133 5.861729593406588
P 10.141453801088632 4.6249032393087735 9.307128448029921
P 7.268066856899068 7.7763217522700065 3.8999099476095087
P 10.322593649685247 3.7230803149340597 6.0539411989235
P 6.039906183899496 8.86296528040841 7.1345567541892105
P 7.965464157208658 9.760954625513417 7.9585347450096835
P 9.559858362351179 10.053927863761524 6.381968956586954
P 3.396322905323558 6.153464411168114 7.92907413302576
P 9.084810808730522 5.8831777263809215 10.830011310331336
P 5.535322433496071 2.707383529334738 8.999897671760483
P 10.441607571396402 8.799616034191061 4.5890050947712195
P 7.764230053274692 3.193632843427246 6.509328505201641
P 7.835113365531381 2.6584404905846104 4.326217442017563
P 6.1697164023663245 6.238480517077839 9.88707549937792
P 4.4659676355822 6.64359461053419 5.922844019413601
P 10.467407009520889 6.333413671466146 8.138523411341271
P 6.593574363221041 4.497574164532872 3.8622854849015056
P 4.020724054121286 7.217034681020886 9.843904681311395
P 7.609052085420912 3.4046466113632796 9.362612236961388
P 5.803973479257038 2.158504750526235 6.8401035677966595
P 2.3017956546225173 10.07397853920752 5.890914049671059
P 8.133149313553455 6.946733771399995 5.813297209915495
P 11.476350100018136 5.634324892349103 6.260305600564866
P 9.74643711622447 3.821904443100629 4.041806426994233
P 8.014711268756669 11.158390170280018 5.293616446040101
P 3.447542603615384 5.287531575365112 10.745830938690016
