42
Energy = -215.86126392 eV
P 4.252365228279017 6.538008643956241 2.5739170112109697
P 4.069047264718303 8.372356283045765 1.3518053173657865
P 6.695409621480858 4.30332703319626 1.7114534353070834
P 7.456035431001048 8.934923855061616 1.3189660970572423
P 8.416152453222416 5.414852174533549 2.460351700669923
P 4.477217410137061 10.198751067407775 2.5679358060941784
P 6.692238798829715 10.637105216531854 2.4480563319035364
P 3.620076960219296 3.4050913002203065 3.527894003299072
P 5.811463386983425 3.8285530674773858 3.6026340316747723
P 7.663556767963858 7.578976560231111 2.9325251702363815
P 2.5460478098167294 7.933635839509348 3.041318274933555
P 6.434129817502147 5.385761020078063 5.14616904696254
P 8.826513647380247 8.723989052941867 4.5588229486552505
P 6.1242797467604335 1.9549790892958971 4.744339361793728
P 5.768501354623128 7.189354564963497 4.020071242296789
P 8.530501141254165 5.063373007136985 4.615213052636889
P 7.544835783337415 10.560197058747622 4.5476619571792325
P 3.3668652728806907 9.531380232988134 4.383069666450997
P 3.001361391728667 4.112039587189213 5.551854889011076
P 3.927107278536408 2.1029623165422886 5.387416395259357
P 7.929336852158417 2.1870247745071296 6.056799793173671
P 7.8687815233958 3.867419914173767 7.482633551362733
P 4.646294391809794 8.296097687099493 5.7250894415540925
P 3.3125282410067194 8.614258811465708 7.77548400441645
P 7.528342052581422 0.9390917991020895 7.9258426435851685
P 2.3617015871215066 6.626382244288448 7.534171964748762
P 7.461690878143309 6.646466393074599 7.079636079961129
P 9.400377219834684 5.557323334682607 7.377853330970825
P 8.068484906323857 8.769363821673902 6.701317077467398
P 4.278573283126188 5.602228181649417 6.606611064431789
P 6.172918304095781 9.88705827217887 6.256692122270473
P 3.93318074028059 2.2645245095626887 8.611293945193307
P 8.677630862129812 2.616167251032499 9.079032517534692
P 5.776944110880963 1.3737714068969222 9.338057717860435
P 4.7355675115802205 7.458976324908344 8.910619674739207
P 9.350802737945289 5.812205154126571 9.600043256813809
P 3.164837842190468 5.99216772757881 9.545736308269522
P 4.436151072610138 4.323511182050971 8.635605293297443
P 7.3205753089864185 6.426397767913202 9.309829873053035
P 5.931235502661263 4.76424815882443 10.196506754301682
P 6.346218117671903 8.230366345927205 10.06062907761744
P 6.937126243292033 2.838337822709769 10.562044623861002
