42
Energy = -216.79606772 eV
P 4.792858189643672 7.232455145752648 2.548285845228166
P 7.483897049081378 4.711156007384064 2.056371762036369
P 5.59486095041329 5.220848910707316 3.0808491315427644
P 6.36388142282317 8.63358397615573 1.7407240379832296
P 8.910908095982325 6.1370061558000035 3.120283214847156
P 8.52532053629443 8.114710140956307 2.1571955583353377
P 4.2710283859905 4.145106851694634 1.6831698592643984
P 2.30849473053009 4.773559425694793 2.6145724187027772
P 4.88911328406355 8.106591791995578 4.609842480420036
P 4.328583852929611 2.124675801295055 2.725391798614912
P 7.6480057923967415 2.88447862568017 3.39763141456529
P 9.23168540144259 9.509011566455644 3.789689125786173
P 2.5888853389715862 7.891610929146063 4.879598904978739
P 4.739892422606277 5.559732047188929 5.646961204422565
P 7.630090655737526 6.447115442719259 4.894169124041572
P 5.598926990970256 9.958054530131262 3.397565941386012
P 2.1383928450381386 2.6172007932714525 3.227153233462844
P 2.7566032652243293 5.681963997355555 4.617448613760291
P 8.326609754780376 8.46274235051093 5.511640195623587
P 5.813227283668262 2.289083703305266 4.358303999436086
P 5.164204784043303 3.4594154514864113 6.175788887415425
P 7.344912641998535 10.315220263116219 4.73082804904042
P 3.259355204319442 2.54728669338245 6.874549644767613
P 2.2000439275240264 7.659293795785328 7.0245171216236635
P 3.624552986002716 6.101801230436613 7.586160158114099
P 8.487772534819582 5.069434189306514 6.52391377702928
P 1.0954095302036744 4.825625309191996 5.855003096658914
P 1.5493754703330798 2.6269180262928313 5.396654784838498
P 9.625853875741848 3.2691091084681836 7.654448946637972
P 9.14489101789387 8.596133893558964 7.481274133575756
P 8.020375018634178 2.4805732905625635 8.766243008955751
P 4.411688498283855 7.46446300080391 9.399104058357244
P 5.488474386208732 8.891668383523509 8.242459752929744
P 10.063047798242016 5.490114703708781 8.088290037227898
P 6.708216761735777 5.601115533497134 7.63257293001562
P 2.1852478187161704 4.367234735549531 7.75881800028018
P 7.328476671603753 7.749176481513696 8.313800174044824
P 7.252086377225456 4.386878827518406 9.465510718423586
P 5.82567781529351 6.665231810464421 10.994052312273967
P 9.04828190051502 5.516795208677904 10.088990727508753
P 5.812377853745387 4.488265341007186 11.009893297260888
P 7.927554371264089 7.436700021883315 10.389422011517711
