42
Energy = -217.45758916 eV
P 7.712294773209061 1.620979023490684 9.426802974120138
P 5.636983380614162 1.9435454726601087 10.358850742304707
P 11.004189844385968 3.875423822912408 8.149193097958438
P 9.316758474635334 4.955466486021957 9.009635673208699
P 6.0249461768581964 4.146208707076817 10.412686334420682
P 4.684770244167379 1.4701601917065863 8.324420822349586
P 6.737284456217896 0.8556150497847647 7.494301437137758
P 7.4745908610065666 3.7279414581230412 8.768674220580964
P 4.375171993612695 4.974659567774027 9.127175052907983
P 4.11179862069638 3.4331567788375965 7.47795922713954
P 10.899059043444176 3.529358062788238 6.019407047452803
P 8.527894754407008 5.912975780695734 7.079615912818548
P 5.747662853719786 6.4603937677081085 8.216325017860443
P 10.001482746537024 1.982455712339066 4.412524080983115
P 9.977513531072333 5.432021220882911 5.477283981055335
P 7.450940580450675 2.6185227899887993 6.324939160506881
P 8.552978001978236 8.18294303264681 6.836293496629118
P 5.578694970514526 3.71064124387336 5.831043767448945
P 4.665812146204746 8.182327744648605 7.305975880446939
P 8.982783419746971 8.476210150006542 4.5836084445069165
P 8.13406041529614 4.94837913203604 4.362107493253225
P 0.4324357035094642 8.223684774377945 2.0510060202654166
P 11.004189844385968 7.683462967431204 4.029251025020334
P 2.5000099078355813 8.971876345646795 2.573966486444458
P 2.6672926522957017 9.159873807669532 4.820957163736752
P 0.8721359128882397 8.13652347626356 5.6775532329411735
P 11.270664616163417 5.4519351195206 3.7426966631846317
P 0.08633473839012916 6.0134239203867175 1.5945266501809559
P 3.9430178140361023 7.359230418083852 2.249567831631907
P 2.0471917953680605 6.238134776067964 6.132168780297882
P 1.813599341708813 4.896995395708633 4.3775865386953186
P 3.48772733359829 7.57866995067915 0.0986678951187287
P 6.725926747892307 8.57464356782147 4.050580216526961
P 3.8860167610249374 7.315293172922268 5.377147851672278
P 2.3955715496807555 5.959866053816224 10.982397708185555
P 8.028058319348192 6.953553277073048 3.3023150752859407
P 1.8452333297909564 4.740005694051783 1.2315339404088406
P 6.560746668731762 8.991058897658867 6.278748372086426
P 3.330343068639861 5.2771711424625956 2.7576387098917667
P 6.431279655765484 5.703314079926798 6.184269538264041
P 8.728760534596665 3.1587382540641764 3.068044242820699
P 7.78991853810393 1.558925451711036 4.33549812318665
