42
Energy = -218.2477072 eV
P 8.46169069585146 6.8536672297604415 1.8479967896672775
P 7.752797341604363 4.753664445954607 2.337741863115493
P 3.7228957554231883 8.265521339545025 4.4985788871316
P 6.732969457228937 7.729256987598462 3.0188118474395615
P 3.521163086234333 7.3106167340920925 2.4855288981408106
P 6.217887417376157 5.68397437043027 3.763382233887737
P 4.168374387387191 5.262301122282859 2.934894010377894
P 10.327416421005113 7.250254797714004 3.014834933490771
P 8.937664278358406 4.127851998919721 4.143013823153943
P 4.576895879704619 10.346501443078541 4.524021314273476
P 10.853568304334551 5.288996043260069 4.058720599937481
P 7.606135987217596 8.478295494135718 4.895481463927664
P 4.571273211732789 6.960494441120225 5.973974521386214
P 1.6187442388042632 7.56617024645485 3.750614862670163
P 5.9322099642080754 3.2328540617771306 5.810133237835809
P 8.266442452973118 5.68594668900961 5.602514230983918
P 3.362137183011729 5.403631394374402 5.077268678999981
P 6.7830229585008555 10.591850630976102 4.894376735807256
P 9.75914378474083 8.831572465859383 4.4857658532806965
P 3.5921534399851462 10.753270092345373 6.443951337127067
P 10.419605829226722 5.7214596602412735 6.223938361861909
P 10.708792288597651 7.936447342961048 6.356144753070877
P 6.150147308573544 1.7014626561220068 7.4363426018657135
P 6.930199296223895 4.733851321618598 7.157410700093563
P 7.0006685748590805 10.712915883633553 7.118845584135964
P 3.751677554902379 3.4833742874549 6.094591616126575
P 7.865834648176445 2.97967946682498 8.168215361456577
P 1.2771553332869279 5.870168457302152 4.980870682355077
P 7.0612216735420565 8.485747269536775 7.5186039758934005
P 9.150635795115326 7.8897747983649165 7.929321737706665
P 4.389495407129128 2.071005200394817 8.808023823390828
P 6.390038711039717 6.067588271513222 9.400228779160994
P 3.4044661602077575 3.9650630670376543 8.250266583297833
P 6.489254067834926 8.298098864659938 9.664215722303547
P 7.914492070741258 5.217442764038897 10.574488425854428
P 4.979769762176413 11.0470516936873 7.92450612273006
P 7.4560483833526785 3.1085062192717388 10.349546703674747
P 5.216381527886963 2.6285265135702254 10.797606583222118
P 4.186237663281393 5.651978580713329 9.49742218052281
P 9.920213374198164 8.732666498923582 9.74882906220512
P 8.26607258778939 8.691316636282815 10.967908759357652
P 4.092455880062975 4.414632661045427 11.256515900967594
