42
Energy = -217.12046321 eV
P 5.358406120039905 4.016101952720941 10.413358127233352
P 4.166703283323076 2.2412461238353107 0.5854475192280538
P 4.923488556135053 5.531385864002797 1.4279329200241813
P 2.879058825589541 5.183306029833001 1.9923437261400134
P 2.6843763886054544 3.0024057116472154 2.04582491611111
P 7.136761226140949 3.179935664140188 1.4048556984286134
P 5.938280426872067 1.3680719144879647 1.7161649626849846
P 3.1657744583778844 10.351943139638676 4.705542841751576
P 9.13698310888946 2.5242435951612454 2.0735665622750403
P 3.3357955106752777 10.32029428707499 6.913545908751632
P 8.857250123080156 2.902613163994586 4.161495509051199
P 6.644841504059132 4.762775717309886 2.8005340809725294
P 6.5378574073711135 10.32230862481446 5.9012389707707635
P 3.9495941651511193 4.658756440125583 4.62668144249823
P 3.9636292903019688 8.337883392307665 4.036363652881784
P 3.474050986585491 2.4940880932793466 4.134821817203296
P 5.487186353252759 1.502333269548349 3.9255720511914025
P 6.095672508002549 8.476216477719799 4.722136975531193
P 1.5315575099889907 9.475806545735663 5.988881618002121
P 9.79849422017616 4.633874664384468 5.493035406152476
P 6.687060815101023 3.3221562933076125 4.476266036077454
P 8.832868154276447 6.574013002663652 4.88220024713592
P 5.044597756885217 4.131130770416547 6.563229651181149
P 7.645966613275631 8.955036962239394 7.12008186610655
P 9.57326273985856 7.972584755056367 6.508066965166949
P 2.002292810060301 5.428151624327443 5.525639643551799
P 6.149258338587407 7.376833431649656 6.796433564197398
P 2.8109583440621027 7.556964884782101 5.80264323003095
P 6.988415338440723 5.597213630832299 5.7544294144325185
P 8.14272512658991 4.199325766393509 6.99919383679947
P 2.333978008124619 2.9065769006156312 8.461177321080111
P 4.281441014003465 2.298897050603166 7.573911610252678
P 1.9151275470740583 5.046879427191023 7.803345149206347
P 3.988341225522115 8.081672161192262 7.583817671702027
P 8.546250978829319 5.301214763981014 8.94371932869681
P 8.292498520642248 8.867941153688625 9.328819725404637
P 4.242771044556587 2.97346225839864 9.691906645322188
P 9.707662061729359 7.186471292606351 8.60997940259784
P 6.688708445229212 7.957488190030147 10.413358127233352
P 3.990277687517949 5.608449201760944 7.841239890652423
P 6.549483985109735 6.29667427292391 9.052740438264584
P 4.665554719859612 5.220534781532253 9.853881473984757
