42
Energy = -217.13868609 eV
P 2.773510176146032 6.400750061896218 3.0123467884155097
P 5.921405631678273 3.845569665705286 2.1809733090810326
P 8.639181384070302 5.711798367348135 1.7120915442923919
P 3.701382007943099 7.941291681685543 1.6320417327139218
P 6.4156925490069945 5.96948709440024 1.4655304708495624
P 2.454342122146599 4.306751919951162 3.009551783303891
P 8.200352001668634 3.528161127379918 2.1158418294018286
P 3.0054448226844492 9.671229779617223 2.7094735277231297
P 0.8470906679429175 7.009521821245753 3.7828877028205614
P 5.298518118549273 4.40986366569755 4.202688158598145
P 8.823262425858747 3.2227179941782707 4.234118004794884
P 4.350198800071602 7.1323995911927085 4.486810276417551
P 9.387555323847533 6.553493923392026 3.6247134255954125
P 3.4230022395865016 9.146857967441111 4.832184211986055
P 5.694189662815923 7.694168430964383 2.6556654875985597
P 0.878028538983658 4.84159055800103 4.506266576921968
P 1.4500233071141755 8.329245228430414 5.5250053605094145
P 7.270811830585011 4.3972469798334 5.250197723830077
P 4.306920621922902 2.819917362780102 5.411340323243854
P 10.472197009414478 4.784279653551548 4.469858455505222
P 7.920345435957632 6.528271370915617 5.323346551164979
P 5.7996432255931865 1.7093145987181422 6.472035302171794
P 4.516214096733915 6.630836819038212 6.653859311835513
P 1.5036700684036604 5.024476464404048 6.709057382180021
P 9.92383809429505 6.053412640980244 6.267537994685642
P 2.312458091568154 7.055888875125087 7.142365979530094
P 7.2480164886845975 3.1942233352508875 7.09767907916137
P 7.968343760808472 11.030501125848248 9.74003017473748
P 9.510123753641155 8.55699471642855 8.725822326054839
P 3.689245103032469 4.495722142433824 6.862424540169988
P 10.389027592678742 4.985464158422735 8.233216460864242
P 7.54004780165022 7.406675368497229 8.251694157260442
P 6.142896107915918 10.353771460464444 9.092143531918097
P 9.361318757054514 3.4993156678683923 9.42704654436693
P 9.031123486808807 9.379194519936865 10.753485452504318
P 6.198748501872595 4.710117556191943 8.380222991713785
P 10.369497401956638 6.629208970383928 9.719867266050908
P 4.178674271884455 4.064079453735045 8.890134070579258
P 6.001442977187198 8.225539575158233 9.66909818066994
P 8.21674040197286 6.39973996603319 10.098177570844395
P 7.381519781870821 8.029553163841264 11.432174469486231
P 7.4846084666532535 4.322008085893119 10.239646878709527
