42
Energy = -216.93499896 eV
P 2.85692693029937 2.112886265293054 9.051896729261427
P 7.310618986506678 4.261339285430301 1.673194303768002
P 6.3433453990193165 2.6462289067832314 0.27072076556291724
P 4.5369014193647645 6.795908749959077 0.46622369411316833
P 2.407182248704074 5.020431669658564 9.111600004488762
P 2.310779226604937 7.065752397912646 0.6097119749319376
P 1.1518337568620791 3.2382084833345854 0.12854899918336524
P 4.246920318425856 2.1007211884702777 1.1119352505647966
P 4.2753785603837535 4.546101262024103 0.46152334939184747
P 6.973537322630662 0.568017814156362 1.2599542222177047
P 0.258159325489885 6.567055116121557 3.197155731117192
P 4.8715114978347795 9.547610050899397 0.9125897403079646
P 2.612216505587764 0.9178322089970059 2.6972686694288757
P 5.7109905813962065 4.913588512517239 3.154109060330947
P 5.446398751394506 7.090012102773324 2.5155360496284356
P 1.2684292378879474 3.2958839604915675 2.4105596496002653
P 0.4044557245974405 1.1663476087795832 2.662108798678728
P 2.339381906441215 6.113979847984404 2.6059184894484986
P 3.526222423056789 7.747293634559166 3.535072195972348
P 6.397112089045644 1.6620707462265167 3.0489026746487355
P 3.2457615397834187 1.4623008505973032 4.7354003433601735
P 3.8109105103420893 8.642378135726272 2.6910217871422475
P 1.62993012720799 0.5765868351804069 5.979254843254859
P 8.108639268175605 3.357121004731136 5.227679343544574
P 0.36929518242409487 3.2496895210155783 5.244712735302278
P 8.303061027463768 2.7429023106999657 3.0574993939741764
P 9.405940652869239 1.1354401827982459 4.866930964020695
P 9.618104864460149 6.177655747792207 5.403317567407839
P 4.695449198058761 3.9206725893041456 5.751063824750893
P 9.03180416852644 4.60775003375818 2.483265018821377
P 6.547884882081128 0.46669774815266585 4.872425555043056
P 4.479664196002692 9.23515798166605 4.806785947737915
P 3.7267220651430577 6.512454944455477 5.3686139482541035
P 8.303061027463768 4.500945600040242 4.652534057867905
P 5.551711429084411 7.269158417303487 5.992395809213353
P 1.8505361153497082 2.081212918709504 7.726907649658975
P 7.306388740916473 5.402954550417973 4.782262226534888
P 0.10860123513536793 3.5130160208505115 7.419468567752127
P 1.4969229199582736 5.31110237353678 7.024720402043333
P 3.1716649551594776 3.862595277241294 7.4155921176742945
P 6.374229174449911 2.2817238004803815 6.21494260255311
P 6.232086408269478 5.285052470165494 6.725681295571955
