42
Energy = -218.24040727 eV
P 6.008886550140976 9.609922696889322 1.5248936184956392
P 3.4293358183455065 7.23287195642493 1.2534697223429143
P 4.9155515625256765 3.814776278015358 2.1163945892111244
P 5.025861554680275 5.653578036558726 0.7650988403429811
P 6.879579360393827 6.614418070823969 1.321671032435039
P 4.452752607252815 8.5901158498952 2.666019224050147
P 1.1546179391261964 4.727624526532514 2.9366501250325117
P 3.0568444276916096 10.071284607871835 3.5923638773744533
P 6.360800852234316 11.085390505924295 2.9854494965996525
P 8.175867138885648 3.3845237033686937 3.4981157527267643
P 3.025776826388548 3.489115637501345 3.467673371404014
P 8.450171150750293 1.5391010519832962 4.72059596895446
P 6.515332166035263 0.5996778429428371 5.212839667695426
P 6.898357598988037 6.358979058509274 3.4895913744095526
P 2.4366613270631357 6.491363608642658 3.0358620596942454
P 5.162200694728628 7.491489775649333 4.486294273360726
P 6.122395777427023 4.299666429862504 3.964362854573621
P 3.820302606658316 5.380392404085286 4.450309117401707
P 0.9050568074165258 7.765699327741894 3.9529265433098884
P 0.5606201415352183 5.76133636830616 4.997083627675656
P 9.300686442878451 4.715930658547179 4.856533973120071
P 2.095268313946869 9.039076073955997 5.301575999515119
P 4.89165663592065 10.905523229138726 4.6132751783041
P 7.332706393511261 11.236541780938074 6.985273041685339
P 9.417466932942276 2.21082978860948 6.697403757608795
P 8.853159788885215 6.737814621111938 4.230941711660194
P 3.8152488801217808 0.3100949769369319 6.882570066330637
P 5.088820353682148 2.040897420859016 6.127766636770066
P 5.706104384524122 5.762512284328493 7.2177526509758785
P 5.287107619536995 11.085390505924297 8.241759267909377
P 5.929376401082052 9.192549477223524 5.670503961195206
P 8.072087942554782 1.2386357393411374 8.152458476016243
P 2.471976092402521 5.46344910736251 6.176109715058931
P 2.8501815608640526 7.397369579569276 7.267010102309648
P 8.964944678649397 4.335914317693199 7.064952478200028
P 3.1129064306494794 0.9507392285002787 8.871963627812969
P 6.198035219029583 2.4066195816628464 8.003581367406875
P 5.832265639598223 7.484892824249405 8.62652793959269
P 4.572718241564349 8.85777835330485 7.383293270992309
P 4.1343155017255775 6.058478152061394 8.751429903090797
P 7.073818163886612 4.412533277666577 8.349581551177783
P 5.156579111181462 1.127627593252174 9.60447382358343
