42
Energy = -218.51255787 eV
P 3.0121026205424832 6.495356195854361 1.739724334114595
P 4.242219138199313 3.495352086622596 1.6055282688145205
P 9.377783474575951 8.127184123306481 3.638325977205245
P 5.80339543881791 2.538908174340262 2.908182446367448
P 9.339086539262745 6.1656807845668 0.9768530955093254
P 7.947522376886147 6.851747470321194 2.590504434552367
P 3.401877664600703 8.260409316343498 2.7310640574749767
P 2.7706676911171613 1.7862985317154394 4.298830616531506
P 4.684492060183325 0.7853694711997353 3.722787682888499
P 2.2488407942079562 3.0561168122284497 2.520311369574008
P 10.663956433262817 6.775849629449836 4.949581700251712
P 3.411619749269936 4.857608941683203 3.1685242881128337
P 2.967447810827033 8.31320186388087 4.852318466050412
P 9.61768925572168 4.305135858366939 1.8303098202893975
P 6.527099398400866 7.953863560204337 5.563583322486056
P 8.062183025776129 9.40897242456693 4.884983711085614
P 4.684569604649324 9.272347309623486 5.927865381113514
P 9.736486974097494 4.7366951966282445 5.054995234861473
P 8.230260509812847 4.790389529840338 3.4867264922778713
P 5.727144120069403 3.907637473534561 4.6574027272528395
P 5.12299347754611 1.1433991818852403 5.945815579718824
P 9.442773378522684 9.665671261186734 6.637000715755338
P 7.046181992344006 2.3080349344024915 5.59488404929122
P 8.014426176003388 9.801040856973568 8.245531546706518
P 0.837322477250711 7.5502478729604 7.038156630702342
P 3.904722579203088 3.0340597163275422 5.750845756696574
P 3.830956325955977 6.422919397368457 7.502640703785717
P 2.3895030682984335 6.386403364547567 5.845136235155136
P 10.449366332768706 7.630567952517458 7.018936618914415
P 5.834824412964385 5.510514823599038 7.671260235730422
P 9.09669234858468 4.601223177517764 7.211513143349762
P 4.188147867024493 8.564179752294688 8.004036277638273
P 7.53191214069931 2.9160603471848505 7.689021146533904
P 7.042168849935649 7.957229463804313 7.716441119894505
P 1.9972737003848273 9.033771399429192 8.236907985051197
P 2.6321459674109513 5.424991528466391 9.013034395896112
P 6.022700713145094 6.242832059304396 9.803480606368394
P 8.791348543749653 6.607100166756538 8.09974296773056
P 5.406223491413763 3.4244986865226212 8.36865940709605
P 4.075862983554331 5.607134966182621 10.725413869318045
P 1.2041890055171076 7.183297245115338 9.21923981125836
P 5.643348369981984 4.0622259739160365 10.515426653135613
