42
Energy = -218.87883074 eV
P 5.024706748593228 9.210347838003894 1.5260335229934618
P 6.170865297271376 6.696762506836472 11.421457086171495
P 5.0234569809269445 7.032769352373228 1.7469595163179374
P 3.3582981328589794 4.348262889409333 1.646251017703906
P 4.0611343395291915 3.9615437836667566 11.105241397522677
P 3.695198838861708 9.796149629540857 3.2915141354967417
P 1.3306539118152814 6.947317279698387 3.6694152594152665
P 6.2013689280453885 4.503966515589109 11.069538994521148
P 8.273653971843009 6.707421653981481 0.6376833422889051
P 7.071162396115069 9.948373754903944 2.0118170822161408
P 6.69976194873635 6.782139725044954 3.2650784208333583
P 8.085136336109128 5.2427042818681535 2.356433132364184
P 3.3321296615697884 7.7292007839400645 4.0770946264685435
P 8.251723089375108 8.118267838530851 2.449393552242982
P 7.109238916750463 10.652115196369438 4.222269941763603
P 5.063947579258418 3.2964997821424284 2.600807766954268
P 5.039492169025915 10.401605331920903 5.003929065538811
P 9.667389542142146 0.8591969860759255 6.858201342504357
P 3.864742623247352 2.2753175849504412 1.0140132316300978
P 0.9708257917310978 5.8460575201910485 5.386335251577183
P 10.110317228656465 2.751296695294304 7.72475044899143
P 6.922881921120511 3.5672560927117214 1.4108387379591774
P 3.165044168893232 8.285076740516848 6.201298482536935
P 8.27202321178058 9.083781702950011 5.22353895961148
P 4.393356459426792 11.52286379553503 8.970200023718856
P 7.625495840474868 0.42087534464787263 7.059153685159386
P 2.8232383204959213 6.141486458870113 6.613403600837165
P 3.7150085435808498 2.991002309362575 6.749856251189374
P 5.370749821520856 8.679551920341726 6.421452739608414
P 4.746657588235352 4.97284673853866 6.346828398510515
P 1.8502510482202361 3.4659487237181743 7.955139827677669
P 6.9821867285742565 7.413648887437573 5.5348333817146855
P 4.872448412982538 2.22344942133262 8.478811490913507
P 8.398887283952083 3.7080499284675805 8.468453169530356
P 2.37971762598316 0.4202727307509225 9.789902969903247
P 2.1331177305764966 5.550787492038172 8.631269598947897
P 5.601028941805321 5.826711572650942 8.115335409979922
P 7.022303897353832 2.201461027234695 7.9734247271359715
P 4.142054310391417 5.472651241615969 9.715733202133121
P 2.2596039912404264 2.6926393275240645 10.020081840586522
P 4.362723476022124 3.3185061837669756 10.326908005234808
P 4.07643528264537 8.353324589519296E-4 11.06953899452115
