42
Energy = -216.50117706 eV
P 6.007756888087969 6.7503175274960725 1.4147596563052676
P 7.0112094814970165 8.807568992628372 1.6554521539675513
P 6.776817209369954 5.08200207829199 2.788391206152697
P 9.15703390503259 8.368450435725979 2.199349292025359
P 6.42622555187488 8.919097803054 3.7613135546227827
P 4.334024022742613 6.885972057793322 2.9874463322829854
P 9.013570761141443 5.06506534330192 3.402586002274329
P 4.243004184304214 9.159145090612384 3.476032338112524
P 7.57575942225239 10.712018337235131 4.431478916140308
P 8.739704776363983 7.209598484535127 4.050545360880841
P 9.627589745531381 10.047731276341604 3.679346951276032
P 5.962642492190842 6.291578942812005 4.468241295876146
P 8.370711574109459 4.913029263257797 5.5131004941973645
P 4.388706124097051 10.004477451872866 5.655102372844972
P 6.013497100996261 8.64935843447402 6.406150482830376
P 4.62792249167017 2.599770471558465 5.317830095554507
P 3.1293746005273273 2.405312961226278 6.965318619240671
P 10.406365156843382 8.350551269146917 4.980972772294264
P 5.088886504901912 4.7071768950999395 5.817792786536128
P 6.352623337754193 1.5117742832643382 6.304537711161172
P 3.1179406221462393 5.286150581484648 8.694045041040571
P 7.652300006950833 10.19079573783632 6.659210420416303
P 3.126720425462374 5.622867475019208 6.433108037280403
P 10.1351761700079 5.3362020520360876 6.7102110643577975
P 8.086205473185368 2.960296870139808 6.603822631703634
P 6.385500151944307 1.0355598535235269 8.639479292256167
P 9.524248247977999 8.955035740192516 6.9504461712151455
P 6.556181376972179 4.112234028733537 7.7620722992829725
P 1.7479618328548747 3.9496611574375144 6.34171601632199
P 6.917563295275811 6.308508052193474 8.203449692705812
P 7.219943846544816 2.7965080826079176 9.6633210945916
P 4.772148482169667 8.689946631632901 8.277260891026016
P 3.0639908862920517 9.526218715891169 7.3375235825575915
P 4.420277818950977 3.535132033375964 8.454294113279245
P 9.098415685544673 6.905641147645929 7.790083518207898
P 4.110785274972864 7.106919361696654 9.683900269644106
P 5.120740997501721 2.2063718798367455 10.070376538117314
P 8.165297658340663 9.53276528297416 9.743575224169643
P 6.054372802092488 9.36482869611564 10.16016178166408
P 9.14807892311147 7.593324218893976 9.996895442308865
P 7.4804126265245685 6.128834993482586 10.352034903087027
P 5.804302677382176 7.378190621016255 11.159254193684365
