42
Energy = -216.94643074 eV
P 4.113616667128667 5.756508304580831 2.7675103979755735
P 7.415370552205949 5.337349094118871 2.004500465376129
P 5.964762560269041 4.852788162213011 3.623350782210153
P 5.46308135494873 2.700191125480733 3.7794272982341552
P 6.0403351171830515 8.799272613194095 3.140433152150469
P 7.838913589467573 7.557533916064429 2.3957612531209596
P 4.001812963201204 7.830851290961566 3.5130263906898787
P 2.3380783528072517 4.841671146533757 3.6690577766583363
P 3.2753136939510714 2.673572084504235 4.089509935760941
P 9.239622051346611 4.4900703380513445 2.775491930277358
P 6.860049234189451 4.971813078107447 5.660076701157566
P 1.8787123635859724 8.119346142134651 5.634132630126632
P 8.60940993114565 7.524095187151952 4.457562577896175
P 6.5060665315285995 2.7194744832803717 5.808356512820345
P 6.385409467178988 8.295539723784353 5.250790032117722
P 4.176245824531019 4.919534356740463 6.914728535649522
P 1.3474920885168344 5.947194903921002 5.366699448373178
P 8.903610234826157 5.290994462784118 4.721491995949638
P 11.931709531162658 6.572780500916459 5.263564505861698
P 10.713786605954267 8.243258797197262 4.3567259650381285
P 4.172115680167996 7.7133889547927685 5.731678434898675
P 10.65197704541301 4.851041640466295 5.989111571051802
P 1.4699127433352865 8.299830068346322 7.7496298625692965
P 7.229358830576547 10.02825617203843 6.361427326389853
P 5.04297547212194 5.9013135636220815 8.700467680800571
P 3.3233856603426575 1.7417643541985302 6.026453735969173
P 8.993763765331714 8.969952049413493 7.322962174303327
P 4.809286024404743 2.745429230676869 7.255904621281879
P 6.568254055654861 7.475714334289032 8.342537021747184
P 1.9490876345387163 4.868507013751294 7.1721587021124105
P 12.046981580430845 7.869460407042006 7.123755142315439
P 10.869136144493936 9.596434487558632 6.198350316027298
P 7.387624514062398 6.834268227117068 10.258745328784807
P 1.4532920852984301 6.430186997298395 8.652069725434279
P 6.271002199183808 9.75993764534926 8.346486169260006
P 10.034212427906095 5.207730785016821 8.073632604465688
P 8.304016380790921 9.983578569116633 9.13494773561046
P 6.715706071540159 4.771147298740242 9.57309594167608
P 10.31103698069195 7.264615721976477 8.306190265250638
P 3.9118375492166098 6.136891069369191 10.693358695436897
P 5.6136328823348025 6.9406484545069045 11.80959938262972
P 5.438897464949551 4.736955151507857 11.556131182455841
