42
Energy = -217.48702153 eV
P 3.6116540916978996 5.651966956471428 1.7564328511986018
P 5.684223677554086 6.25998626902053 1.2145799032576896
P 5.773415613660428 8.443495736918685 1.5454823103706958
P 7.125295810096723 5.216558780286572 2.634336661676513
P 3.76594464921484 8.984010952663892 0.765995661322787
P 6.962769564639527 0.5202631146356765 2.8196177683419252
P 2.4557842976791875 7.467204570770338 1.2200903434222616
P 4.41376244431049 2.832423031187367 3.537603687779646
P 4.93847897789561 0.7121345804994784 3.8834329553298863
P 5.250741062061455 9.14327704009669 3.59492901883068
P 3.8293177622063563 7.815020856007407 4.7574041978923844
P 8.266696571266749 7.031495545693656 3.223386514746157
P 7.397486459627751 8.967976768895603 4.0634978313925485
P 2.080720857784588 9.075817412766582 4.246499332274893
P 6.3390885289916294 3.79359659334701 4.334075552186658
P 1.3763107262485978 5.50472615252819 4.160882472207757
P 8.067330819104944 2.267666074857199 3.640974763272283
P 3.4033768414547727 2.969446654358501 5.539811340057175
P 3.6069932005570213 5.68420333538252 3.96507201054568
P 5.490498457921822 3.3984522337045293 6.770678931355148
P 9.543975449009398 6.2851356743586155 4.864346992868125
P 7.902961546672586 9.320655369556457 6.213691848318478
P 1.230427652204691 3.37405023030256 4.80364450329541
P 5.7132108065508085 1.0243997953892983 5.90557571382669
P 3.626531742974171 1.0051177834146399 6.693716032063961
P 6.227990718033625 6.528876271872148 6.012318024572283
P 4.976713712421854 5.4729928063795175 7.448637909434525
P 9.78649120244371 8.055463780902446 6.297445408388408
P 0.5287178207899865 8.409436381202406 5.451134356685476
P 0.0674850879673157 3.4890918188475895 6.666300508717968
P 6.333778794063169 8.242607990093077 7.362693501471557
P 1.4042244811088342 6.535757345920596 6.140870877800311
P 8.112322173130472 5.327358766207594 6.311913401338892
P 8.144383585382378 0.3780101356835103 4.653533107017989
P 4.178858680539467 2.5219669768652673 8.370127605966333
P 9.78649120244371 5.437631141934546 7.318644142065656
P 7.569695647050467 7.386219403280183 9.012361253869386
P 9.239791659586606 6.480559376404607 7.842772024419266
P 7.470794864483452 2.7968558995736297 7.767306429717496
P 6.047514155041703 5.722767476850524 9.39434237186377
P 6.128207781241176 1.9248967016602854 9.41788837790075
P 7.276753753096143 3.8348313946025305 9.67035668232884
