42
Energy = -216.20098574 eV
P 6.388899409036368 5.448767157193339 1.7744054671956988
P 3.494299618455657 7.447759796073022 2.1844828116399646
P 5.388805878707977 6.671398375865502 3.2337509247986067
P 4.234372975525503 9.621606048364336 2.1498238838795847
P 9.235751844488657 7.845756380982544 2.6761457408683107
P 7.8104826548729225 4.203830698310359 2.8281140741359367
P 8.042178892628089 9.62418033758923 3.037530153546225
P 6.7704429307071985 2.5618910919848568 3.8624087363350914
P 2.0958358398477923 8.316818457475923 3.759729339782926
P 4.156360460605958 5.004265189670222 5.2648045847138905
P 5.979009071293573 8.825969980800734 3.3326728167106965
P 3.298340540509627 10.165269897152342 4.148166030592573
P 9.479417329892165 4.908486232897366 4.344194505001522
P 4.668575881219467 2.9732045677628327 4.461006407163203
P 5.9264722386209385 5.376612755171271 6.550163300786853
P 1.9635614177657503 6.765338993950931 5.311443060586534
P 8.90052771892021 7.03215917804449 4.6067816616073385
P 5.08030769713463 9.233542662631463 5.307157032506082
P 8.34186457329544 10.385936028439199 5.126756360888599
P 8.159410951253546 2.0778900942633802 5.5405486534011645
P 6.7973608263603325 7.095375872356271 5.456997073830305
P 9.543539522303163 8.525034138000201 6.13328824453061
P 4.791281080011114 1.5316525220483732 6.17914021059154
P 9.250357682245014 3.8834694555132216 6.320982112793251
P 6.778879396293591 1.5195710891852667 7.207750992869203
P 2.612646166598446 7.412524884968354 7.2166293101153585
P 4.921380579744955 6.843473828651708 7.863696571856993
P 6.424793803195179 10.914340891361633 5.849489411145645
P 2.596649559239966 4.023298497563966 6.5711973491579325
P 6.374078011588218 8.425914024937052 8.572660168600384
P 3.5064679749900454 2.4333071487576556 7.797782746367994
P 7.927778924215349 4.896014505369363 7.8351857927457775
P 8.065012995438117 7.49866279178136 7.425867855127973
P 2.123720007901668 5.429389337580301 8.22247650126289
P 6.972229427400193 3.120139976889103 8.809521016548263
P 4.794208138200298 3.422012197779024 9.377198636432928
P 7.414430934836886 7.78512382858353 10.518412560143389
P 4.0665610406065245 5.543299286840692 9.484384256105514
P 9.304740599842086 7.351033894381197 9.468517993765067
P 9.480228154131739 5.1606052007578525 9.530014084755
P 6.554548367495731 5.941560629027246 11.317177174710496
P 7.995185167540836 4.464508358004819 11.052540675363582
