43
Energy = -220.7149937 eV
P 6.201859312117096 5.153247425277025 9.122166809823025
P 3.3724888064840854 3.30192347132105 0.2090018869423979
P 6.900935706624065 3.694054550403346 0.6773658945622368
P 6.771499856374254 7.076311190218952 0.20230055164568253
P 5.277238929603569 2.1936339063926655 0.80444213634962
P 3.9586775449090865 5.239612544137497 9.228981682964628
P 8.526337490736438 6.328696088684395 1.4117067666091077
P 7.893369463876273 1.1981022150236742 3.141317725584506
P 1.5827397735248707 6.005717587330375 1.8359624056123798
P 1.546951663898538 2.710211183100399 2.884610367893819
P 3.6397333181916243 5.074327673223641 1.5156889294701397
P 5.324318036965554 2.2118971921167536 3.089692363251508
P 5.759803400243711 6.902045760540166 2.213669284413597
P 7.743127265842568 7.876609077242078 2.8687858384637286
P 7.09382979047457 4.963765412500336 2.5776649985962807
P 4.119172844649019 6.698489102975723 4.7434345712900825
P 3.444440021878189 1.0191969058780501 3.420250574452167
P 0.12408978088091448 4.507470386308258 2.715333746889478
P 8.659202649047977 3.195589491068325 3.4033259975039694
P 8.103514491465395 1.018377351742176 5.342589424657892
P 3.4059761187062367 6.169969531179966 6.838682889400495
P 1.9620844984968107 6.651600615241738 3.9410627994826952
P 2.7826985752428737 8.462913474264923 4.605800254391103
P 9.662435512823059 2.4038860751469904 5.995636916777666
P 2.534909139455367 0.43062728219053614 5.43496385515429
P 3.4012055723220893 3.229105032513561 4.018052810629242
P 8.30843481413122 3.2454208699120124 5.625811851271965
P 8.10347697591377 6.444286903312537 4.540844143973853
P 0.6715105525441929 1.1630655503701353 4.374435616437168
P 6.309560951643394 0.2893617168539137 6.317311985893431
P 6.6265055143317895 7.086522012307774 5.887725443360976
P 6.109062099837765 3.7151251682833912 5.906706616040759
P 0.0012753878778134005 5.821763137602351 4.582158192932948
P 1.628639965862767 7.1662512443218285 7.437762697972602
P 0.9846184979626185 4.293991690666252 5.898986258179139
P 0.31699554973572086 4.271834624420787 8.000142225107451
P 3.042658891974504 2.3743272331075977 6.377405315203926
P 6.759210446064886 5.389465257095674 7.327316908188811
P 5.412390309694455 1.984760664465367 7.213712478797381
P 1.7415277490169006 5.574822167364656 9.122166809823025
P 1.0788525624369538 2.147468183434304 7.756220911546903
P 4.9917620961564415 6.2911311706071915 8.399762753098784
P 3.5651168772811412 4.534440863229147 8.366096940584015
