43
Energy = -220.92783493 eV
P 7.594579417082628 4.705388965962646 2.015126752377899
P 2.903334815937511 6.091019264969396 0.9540722618290057
P 5.562784478020938 3.8673245783229184 2.56418744703349
P 2.2533846383300484 8.08364673974095 1.282512038664794
P 6.943442034823912 6.7822576107960115 2.892798541940606
P 5.369810217534639 8.420744057334892 3.2532977133543795
P 9.192237492741455 5.075053828302133 3.576708978108315
P 2.1139861076575293 5.172521586994336 2.7081829105692443
P 8.430126871951217 8.068591491500595 1.9885158929306648
P 5.391326567639518 1.87961210036437 3.6250831919907838
P 3.102459482737087 1.6188132487234683 3.2631644808426308
P 1.4673347496142946 3.002178753883224 2.5580359205191687
P 10.073527163249642 6.815710811667206 2.4503638327698387
P 2.0545538710372444 6.209310787020894 5.8379306836246325
P 5.919812049189715 2.8494940572456158 5.599131995882497
P 5.28009648801833 5.0299773712399 4.425515594124142
P 1.0862160373355731 8.42441124472973 2.9604437277995657
P 0.7587636850178344 6.488752607943261 3.914105282417154
P 7.781143135041048 6.2692255154844565 4.913023456383588
P 7.142276260660707 9.693989898018822 3.6880118905621084
P 3.149578180736459 4.6964018456793 4.652337219785813
P 4.254636363692793 3.645300466700794 6.824740057561079
P 9.334683576878792 7.843300502680109 5.381728724101975
P 10.695657524332699 6.64366926409979 6.619871118898848
P 5.466782613469866 7.746872905320097 5.372100333321296
P 6.4989815139832325 9.69331010218822 5.84542775502664
P 5.90625860325355 5.150440181485808 7.215746224214973
P 8.34930554011216 9.085834210562993 6.992092623109714
P 3.4515268798904284 7.883948718799175 6.398881916954531
P 1.943054079304328 2.7405694003101115 4.747075601210883
P 4.453880152871787 2.1979082522058158 8.573633104971432
P 6.431625812114979 1.7040776139416134 7.764430568778835
P 3.7145471609613256 7.588266939485064 8.54225458852193
P 9.100060255079475 5.9567619594825105 7.835894323163079
P 7.543953295201869 3.625845822544592 7.818920079541424
P 7.451987047967445 7.403190795638253 8.09043149948729
P 4.868643500672916 5.835006956303137 9.025497335543498
P 4.339338198403015 3.8741096001496107 10.116065417799698
P 9.275172233650807 5.507359507278127 10.039690279690797
P 7.9051519836349184 7.273435697039761 10.309341503521905
P 8.02101801133685 3.6079900103594738 9.963652574459994
P 5.918832310224023 6.358278793177189 10.904754463937689
P 6.273020207851636 4.158986543569184 11.264110701918055
