43
Energy = -223.08661132 eV
P 3.482160154342206 6.440955656950557 1.5096502255266055
P 5.38537584963141 3.1276976632504456 1.3684589906914764
P 3.430866906903221 4.245601674069994 1.5920500408914917
P 6.904782677280011 5.006971303044456 1.2190773712291885
P 10.112947991242262 10.77036152644957 3.488443122302131
P 2.792125607414227 3.654238530337537 3.6672673442759995
P 8.505809917827682 5.805105423519674 2.601768001646672
P 10.312463821722188 8.542146410698773 3.292968809887687
P 4.739158364153326 7.414888399396866 2.943322776593182
P 8.28566492248289 9.473327041152729 3.477577143150872
P 9.311060676382024 4.664410549268185 4.449082062927409
P 4.60693345957603 2.9905074917294385 4.712307764234033
P 5.65527875110474 1.9491780806544314 3.092329235447735
P 10.544727259761808 11.32117224603289 5.55608882666333
P 6.405435597871213 5.959736016531643 3.0511500509145266
P 7.670426589959584 3.686492231392866 5.549200802079222
P 2.316300452439677 5.700354039399885 4.43905380281508
P 7.840865777209984 9.506890014150837 5.644623221629961
P 10.890683514026554 8.02261002788765 5.364498098582586
P 4.246179178172897 6.593862359330348 5.064654028248504
P 5.7517809170566805 4.896057654903682 4.956494143016717
P 9.843221013764385 9.587077754207423 6.588800642900056
P 1.451655560715983 5.102692097565482 6.429972940402427
P 7.193227057228367 7.418317230500489 5.96204156464505
P 9.29642409360382 6.542964150646673 5.703889735840144
P 5.47442858630123 8.23862615123482 7.498664426113196
P 2.6794983572731805 3.5162943103318365 7.315605630554184
P 4.107484690855619 6.637636159741466 8.126297820193434
P 7.110281327355331 5.536292844988891 8.593991894966583
P 4.689804267273103 4.463943172166336 7.797823248836396
P 8.434953551383769 3.912593335524126 7.671789204622467
P 8.52036481201162 8.336661531357112 9.890288005158176
P 1.9552999114037046 6.8971449920169805 7.604357047587278
P 10.070100579285462 5.469280896728651 7.4836744672247395
P 6.393094980829793 8.900251991761914 9.421057621359465
P 4.194182993878356 3.573865115577121 9.822420482257957
P 1.9938263023304348 3.775921102395043 9.46016011809588
P 9.057966708342738 6.229788645131361 9.365547981545385
P 1.5853054679601295 6.021127460182137 9.678805225135171
P 6.743500275516686 5.306760497880222 10.794885271053154
P 3.57243074292416 6.931078722221156 10.269843241497103
P 6.836877405014336 7.561591203599568 11.160718208336375
P 4.537394814054603 5.199878179956351 11.251651244787029
