43
Energy = -221.81232739 eV
P 4.557700848028394 4.677130275887835 3.718958110203669
P 6.751285992039657 9.03660114114172 1.7314712084396704
P 8.843621399371075 8.225168868201857 2.2944816284257206
P 4.963117503345245 7.62507397405649 1.8625097995660573
P 6.446079717087118 10.628121663793907 3.180001929976581
P 7.627126645705931 6.556911530342133 2.861990038101572
P 4.455831917663229 6.874196258216685 3.924783574593499
P 10.021741003642498 8.513107511748332 4.345250391596208
P 8.673568170612514 9.624111797638433 5.8079551871638255
P 9.066936376503453 5.112451120043767 3.588113423258587
P 4.844992361905609 4.181903397859104 5.840406370741398
P 6.44594804237683 7.341710734451704 4.991132333882444
P 5.476961599024324 1.9970590237560508 5.740533147271882
P 3.413135940549082 9.10261616353365 2.3952485773052574
P 10.505814730059182 6.345878394533536 4.841833705018099
P 6.567256274318494 9.598480237666466 5.117949864946231
P 1.401942571760051 5.111893996489644 5.990975671569399
P 7.452249785193249 2.554706401058545 4.86476588332038
P 7.616484576987303 4.72774285522742 5.267779936384266
P 4.239601221005895 10.807933037530633 3.2114808957545384
P 1.5121269871829666 7.336207333247953 5.9230970949947785
P 3.3843078319721243 7.834982872850171 7.157105212030782
P 3.658787013188625 9.947347612656053 7.493452584973009
P 5.813774055518446 1.9984325772364264 7.960956393077472
P 8.28298345551757 7.680853335092579 6.757657041942995
P 2.9916558428012237 4.002092224053901 7.119015728684242
P 6.518512328457802 8.011618835777199 8.110761951141905
P 8.929911583596105 1.5366174707083418 6.209817000941181
P 5.289817096570861 6.728626743574982 6.8621402199877535
P 0.31404825626691435 6.305206736023622 7.420679580919828
P 9.5020296945012 5.137298384861442 6.504361937472469
P 7.832741469802443 1.0281035692775393 8.155934254283554
P 6.840029148373253 3.999654483529185 8.22782254774891
P 5.095038650151807 9.714636760729343 9.027419611172522
P 2.7920686571628517 7.055793045839282 9.11724327097643
P 10.46281136340247 3.1088059898411817 6.667026834128183
P 3.3692660699492682 4.900331384960793 9.147321344929477
P 8.24025168036356 2.7667774813313364 9.491228098954926
P 5.551005453389834 4.84158182128623 9.848747093837572
P 4.4347868157725125 7.9812113708785555 10.371544255442904
P 9.784539178743914 5.660909853153704 8.537141993270653
P 6.373618981182963 6.898786281604568 10.04310540361486
P 10.263674029014476 3.4905077683691736 8.877981188015193
