43
Energy = -219.71659987 eV
P 2.9337150496413225 4.134648389237143 11.32970928354644
P 4.2673788079693225 5.234805448123788 1.3539867972028234
P 6.461498127226721 7.582348953763225 2.439409668632292
P 1.4619176603486794 3.215807113366663 1.2703929073643756
P 5.090438121219032 3.4511800461044633 0.3172306618520586
P 4.7324704763137895 7.313443690529796 1.0905130493314144
P 7.417965111826352 5.653097662080537 1.8048434697475988
P 1.854756222475017 5.776138634263454 3.3546146685665894
P 5.2940940393371525 7.000583935464762 4.286259211567644
P 5.117163765639521 1.922455227140591 1.8875549633953508
P 2.5148152505653196 2.8929382364005214 3.159037569265813
P 11.941394296874021 6.848108000964289 3.9394748670230246
P 9.227921916924208 4.739538932730984 2.760433965083287
P 3.71137798488846 8.59331258636472 4.133595201459767
P 1.7018037665681018 7.638791328112121 4.572230272076832
P 10.40872520268939 5.418442984575483 4.508710278494582
P 3.8577397089865646 4.714372045205858 3.439524882319672
P 4.271102589368636 9.389684994918994 6.171123038247562
P 7.219858896129967 4.404075685827028 3.624197332058923
P 6.553389713942831 2.3175787474531404 3.3333911471224216
P 6.146598827760966 8.1562273746593 6.050498359517386
P 6.422890545671486 6.7350682093581 7.7544131417109305
P 1.0594405139235858 4.045266700929467 4.506237456548771
P 11.738470898792722 7.7372027581181255 5.821895123463029
P 3.8258222390736822 5.272126818480107 6.293061746183656
P 1.2216903250317586 7.240386760309892 6.696533456870204
P 2.540603771635065 8.89521500132943 7.480110390020685
P 9.71539531955226 6.906945670617258 5.981902731920076
P 5.639711787555348 4.5931105518826385 7.379509279047617
P 6.28516638946297 2.5817937984253323 10.041960784453183
P 9.160332891548558 5.536980641407711 7.690726121629738
P 2.25902840148774 3.7119543027041697 6.406639594359704
P 2.188293323874987 5.5206547257860645 7.727672165548386
P 7.450124211843174 4.370190596621486 9.584538787030098
P 3.2725710614688626 8.473770775181737 9.493410435836553
P 5.183838851614906 7.55138406989247 9.411708448997572
P 4.7111284305534715 3.216593842443738 8.85956003073472
P 10.851835712142249 4.338795947849845 8.604621142049671
P 10.203066419017485 6.255254799017066 9.51201825239964
P 6.255778363664355 5.816973730906815 10.786917134142959
P 9.553468794570524 4.345602938546541 10.435816081799915
P 6.449428889112996 8.909997119074534 10.552700711799586
P 7.638777508471889 7.3601404105954 11.32970928354644
