43
Energy = -222.1451491 eV
P 6.508924201408363 3.195538082696778 0.6748464329463862
P 8.129695721134196 4.651402963954544 1.0597371305130316
P 2.122047581772639 6.342478580015858 0.251340345693323
P 7.2073678800944805 6.484045727748963 0.24876887202334416
P 6.88047811762535 8.046028608804491 1.71571408130337
P 4.597744948953453 6.139024626635446 0.011201298754710846
P 4.449426078859774 4.062373231735981 0.7309290454603206
P 2.4852323531700673 8.418657208726616 1.0242733806971582
P 4.494681900021493 7.5605372478578845 1.6949180170672389
P 8.616188714023082 4.3820417757676395 3.248075975056015
P 6.70499542862336 1.635508667973433 2.150469121690202
P 1.4789707446149643 5.184905609501822 2.0512059617433396
P 3.5132314633225836 4.564607872359806 2.6905200000275937
P 7.034220692613628 2.9276760906635637 3.818350885343623
P 6.629444741474403 7.409243878705516 3.7943961163217903
P 1.8648059812347244 6.8568518918216075 3.5566250775969395
P 3.4305719008772724 2.7529925949888536 3.9801987912002517
P 8.346860325732703 6.257360070596579 4.427452260781671
P 0.09029466297703499 4.2936259245383415 5.243742585355818
P 1.328618894116814 8.751688521931554 2.8244585451573894
P 7.885214418910533 1.533759768966862 5.33931746042264
P 1.7523529228892751 2.936163867422758 5.560969131381857
P 7.305762166441569 5.173591553765309 6.18201951599031
P 4.202708158540321 6.533178143994267 3.6629578339031146
P 0.7843922248364391 6.335257618148517 5.433403976242028
P 5.17492552242409 3.5417639800920573 5.1405221316582885
P 5.761146435779334 1.6149115024191756 6.18047460064458
P 8.80515792421429 2.5116439895786606 7.212414671287013
P 9.083599491459474 4.7729628765545336 7.496920265049185
P 5.291044051864227 8.785442263393868 9.388036983810931
P 7.068474727128275 7.8161488878733305 8.596082385460633
P 6.6886895920401885 2.9788358949926317 7.6908945867098355
P 4.27574303978263 6.031001467731333 7.832167784962311
P 2.0322246867595566 6.134600961622971 7.299687183356581
P 1.9922510163049811 3.9160212099999394 7.5171716590671736
P 4.273850026420064 3.8726638953639885 8.00923612685771
P 4.089543311486264 7.048756301505425 9.829349969081504
P 8.462550908436716 4.445365485449306 9.662558535760825
P 7.4345833762394085 6.36336843847645 10.241090732098511
P 6.8219587734297535 2.7892230516929133 9.891342866225434
P 6.073592035849756 6.956286506803371 6.836866525649856
P 4.813554983223883 3.7073680252888472 10.218059652061017
P 5.4313186794099 5.703535938360002 10.999672304105832
