43
Energy = -221.36469435 eV
P 5.730925730913581 6.522990582473981 1.1566878074624873
P 4.740900207856671 7.9372606613692565 2.566015303786004
P 6.380703601068691 9.431975424400262 2.7640894049624904
P 7.879025675855155 6.568691020194534 1.4010791772225675
P 8.27237387760964 8.48059452082699 2.0203410455342703
P 4.914450333753755 4.447932656385791 1.4957406661174066
P 1.8558591890498584 5.119953857721456 3.3018984540454666
P 2.8813870554051726 3.3896926564173073 4.3134348536043285
P 11.657781912077278 6.348146598166052 4.6941200426892244
P 6.050735147196496 2.882882336588992 2.6663754965311024
P 6.105729979890863 7.8745303649679865 4.342330567859183
P 4.844070328065579 4.368984407685464 3.736328248536789
P 4.958301870424248 8.924235624806574 5.9595540800993785
P 1.2061859529060546 6.510657109131552 4.656216550404918
P 8.891015843446487 8.178482382289644 5.3647229798576195
P 8.407256632417111 4.877060241297344 4.7734346046711105
P 10.554860864771808 4.651560136110773 5.499042260251928
P 11.050722994425104 8.060579140617921 5.873995957228525
P 5.712381409021815 3.736486212512626 6.277661857389781
P 8.094056740696283 3.0462263168392196 3.5360882924820887
P 4.40711543539471 6.812504702706403 6.4746224614361765
P 8.112148758037124 6.616350483560036 6.948985872896651
P 3.187956918166402 4.395650529583539 6.294675586040668
P 9.816382333962899 5.319562522289461 7.529360187621271
P 1.325800950820342 5.5439645839657645 6.620215373810535
P 10.891970073572937 7.222868203810979 7.954362743892139
P 7.7677815782706805 3.000442691780589 5.790987007055944
P 5.260560804113644 2.4993300509806695 8.075987844758808
P 8.633371338545174 9.693737616690496 6.978797992285817
P 4.803740221432084 5.95330411430286 9.74683520709672
P 6.515630449280383 10.36641177175391 6.768900561440312
P 3.1092749630270022 3.2533585964814273 8.216387435567112
P 8.721815326174864 8.040580877211099 8.540116047607048
P 2.6118788701373115 6.960122371541983 7.817722061435563
P 6.137350202584409 4.697062110183151 10.959454389020424
P 6.042917471787975 5.63371642724984 7.738578887693884
P 6.798780683553107 3.8227511791760893 9.011540273931608
P 6.045405652553296 10.777616013329173 8.85486780398321
P 2.7678907343766963 5.267480891783273 9.33473161005372
P 4.494955655951419 7.887750581192883 10.674766612868488
P 6.1926970645943875 8.684620279346289 9.276607264646701
P 7.674631369867294 6.243128289544925 10.723681556618821
P 6.608860636392753 8.066405700178958 11.386300406950651
