43
Energy = -222.80305759 eV
P 4.478166045076001 6.046483244365994 1.7957619708288948
P 6.1645921860992905 5.167223946974491 3.010178166606232
P 5.338504279778086 3.2261375337397276 3.487765292611928
P 8.68844248674804 7.936866388219722 2.453154682971172
P 2.7887508397177267 5.706650404255433 3.201275197928054
P 6.677494625919066 10.10621310238854 4.41674151386709
P 3.2206465285600934 3.587726866923367 3.6786703902263453
P 4.837592417224957 8.285153799112514 2.0996832572452626
P 9.082422052515598 4.396015381627441 3.0747278515879626
P 9.850903273606537 6.398030319021423 3.5260997771004803
P 3.4792078157417827 8.74782192515908 3.852518278464885
P 9.387780804077419 3.2776965900499233 4.802327070974371
P 6.061745386188934 6.438270177832988 4.850845815140006
P 6.617864182257327 8.117791245946538 3.4480640783377208
P 6.363344406754852 3.0717280714521316 6.421246538711838
P 4.6400423752904025 9.972045369007045 5.43221199572471
P 8.54411401015961 9.074748748427599 5.289315561381448
P 1.845267165259327 3.6935963720596394 5.525651616415604
P 4.823062187571434 1.3753652164804588 6.938622112038417
P 9.64057308394082 9.612308537279894 3.5447677107188875
P 3.7733289238755496 6.807399933127282 4.843688667413449
P 4.9614296225784384 4.681660169634273 6.862834235581623
P 9.465219164272781 9.74229588140386 7.166174302126955
P 9.014088788712273 6.680000907023772 5.651106010919478
P 2.639495989352931 2.1715419078152993 6.981674430867019
P 10.369211386553845 7.6377936196705125 7.206279230908303
P 10.098942082056395 4.710651918878431 6.264890587845746
P 5.214530544262948 8.465922268975284 7.037893149285539
P 2.1532629332390556 7.162479276843126 6.3918380271896185
P 1.3726879893128043 5.2868564540415806 7.223764399514511
P 3.7174571075189773 3.469042164552353 8.325308563537352
P 4.849516653797468 1.8222823305024314 9.12020045175481
P 5.989785329131461 9.70307007252905 8.66500980786548
P 5.862457556625942 5.902100686361978 8.45150095651611
P 8.342778468263434 6.976241798087119 8.04344262028228
P 8.030320556962074 9.05272791350297 8.818626921407304
P 3.2413731942528226 8.154798407314955 8.06409093358229
P 9.468441521057324 3.7601071821962364 8.148045950732538
P 7.354128175477726 2.782111655631059 8.448528785938587
P 2.4054766708605486 5.009896467109291 9.219882083329322
P 6.867050337748028 4.4357918193862185 9.841437943971549
P 8.94861752421457 5.444561211982184 9.55249921921209
P 4.003236913702364 6.576146299422281 9.495007427652896
