43
Energy = -222.37136122 eV
P 6.944186301045094 5.477724793875302 2.1544572920553504
P 8.607542879503912 4.193821311682269 2.9153021445174154
P 7.92356784462645 7.513778902809234 2.0444296528606025
P 3.6148817430018187 6.017964389312444 3.984597106026125
P 5.8470997675928436 6.214663527237344 3.9679507228177373
P 7.809066991300501 3.0947574329054843 4.673528870498377
P 5.0521154697722865 10.533398334856273 4.799657276029367
P 3.3017955960852436 9.173771923030438 4.531666247257393
P 10.383926857460665 5.62584024934813 3.379237774192653
P 6.167134794871138 8.326799504750378 3.2662751855306302
P 8.346533252504297 7.2734809308311945 5.617328950532732
P 3.872259244224332 3.8081783877053033 4.417131582947078
P 5.812660446140444 3.8663471153917963 5.497145447404161
P 9.391265275616657 7.540829636269177 3.695057663751439
P 2.407882571680945 10.037319232248391 6.421885705817843
P 8.169378194749658 2.2240639416232675 8.06701384836524
P 8.413442213258419 3.964706241227169 6.617371414415972
P 3.9680734174122003 7.3561968761981 5.79052781330298
P 11.521891434693755 5.550127628784609 5.411418919732476
P 4.3585815002179045 11.209669265801388 6.800322063669793
P 7.645824539829458 10.666750624599695 6.644294786324943
P 6.9689630784458085 5.3786582296912995 7.637445948610719
P 6.014587139662311 10.578595646336808 8.199256725674603
P 6.713483273505242 8.919364626234483 5.418582245670648
P 5.012748023886533 1.8970550546150282 6.188855599238266
P 10.61355932137138 4.186704870350303 6.946813385714655
P 2.0842068595872663 7.911069972304549 6.878617596122407
P 9.890787096015247 8.697316638215149 6.2725636011102335
P 11.454791451499117 7.262348666408803 6.923198576814476
P 3.9094908397213226 4.984785999545848 7.633403808274646
P 5.957172709527831 8.331503669380735 8.153728997134596
P 3.152089999063042 3.1403504287288744 6.491216966165181
P 5.973857925276821 1.7647609946609648 8.178130253775581
P 9.07958397004151 9.67706191176061 8.072590889053199
P 6.712455096099781 3.6126517720439177 9.139268265730133
P 8.470858288601386 6.080299934604157 9.146242286129182
P 10.625685975190148 5.848071918775186 8.485160268195058
P 2.405351321183435 7.647838141798641 9.048460140748922
P 4.477602240050363 8.049343371513054 9.820006178930436
P 7.874082612451543 8.270275186717651 9.355147048996368
P 3.9390001697769526 4.563472449003214 9.855844495849743
P 2.1386198549700817 5.4411363228604905 8.938510894107008
P 5.14178785163051 6.257019377108361 10.690230793051816
