43
Energy = -221.31653487 eV
P 6.199333438262702 2.8479121288886806 10.716236858592703
P 8.875861610165472 4.286989532172511 1.4551232719566722
P 6.968009062194337 4.828378537483641 0.3556455074677944
P 4.915725802257851 7.454402878620324 1.9959595346760386
P 6.675951045025751 1.5606034399394373 1.5609712119420966
P 4.521856054074193 4.061635319294945 3.1124727427621064
P 8.774878966909545 2.1088193279730207 1.3985096587483772
P 2.8453942633726097 7.084068939529388 2.3368893325668316
P 5.525626655169012 8.67141728386122 3.8331075547801063
P 6.021064188669514 5.4560589247962294 2.2833797709840007
P 7.962828159694408 5.001995827538599 3.3921236092944183
P 5.832357721202538 2.314096383615581 3.529862640438587
P 6.225343231588371 10.659910155501143 3.630897876881335
P 2.2892797293101794 7.080691991923381 4.446531498635042
P 7.0267200760304505 9.516730447325303 5.2880845533521095
P 7.586728970647605 3.1737021017236335 4.59890705301199
P 9.305012044427311 6.664233770576429 3.8998536857289854
P 3.7859993677040817 8.463417387459309 5.2885256428403355
P 8.95339925894872 7.765723953860266 5.63740837774327
P 4.911078099737768 5.202404353096825 5.063561208516141
P 2.7694066837407005 5.197859635502213 5.7599165139655035
P 5.913606060918587 2.1444504546177354 7.177858505697959
P 6.472291990212701 4.144401338292794 6.255862433971631
P 7.645590541480944 6.866310540337621 7.2363131788214785
P 7.855686321733481 2.2275590891583112 8.32063556933449
P 4.514606273921583 3.0087861597278813 8.625553081876959
P 8.943308492231452 5.75700282721671 8.85759539790384
P 4.802957658567078 7.28402643767455 6.916556234025465
P 2.795350042691894 10.274273764566068 5.907226649963439
P 6.315800050440583 10.850807311305877 6.994940179402936
P 2.6976590055506855 6.673601963872427 7.482706006456694
P 8.291657499482309 8.474665608324548 8.659016805924471
P 5.481012800932854 5.034980745288615 8.916819029626637
P 7.612479454365019 4.097290436763175 9.447513380240297
P 8.056615481798815 7.126430207884243 10.43198994605089
P 4.098034789913178 10.798041829933048 7.49297987348259
P 4.72535460611703 8.800635796665066 8.530654463468563
P 5.097370923727532 2.0126893186018706 10.505220323584336
P 6.607196176927171 9.87256091282966 8.972263007571698
P 3.2484484695750546 5.730908247746434 9.396425035019986
P 7.181051849847195 1.897498502948581 10.431059072945096
P 5.927756942237446 6.290034118847636 10.716236858592701
P 4.108775917758641 7.596457846278946 10.340580453765336
