43
Energy = -222.6476865 eV
P 5.419221854029267 6.397626850449208 0.7510127024010469
P 5.605618670412028 2.8375238149548885 0.4996320947517542
P 6.005411726510844 4.559583017868054 1.792905326344644
P 3.231250971539376 6.5274051219267255 1.4016766946594337
P 6.308176882138873 7.542939928995662 2.4535368495890357
P 3.466304187813593 2.6019424993027642 1.2044028624024115
P 8.270424076967565 4.789860101387633 1.8131248117956709
P 2.329327072988376 4.489564126511101 1.6677706023938241
P 8.477915611777824 7.039830535644149 2.0875962355380753
P 6.085534901970741 1.3249561406959995 2.1555385759481975
P 3.411027485010946 5.468342513493025 3.3471951682245265
P 4.007566529815802 1.476362272966074 3.1016682112504648
P 1.524571842954598 8.143881604330863 4.8801016391736685
P 6.396768841728792 6.287898197902732 4.393670921693359
P 3.5222476308092516 9.000123139698994 5.081147402964745
P 7.716795901296613 4.387646529155406 3.8959297008442793
P 6.898663149954609 2.3113302959273487 4.043306543794701
P 1.9160361458888542 6.025112982814144 4.970958113607237
P 4.509441142961528 7.753351158901814 6.70138927823726
P 4.826116861211393 2.9436187817012414 4.641344545920571
P 8.298783545087304 7.432950960318075 4.317962640040453
P 9.610326386417013 6.348397996176763 5.793587719156442
P 8.395077830489363 2.8581542552220234 6.930837164929022
P 9.457840358871962 4.1918217276646805 5.24067353164385
P 5.156155500135748 11.384594470195907 6.807707889156908
P 3.8143669912881815 5.734604328626753 6.182319604709628
P 4.64166350646767 1.7658030393005704 6.542762298552737
P 3.1063364362177572 10.53238909582679 6.690889155175987
P 5.62038595402982 7.408974738775272 9.25548823213891
P 9.018825250406863 4.553488811229076 8.217265958672325
P 7.769217852644239 7.691196366213311 8.674343982607745
P 2.8974213440402554 2.6190711170990006 7.493379340811279
P 6.296902564980686 2.669683950610635 7.743569789376575
P 7.725240360168542 6.0551936091675955 7.1597374328134595
P 6.054921788828514 10.756118757827634 8.52732855651601
P 3.3863532523797417 4.6509884190948805 8.12660690125637
P 3.124553809549356 8.810602826554879 8.108102113257518
P 5.596074347007057 4.679838147622285 8.375406353734181
P 8.270312851246423 4.418276307490755 10.275697196018603
P 8.373772941603644 6.635810417110797 10.632716192004708
P 4.661689256871705 9.410194401314866 9.621744000690349
P 6.170337054401233 6.520814691473161 11.248599572894909
P 6.001982179378993 4.339094800749896 10.526328942600372
