43
Energy = -222.16802114 eV
P 6.133074035805111 10.09642466158119 2.4998093848874183
P 5.141927637882559 8.385125722831289 1.5373611674861325
P 5.910492626650806 4.900353583005035 1.595682135218317
P 5.316801443754681 6.545786827988407 2.9608595714389985
P 7.925583779354354 9.216224289420712 3.5944952337788303
P 5.06685118736947 10.289193988522973 4.530253256583955
P 3.0414065624756903 8.696465076607556 2.1520072106319237
P 8.171163029247131 5.006331660161073 1.7470310265000664
P 5.512263549703548 3.186830815892904 2.9646950050649528
P 8.26057435301853 6.9771990056359865 3.234045345841542
P 3.0612075983958382 6.4792999319267555 2.7303827638423246
P 8.83979773116194 3.4504851751711123 3.0043129352267353
P 3.1613959093832777 9.130301843223682 4.400051250906982
P 6.448698625735398 8.681551372691656 5.181115424612627
P 4.4588607392888076 1.8466133733356203 5.3044586158939415
P 3.894376542534982 3.885949889321799 4.365241799990545
P 10.537064060378144 7.059612819187666 3.2699279006267377
P 6.72083554239132 1.6750219039348486 5.389532230923767
P 7.148659480360144 3.634629162155904 4.395723276488242
P 3.0466507099689064 6.969965178104271 4.960446958543042
P 8.600958551651841 6.429310318470293 5.426606716186047
P 4.976936092413952 5.692268615025814 5.139569942172585
P 10.558279950373636 5.513168556121385 4.865024302075407
P 6.821028205869196 2.0752970854280313 7.625237923846299
P 7.23704918932559 9.456861676948451 7.105708114143174
P 2.197297782622902 4.394960210638122 7.329391085314789
P 4.607570431977291 1.5236427195092754 7.527060418629615
P 10.522095036134493 7.656591936235199 5.433710858155009
P 4.552581644870099 7.386449410236877 8.713323853817062
P 3.742689874996256 8.828589229970433 7.353113228821476
P 6.576690504533412 4.282190293930105 7.911722432308662
P 6.8403694109543505 7.559528201844958 8.196480397518632
P 8.79579528564612 4.720837238258786 7.928845196091918
P 3.4660494004372966 3.1556277710660967 8.454313253593757
P 5.328654804457778 10.305406108293655 7.943714759745543
P 1.1389208834055005 5.280608749536742 8.913499319654294
P 8.96279052482614 3.856780230727543 10.08097859657889
P 8.682961316398346 6.642189635302218 9.060244421497023
P 5.853629849160166 8.900822569793242 9.710445301929715
P 1.784661781818715 4.522645625634902 10.790685725059284
P 6.731749147890116 3.9002905538073005 10.145623300869245
P 7.869587477266831 5.656843075761995 10.890364272725268
P 3.2608918405238656 3.0526480391741053 10.5438282171955
