43
Energy = -222.95426539 eV
P 6.59279697925607 3.7737814954821896 11.865615436364465
P 8.134005588701967 3.983610501377572 0.6981017459981396
P 7.923614898344105 2.2039328062086048 2.0410406921404483
P 4.900070854862364 2.8841467679471466 0.17550863128578245
P 5.486770268006254 6.1033224966764985 1.0648903756946257
P 5.827994001519735 1.4658715288937 1.6079425035663257
P 4.606654411666626 7.785508560175201 2.189367727173488
P 7.215448148570247 5.246198576257669 2.3555581113002395
P 3.895199105144602 4.623879873218541 1.3915698947454611
P 8.143183024119077 3.663300827378481 3.730052277499765
P 1.3825859975575086 6.330594435686597 3.1400517909276173
P 6.619911588728892 8.650010799138903 2.776433680443087
P 8.310035540758903 7.134737679155505 2.8812271850693056
P 4.343521275504767 1.8125996024430027 3.2555990201157523
P 3.4994980474858814 6.784439982732205 3.8907073414891324
P 1.17026553871553 4.5998641987475475 4.51169899905972
P 6.23955607325494 6.254453223063783 5.242181833337784
P 6.610126491168239 3.4651718315273095 5.26199258824172
P 4.635961934938531 4.000807000762238 3.3991797113292663
P 8.243331131380797 8.684923537953743 5.95768312646382
P 5.403341933235364 1.5243132562486215 5.185841716902864
P 2.584531497353798 8.075599568985169 5.424061318022857
P 3.631771032898703 2.4194084354863885 6.272097632095627
P 6.274334792505461 8.558179130039735 4.961010708963314
P 4.930628683636803 10.024011536594458 5.605916301032454
P 0.718520325909047 6.668334299287912 5.250769807070889
P 3.9982942482118062 7.322894264478631 7.057151525902465
P 3.330532172371896 4.442986697307738 5.149780998499758
P 8.459706419260884 6.5781601639457685 5.102485491342482
P 7.189679616540961 8.177668561926799 7.891618549152972
P 7.990086540620432 2.9344511784388083 6.948833562387222
P 5.032030475263215 9.197911871778196 7.65839892110739
P 6.236634524472326 6.166666077613834 7.471643702295926
P 7.8857091997702495 4.746907894999329 8.24923178945962
P 4.800818848610432 3.97846700161858 7.436707076859933
P 2.886432164157818 6.739097262934131 8.92793943884236
P 3.1885423639184642 4.4262777176232255 8.927992734298481
P 6.489735242173907 3.0418327491730843 8.623426754108513
P 4.1645690562932645 7.83036521764651 10.382855438325118
P 5.577105125040325 6.200614176566959 10.393116681656347
P 6.127946228077991 3.5021830646577468 11.50992064902193
P 4.266708199486503 4.5748731255036725 10.899246062826931
P 7.005204754777129 5.37103536658916 11.865615436364465
