43
Energy = -221.82508745 eV
P 9.883194384801882 11.058928296299525 3.087972468841999
P 9.928808743038473 11.888835759023886 5.252799753147899
P 9.46318063762997 10.183939660417265 6.530004520075934
P 9.37840942400144 8.939262785612044 3.296534484643607
P 10.104619141525056 8.467909745268159 5.321062944341355
P 7.749535963037811 10.396835776688718 3.4174946546766596
P 7.795453140614695 11.214312161483871 5.5532394451527605
P 6.186712509529493 8.953954938496574 8.091188930462575
P 8.462389441164573 5.290371324966687 3.0529964635003903
P 6.802810190873334 7.441753366486858 5.257257758122847
P 5.033473575808665 7.282599232656105 2.8896937317153313
P 6.490996798086842 5.787425994191354 3.802264685549086
P 8.73838874862318 6.908306145728336 6.193520259524596
P 9.081815786321275 4.70366718427001 8.380271144517591
P 4.1969532064392086 6.5918572109648315 0.9637231090820955
P 5.489714664709273 8.049089148669866 9.931901422378406
P 4.774565293642763 4.499732827801882 0.60788431602949
P 3.334892051225632 7.522492009840941 6.17020112158767
P 9.47015885154341 5.234756688864704 4.941284403491497
P 3.106150797800233 7.203511636984354 3.998021002926574
P 5.424402732408363 7.282722909867657 7.003048616099321
P 1.5567647144398105 1.432362093073983 6.304078110502383
P 1.2121699753665593 2.4491737817104324 8.248864415728294
P 3.2729296686837945 2.764426801575386 9.145981582612624
P 3.7933002990542986 1.5950028505624005 6.397352148401739
P 4.478752018264162 1.0869947037206806 8.399863760264227
P 0.5966885722907448 3.317152033485549 5.435849147155879
P 0.7821380218869153 4.480918211033997 7.326548014325022
P 6.09166207230013 5.87581199615785 10.335524193386647
P 4.735203650650802 1.007282756461464 4.585528953213014
P 4.086881882159696 3.626826383723225 7.290356620683095
P 2.387398366773134 3.756931180855866 2.688504221649888
P 5.335169075546849 3.9838611700362745 4.447027920052947
P 7.233434955284903 2.3428850437465627 6.73232516733712
P 7.090871762087187 4.17154808627904 9.161337371114405
P 2.5807991265913763 5.061665984380701 0.8588285179170664
P 4.425161967256922 6.295760219519696 9.059062558408383
P 4.542206733027226 3.229147916611894 2.499782175634447
P 2.716938464515716 5.282828881527901 6.386206981452067
P 6.636948098759361 2.1803960764925656 4.579658373235757
P 1.8509702060738635 5.110739040826802 4.36978055915718
P 6.207987174875853 4.2498964383250195 7.126480858162038
P 9.176904743553887 3.484031177578558 6.566600746007169
