44
Energy = -227.52822902 eV
P 1.825603082005983 2.8582004204982443 9.296413856255885
P 0.38560211714851156 1.7111594263720682 0.4635101355102186
P 3.2082919610561014 0.5943397742072724 0.4766450706581349
P 3.882053795439083 1.9772787869136514 9.277025803544044
P 9.585704663732558 3.5877250680491306 1.332227577010039
P 4.10334113340588 5.581978559929239 10.165354934171638
P 5.128495997818404 4.643057875368516 1.7262673715250063
P 0.4314631866597074 5.393272303967366 0.4128861917435045
P 6.181447836907876 2.819892596260101 0.922214435681376
P 1.8526326169907847 1.4417457806360476 2.195728362153044
P 4.673642115084506 9.837400853314051 1.8368403363295918
P 5.404504140759221 7.815164668491067 2.226919201080003
P 3.5571210149117096 7.39160655857082 1.1629315851863975
P 0.8156252819821398 1.228086911514736 4.346334794792498
P 6.830766365433916 6.155712623928622 1.7692288692934037
P 2.832845242285942 9.82094313741029 3.2037579129068865
P 0.22294513529358298 6.205569977181997 2.523353106222972
P 5.5122232005013005 1.5314417466163803 2.6386681428183416
P 0.7994626368186202 4.076117329057985 3.007673131488449
P 4.560697690223705 7.027872870970113 4.32084465097216
P 7.897580479852642 3.19131325886337 2.368712845656267
P 2.407381986507697 4.318482781421798 0.7022783069156054
P 7.693981727414684 5.912296186789984 3.9246563059392017
P 6.605837297920952 3.9392841810409767 4.1192278675622775
P 3.1416819576276764 1.5450057604639862 4.370195179117969
P 7.749714375913022 2.2775467581727584 5.146507964419634
P 6.599146719383958 7.362211724174782 5.264286138061314
P 2.362746997666536 6.66150363349351 3.220133882832676
P 7.641440190559326 1.1008759677757343 3.212118201078703
P 1.9744347794925634 3.9862991539413413 5.857583186402576
P 2.9457567657541124 8.579184531937033 4.3082742165746355
P 0.05098466918338043 3.2251955876845013 4.958528554761632
P 1.508887567252616 6.124603723258274 5.373534953640965
P 4.368580329449594 3.7260236933410007 7.552027752891084
P 7.587524850086734 4.594832227686275 6.913277883586354
P 6.039804985164442 5.978833253810864 6.907469971949687
P 4.287809227588161 0.5681130531396278 6.162404675579685
P 3.1330277467887364 7.2892761166234195 6.157703389344201
P 6.4229197862100795 1.3020706546331993 6.661571185216276
P 1.8381954661099789 2.1945697313318493 8.888087361852467
P 1.1189774503357792 4.07711979726151 7.93515022395452
P 2.9113241670090426 4.142313237373369 9.277025803544044
P 6.42155597085669 3.126774432936667 8.14271513485905
P 3.854937968543097 1.6411159374999365 8.039826175611775
