44
Energy = -229.2846527 eV
P 2.5485097285098264 1.26673995069863 7.936524979587568
P 1.9819932237952367 8.77738667862647 8.558441694013878
P 3.668542259868845 7.752078197253606 0.029420070889935868
P 4.190267728309169 1.7606750148049934 9.161616752552991
P 9.007040284658506 2.5182887965092253 8.290898395601348
P 2.3017854626698275 4.832380657761984 8.411609776551325
P 8.68297218910533 0.3904035396983867 9.075198431574686
P 3.8441923538774625 3.8469179927604795 0.09779053019458851
P 6.016873590101087 2.4324689597509814 1.3108316269511617
P 0.9593722958964365 0.14620984880662946 0.7052912244526984
P 6.01597833800252 4.4167742011071205 0.2725945941867123
P 0.9404567271478392 3.3504894351338486 0.06002631770343797
P 6.774405348893263 0.32981777098105736 1.1990973986481628
P 4.557598840248843 9.39641975636223 1.221423476958986
P 9.334332480986427 5.179122485565981 0.14476999827163706
P 0.41835326621783164 7.927889580609773 1.9305412605879684
P 5.019864185167974 1.7962406791125982 3.7561365425189357
P 7.0997656652843375 3.061260436620159 9.505210607154346
P 1.625024547234751 6.47052683022536 0.22958368440729038
P 7.3600861159057605 1.1703249265092577 1.1505949239155269
P 3.6284363905337327 4.46828382598878 2.7909576709890773
P 8.993521058365635 2.020614291717169 2.382117729760831
P 5.7761163089959515 5.094006886658356 2.465643192100684
P 7.499095069610697 4.778786820028128 1.3584601299501533
P 1.1681502472092886 6.849682858113763 3.4665019483224877
P 2.668939582505703 9.543574065030839 3.7230126333653004
P 2.9144981217368335 6.507838571445586 2.0909850414373343
P 7.425427443348145 3.3766943352056664 3.1565273484775647
P 5.381492780772779 7.944196108280407 2.694035587137105
P 0.8551536682532843 4.675736917214649 3.7797115024485044
P 6.746741502813967 3.186919193146173 3.262451986109136
P 2.4389756096415987 6.849682858113763 1.7634313353951638
P 8.677503567549627 0.735598821538641 4.168607379258959
P 1.931815010585409 2.3594319609179153 4.952931607495748
P 0.6267962514510307 8.687889977295429 4.074550044237943
P 6.571026476309084 0.11545629076975089 3.4852650248796913
P 4.770748678945354 1.6982015954520147 6.009917382798844
P 8.57382252360515 4.213320802240461 4.892147060566289
P 3.4468400158465227 7.455147734630473 3.711206870503927
P 3.9666706288333824 5.191598257258522 4.978902496394317
P 1.888942610146463 5.919475623246626 5.337371257135943
P 2.815130231485731 0.5152095058398398 5.9105053356703365
P 9.42901717909567 2.231876714787277 5.744101554997314
P 3.3553570149170895 3.4612963647328168 6.261295226509641
