44
Energy = -228.25875731 eV
P 0.5271808903470798 4.493613192328336 3.0509558839247855
P 0.8576646452369335 7.012216508411014 5.027597671312209
P 0.4838189043430793 1.674083438382793 5.153093496460126
P 0.05703830184805901 2.3256127196365104 3.021672715370924
P 1.3618466620968255 7.4353191095014335 2.855539125808911
P 0.3075613480334363 3.641226905616409 6.30484070421874
P 2.1251978869487265 3.060098181754388 2.5446798611934787
P 3.031765288508678 5.616433294529516 0.426858764269295
P 2.69470005282142 3.376335379185238 0.40441941601201575
P 3.7277133834908995 0.12622712070665915 4.442925658319038
P 2.6388561194074533 1.215860717397714 7.2581844502765955
P 1.7637197444596877 6.291860734723297 8.09295809331928
P 2.6884750999982803 1.9247862457416802 5.170226241859834
P 2.2290055242174738 8.624903628591277 5.770310707656422
P 5.701569593625861 0.8144832745379136 9.235542304820667
P 1.697266787063538 4.893752933288207 4.974094335675384
P 3.380223312481937 8.384499068896414 2.632822487730414
P 1.7646320605677723 3.1584117069681428 8.041349699262268
P 3.987019042884498 0.692013666874119 2.290836987053436
P 4.772437676674174 2.5751226885601763 0.890988257519812
P 3.1927470894177987 6.15877477836177 2.634071968658368
P 5.749984794199198 4.012775966400371 8.695149936903105
P 3.136070204799333 4.816470453583403 7.340920637258034
P 5.621470090935886 0.6867523254172369 5.577194015677417
P 5.923245472582961 9.219434798130296 1.8384834531363918
P 5.193322299800731 5.9129228750342895 0.14698259815297912
P 5.316918192837674 2.879064631617266 5.953736374185647
P 6.351688498152869 3.3211371959695297 2.331795947356619
P 3.03801273049235 8.079608688487982 7.806464367699352
P 4.859758740167349 1.4017344749288683 7.559815121376221
P 6.846355235834788 7.742063635751634 4.198884798750306
P 5.081773551542683 6.626779236557459 5.252312048730951
P 7.603299933189372 3.742021150057111 0.5060588177713345
P 7.840813829320469 1.5087464433752404 0.17177031325933367
P 4.838992280094821 5.522319228229 8.695149936903105
P 4.156347986738289 8.646938709975041 4.726303578527574
P 6.918188848349133 4.6027464008605845 8.583895996317613
P 7.337929157688091 3.2848822331995486 6.832591891222755
P 7.565092149501071 5.27689624683765 5.844289617879213
P 8.654863433358727 6.4470011318901665 4.232152073592205
P 5.142350850904179 7.296920998352603 7.415234158577893
P 7.5061681596299055 1.4032786515993758 2.413606353193618
P 8.416864590497962 8.090743107291754 5.663831146991923
P 8.187789312354829 6.300679437257349 7.555051973794152
