44
Energy = -227.56540647 eV
P 5.276235873807444 8.215233166997404 2.6833484791286084
P 5.180691348210315 5.274523535006306 4.724091699771526
P 7.74412341831668 6.217644459270727 2.854543224859621
P 6.058205852449399 10.27402544147596 3.155949731461197
P 3.180044827039469 8.860533063564965 3.02460374534784
P 8.195854521454821 9.927970940809328 3.0340916673704883
P 2.0340565528960344 6.995724341111331 2.7270369466551787
P 10.898928719886888 6.957273108011157 5.578357801742097
P 6.2630880966628055 7.224652589712186 4.44111923503808
P 7.022572830185966 4.274639516087888 3.8119611351115683
P 6.6100429807732635 2.9638546181415606 6.823893261765996
P 0.007196148449808225 5.139796982966446 3.4626490286540133
P 2.8824340250880685 9.356190610327715 5.1907687541246466
P 5.271558800525578 4.768650813666251 6.936845180331187
P 9.513395897089046 5.932500024137186 4.180643893248571
P 9.946878608117753 3.3005206642248233 5.884227967253898
P 1.4463190439611295 7.795342309735284 5.818389781955721
P 6.106434527464301 10.368752662903873 5.630263168650185
P 7.92499119263348 9.324202624984487 5.019822858876974
P 4.841255631043243 8.569494493596427 5.888623411667249
P 1.7595270160667682 5.937462957455145 4.644241269932105
P 0.24787952608966496 7.423828371925588 3.9681645686736733
P 9.485341328108856 7.507145775511017 7.4234732551891724
P 0.24787952608966496 4.8549496814211235 5.636480909150229
P 4.731697265984375 8.26976844804786 8.073358968575178
P 8.325195287699596 4.733931661399572 5.587245644580565
P 9.239033132828395 9.668035469653558 6.889714735021268
P 7.376300984483885 9.770087845774496 8.02510118735549
P 4.44691771221311 2.763654793144542 6.954504348615577
P 3.6996201625796474 6.36274435327185 8.06139873558588
P 9.851006118160685 2.9763844633448318 8.112054037766455
P 5.161160818359184 3.230077153002139 9.617067263266433
P 10.808831583325759 7.916566123146752 9.161747336368357
P 7.704493820804589 2.3657948074529105 8.748901208026284
P 9.21114548854445 4.976395121661889 8.841505627655845
P 3.448798136021714 4.171999827801908 10.633983703509701
P 7.024769604394578 7.57277829993475 7.998012098758117
P 7.262300240267048 7.284296634827501 10.228876796090516
P 10.781832510232258 5.901889484290008 10.12151082223857
P 6.305160696049191 5.121211897720362 10.392229040450786
P 5.276235873807443 3.7877305675751227 0.4706816781776692
P 4.13702256784133 6.211864636345575 10.171948208468924
P 8.180037413398592 3.8518510170108957 10.417900483468507
P 9.4184032112841 7.513941848746147 10.870084298859767
