44
Energy = -227.75325571 eV
P 6.256587795837009 5.504828041488482 0.4530969876752915
P 3.295473768926689 3.5510390258880467 0.29721469662589534
P 7.897960593657225 5.4444586074258705 2.0322214475343885
P 6.479992184244106 2.568120244842794 0.813547951017533
P 2.26426794069768 6.688798040315818 1.0049031253872969
P 7.402125385420191 7.51879498265054 2.7825766817492887
P 5.806299709547314 7.59173297285496 1.171062942992892
P 8.168371653075175 7.112516815527267 6.582510085230016
P 8.367190946651387 5.450993192046462 5.114023562620064
P 8.191779897404405 3.6603789624570253 6.555050710866905
P 7.668425440530828 2.2058274551292234 2.671703861251645
P 2.8434318297767787 1.364006485116018 0.5636804333468068
P 4.964745161367021 4.054615788199089 1.6386904297331153
P 6.269242879673238 8.293799213833552 6.424443970556774
P 3.823012111778897 7.376016521520449 2.121155799920013
P 6.967690209015913 1.8678574732075222 5.927237301827901
P 7.710259212857261 6.3051029500811495 8.630484833913295
P 6.496694513413797 0.5236404564880476 1.7264441286144958
P 6.557116966053696 5.728423148637843 3.817415349108605
P 1.3096413124017194 4.347073549762516 0.9227384572823479
P 3.990218519058922 8.371545880855873 3.957573866702997
P 5.929714353063324 7.69842429949074 8.704645355069411
P 0.0093681445182263 3.2047678495004326 6.090133394192921
P 1.5656532724044507 0.15423626881639999 3.748390597709585
P 1.6899580839817772 1.9612958556554236 6.947904498283819
P 2.526903943878956 0.24287985952626223 5.778072190369652
P 8.367190946651387 3.1463710172328843 3.8743445586999345
P 2.220167454897376 5.6263552382271875 7.541920655051817
P 0.6815695309685129 5.307908158230899 5.983838949353232
P 4.9262021871213495 3.8234707157017214 8.232259244062718
P 4.122802509463804 4.924256531636767 6.44856468278717
P 5.148054394805531 1.7983021874540963 7.344473355240825
P 5.923631837394989 2.6305923173844374 4.067747705296649
P 3.3927095734095936 0.08734118834405061 2.419387825704874
P 1.5054652989325825 2.309791441724059 3.245513610407913
P 2.574819150536559 7.7853874840576385 6.892985215918657
P 0.36243007270534594 5.096686163251937 2.8829423711055138
P 3.5810144732279796 2.2123940157221798 5.767965610085473
P 7.095268547306426 4.150506690717022 8.407251648906941
P 5.210329292581409 0.5222339177417205 3.5471219695531166
P 2.0749849812012386 5.443029703787417 4.248172154469931
P 0.7739263401182431 1.9843498976700022 1.2121171698452504
P 2.0372972451383795 7.691504463948177 4.671656461373775
P 4.666471079669703 6.968811249140522 7.035280475843828
