44
Energy = -227.60643258 eV
P 8.614641678967368 4.133788472124896 4.007490108169071
P 9.69455193816483 6.621825743132525 9.928051050450847
P 6.821283073503604 2.796987007857952 3.8598258485878243
P 6.290714435415088 5.3079672314606166 8.787030008258233
P 5.08865195628306 5.679814652843033 2.085642400673991
P 8.956247500323675 9.0222128919263 4.037727764996974
P 8.175233174101631 4.63494229823632 1.8355471176489242
P 9.584681135105832 7.011092565879979 4.6908943560342005
P 9.238844954269556 7.50276360258745 2.558375901472722
P 2.223360240067887 2.89733024232539 6.013748420560175
P 10.267803190076014 3.4846283222624463 8.556256496232454
P 9.984495532540642 5.643253590772638 7.939842494881632
P 3.089536730328681 7.177598808018826 8.769780457784886
P 8.658369485540739 2.900557469208781 7.028626497488212
P 4.817197209836203 10.0194677982188 6.74318342886308
P 7.878038775871373 10.750217896124283 7.1139795211068435
P 3.455513755731029 3.8280375230932413 9.149004793275992
P 5.563066650111686 9.518845626011338 9.673379988892867
P 4.2332998477790476 8.555873865745722 4.281164429691557
P 5.505500798604505 3.8272570997532442 5.31955890262513
P 6.262786256569655 8.905559833306153 2.029444111696969
P 4.242391648905229 5.764486077378591 9.992083509077512
P 7.6060967182087555 5.89069771237546 5.032729183852843
P 4.034720454577706 2.102048605204058 5.042792190976487
P 4.028818628902935 6.164719187150788 6.937570838498704
P 4.246275982966407 8.086943636220298 2.155930469753936
P 2.3803534667600643 4.6605349794455115 7.349845209142533
P 8.0447853452528 5.069117905846061 7.112287728412141
P 6.658455074542522 3.5512552462566465 10.105410685784076
P 3.0939134960851224 6.780520245639418 4.996771650849009
P 8.564690281124308 8.522125055635579 9.568842932672037
P 4.132848643077474 5.071087427492557 4.049124402322163
P 5.801922059381272 8.271984760877203 7.842774432313345
P 6.601404546167444 8.80872430719198 4.255944985323381
P 5.941736007147104 11.275547850147 8.233915465253359
P 5.3793144897739475 3.1308139955699974 8.299550104072122
P 7.09962037264851 6.696412684782548 2.106443620574704
P 2.5941612706937907 3.4198083624254987 3.8810958443518633
P 3.373812164332937 9.247138677810568 9.306868896610382
P 8.393231599893626 2.4752469972346245 9.1760913664512
P 7.543582893490341 6.6988203477099315 10.30721503807943
P 7.9647558295215495 8.531952301386072 7.39806306281662
P 6.445016689579994 10.758751593913026 5.371018351194303
P 6.209614936714329 3.617054579941385 1.8453997365422108
