45
Energy = -232.26000547 eV
P 5.827388722114328 7.841005357040449 2.3088732204273783
P 7.501813453311586 3.1938718745926997 2.228243056780743
P 3.944573976808231 9.039133249823944 2.3734920197131903
P 4.510940288554722 5.15098976407293 3.7172069396287117
P 8.558027641086696 5.172493334937479 2.37629501729531
P 5.303571594042396 3.5987108548738913 2.2627502949035323
P 7.419514661723777 9.372150283194923 2.6303789312402004
P 4.23784993162513 10.450243092810167 4.0009505454341525
P 10.24318485137931 4.660687976339082 3.617367529812292
P 3.1957014135470714 6.073269110980386 6.739869538448869
P 8.353739622806945 1.9845674547292553 3.9540311498900054
P 4.942377599629051 1.5245649971668729 3.117543725189892
P 6.368119925892839 9.262736776368694 4.534787343532146
P 8.357324032258745 8.103812313589348 4.279850698728369
P 2.9732631255441166 8.69128689532092 4.344318838339293
P 2.5219672274425196 3.9703248060717744 3.9781280128941567
P 4.478134279096548 7.695746652704767 5.77052887056863
P 7.216937398826102 6.281926477712828 3.8512697271092056
P 6.529808136812443 0.8458891164537028 4.662143444886274
P 9.014227979706991 3.788095797713583 5.144524237539385
P 5.474098169058089 3.9827016219132996 5.552267958714556
P 3.9320532372288746 2.4929171520835838 4.776213495048261
P 1.7947401507493417 4.383447953710733 6.100051387025961
P 7.495520849865726 5.2792965602925985 5.813249031091978
P 6.956509780189818 10.647390882833596 6.250304961205364
P 6.092955924253857 1.8516596994478387 6.594110278357449
P 3.9251056799737642 1.2751420951078116 6.585699353683417
P 4.091105914911543 9.337042138964675 7.365657629296066
P 2.9188786574511836 3.122332459097922 7.63505596897577
P 10.261019622661994 4.133880816978332 7.026628586555971
P 9.053274091260267 10.886661571644153 6.688123892536856
P 6.268585474289291 9.307536948332023 7.837403469836652
P 9.575972748571202 6.221830371162071 6.869092366509631
P 6.319621082187784 6.869700798388895 7.867048140589785
P 4.673597369061918 4.657067098393512 7.633681176848381
P 8.427608009918815 6.535010572628382 8.725154301051884
P 1.9838479173923549 6.890575694749358 8.397670301241146
P 9.006003641147132 3.121904253564644 8.536412568651018
P 3.474738525937333 8.291361023945688 9.234007142500177
P 7.105401241046763 10.193231507426141 9.611572671757951
P 2.1955304926243193 5.203244567553063 9.773012348898831
P 8.90579466036768 10.94035383997137 8.77967893674905
P 5.247604892986277 7.041309877380962 9.875442771427924
P 7.951072594153042 4.558516772273531 9.546383807201417
P 4.325110256874057 5.02859438202907 9.987741158252867
