45
Energy = -230.94210132 eV
P 8.26100409508116 8.983615805587219 3.2867498782699647
P 2.433772049595587 1.301684329776461 2.470788580755466
P 5.290013861074535 3.245368095360257 2.3380817702170136
P 5.906602978106398 10.562106814171495 3.2378820507491204
P 3.9283143064047126 11.245751103917586 4.168270056901653
P 1.955206943798666 0.5201777529268918 4.5152817886278
P 3.3749195456400174 3.1769637359663783 3.3479840326057633
P 6.027305639292575 5.237007257232679 3.080724695400999
P 6.199996253277259 8.303419859067844 3.1097580410904824
P 6.795009909205228 11.239627447310214 5.159164134600822
P 3.7409046324278714 11.245751103917586 3.456846559202802
P 9.62157277406745 7.346984290444918 3.935559931094816
P 6.797189857910019 2.0368415661479493 3.602917186926621
P 2.7288318318227596 9.379007153963538 4.3830945774095245
P 2.493705626314509 6.033377795764544 4.6303262128362865
P 1.1977904873308993 7.350637014021169 5.93297495458685
P 3.9251184720546264 1.4961313707372688 4.8327913118614
P 9.838246200744301 6.838503915618469 6.229188158910528
P 4.78935286035516 11.186653049405406 6.258478826738566
P 7.973294290609612 9.402423941627058 5.56669207546969
P 7.874379964565928 4.0293519045965445 3.782370126587532
P 11.156136593470537 8.952937396399788 4.23836345091061
P 6.267394947283621 7.376779257319466 5.217112279986259
P 7.620423671218189 2.6796350539461526 5.501422681663704
P 4.1452683675228394 1.1855593558168713 7.179405920454943
P 10.108231157794377 10.233350577729244 5.751352304982983
P 11.308755794615625 8.481599490153863 6.442350566333421
P 4.904312249532076 5.6762737523569955 4.996663281105975
P 8.85427084219649 4.112250117986045 8.300977753027107
P 4.188818243167312 3.410139963359611 7.169546084240432
P 6.669881505904057 3.887650073291974 7.209995837641518
P 5.985825391904106 0.517309867537401 8.02191855844102
P 3.878489095670122 9.152696889274383 6.140269846044835
P 1.7969180022432283 5.270222007260375 6.573989935798266
P 5.748715673575592 7.76805264997991 7.485805546175171
P 2.5296912814380823 8.150889958755958 7.578064913683917
P 9.031355070121503 7.612076046438161 8.16720259131287
P 6.472992725995107 2.4485881729673045 8.880423115633368
P 7.415082294672231 9.09927284336455 8.001294576133565
P 3.6148330482700635 6.247789197874436 7.512828407941312
P 4.188022198169066 3.3548175589751046 9.328882020060117
P 8.41180510733272 2.5973202282405783 9.775126850645059
P 6.300686137301167 5.894065161541279 8.502728635999276
P 8.238240996684508 5.959377404293269 9.472826107740122
P 4.352717941138465 5.583554585313169 9.566924700101689
