45
Energy = -232.66022029 eV
P 4.26989644884833 7.136770481345265 2.228767459000384
P 5.3474803719818205 5.200419668304357 2.719971163645547
P 5.828883812062365 8.780514068404344 2.3188235100171806
P 9.146357964106132 4.681894578450379 2.594213127438345
P 9.111551857061952 2.900114008715932 3.855555883393198
P 5.59189720941176 10.166913261889354 4.071958809449145
P 7.815574856457539 7.766160080323499 2.5423518797402647
P 4.130889440838095 3.9623238289828877 4.1672867877026185
P 2.9909102864762525 8.279782657391264 3.733978747657493
P 5.689064644653381 2.2993173499523096 4.0678207850112935
P 7.492773319523525 5.731760304048387 3.4744531640915377
P 7.4051971809279555 3.083373529313498 5.238550710186666
P 1.2870331173764176 4.702120901615421 4.1623171391565785
P 8.757487466953556 8.870173267490983 4.234656670920756
P 7.714287596416121 10.821285340254923 3.900765483233968
P 4.639193906323638 4.2372623368973015 6.319664135291064
P 1.91023098894576 6.653590701269513 4.784360272760298
P 5.729500587325461 9.176926123365838 6.034687701913622
P 3.9211713291125827 7.467822708861494 5.615238358009073
P 10.426717136412723 3.601656567749782 5.551430367446873
P 7.788929947444278 8.279115603707144 6.165995642620783
P 5.2402882437982985 0.8918027538446658 5.803837435589219
P 7.9080181297696495 11.693084589344338 6.022343698047684
P 7.562166883741088 0.9280296873429678 6.011425148877402
P 9.558736155230527 5.611109640481971 6.031780078159173
P 8.955329046129405 9.99041244647743 7.0634861950765275
P 3.5681476924036066 5.660830439947513 7.6228104448701774
P 7.3357516600879125 5.541085279855014 5.626882639837036
P 10.020516764668427 2.733990992778475 7.649964738369529
P 0.8627035600467865 3.941285953384368 6.084823431991686
P 3.8369371593290342 2.2899456993846288 6.996386330354515
P 0.8800942317888212 7.441567210013766 6.553759799359925
P 5.978365551152241 11.101182528503475 7.080526113265779
P 2.61904132783922 8.743985985685775 6.871470579328912
P 7.285655323033084 8.106024918179328 9.017973369069066
P 8.140282116070635 1.595956067827168 8.090091130744506
P 9.532357023968409 4.901481269930551 8.218807018148523
P 5.4316474224585045 7.644090026941866 9.857200257021077
P 1.3510990245731112 5.45642065680364 7.627446673134737
P 7.427599011082376 10.31555552272798 8.672832580902458
P 6.699203626273269 3.2405498091656217 7.769799944563025
P 7.304207148145444 5.234786515319139 8.372631279404638
P 4.0949315882551645 4.573720233035565 9.522364496011543
P 4.959857466179621 2.5734896730885435 8.959049310090169
P 6.002222619384351 5.540502975670415 10.239647753161918
