45
Energy = -230.12766758 eV
P 6.222412880508521 5.9963147079003365 1.5167080110685802
P 7.064685509017146 3.951093761399342 1.4286844597823316
P 2.582604877089557 7.895212439600574 2.1271159528851324
P 1.52089680476473 6.141527449135027 2.0734536278270945
P 5.7210187704490005 3.10502896845634 3.1416213070777568
P 9.764474480037029 6.0465710912566015 1.9842697747646512
P 7.900063799962981 7.2844252255465864 1.8906722740224515
P 9.121057302048946 3.9463362408648535 2.316892639071046
P 5.699722199462754 5.210256650736754 3.84869086915263
P 3.7541553361063746 8.050622466116533 4.005284212026134
P 2.5997240981794896 2.2076804818943505 4.392164902179963
P 4.362025574876363 5.518134733885638 5.565903398952369
P 1.1883498766068072 5.013128100693178 3.9252974130335967
P 8.069623683472198 7.737713249908519 4.17468529051192
P 6.276801099172389 8.799411825720426 6.196848030809863
P 1.3602866149369859 3.045850497417118 2.9583573288659935
P 10.204959940625832 6.942742645062177 4.048034523744851
P 9.060138051092558 3.539399626953962 4.512317010496026
P 3.4737320260872053 10.193078135345122 4.653156452604795
P 7.194131523163281 9.67020921242857 4.470293284519949
P 6.8713083601426765 3.386871502294933 4.986315794150316
P 1.2791231727704488 9.541853548259395 5.345852571048091
P 7.505553711266399 6.472787800099702 6.00917646328381
P 9.580268821883712 5.451523214563827 5.566746670562968
P 2.678186852966726 4.126456619237283 5.4972587562089705
P 6.534262490117212 1.4345652355811174 6.228148778382951
P 10.34218727794153 0.7115558484141926 7.4495316140956165
P 2.1173765966000326 7.458141639448032 5.402677927038817
P 1.1542672796125506 9.467093773937508 7.509194449065223
P 7.364868373161049 9.114660591551372 8.198876455796311
P 10.724360088401232 2.396534589774228 8.676946269010342
P 8.173257627889797 7.064983389745008 8.138218705856668
P 8.368523987023075 1.5659851338890287 7.448146913184571
P 4.417146055316859 9.925241964732777 6.625016653823961
P 5.505008272104875 4.6622318258963 7.540411604811327
P 5.609755639899676 2.3543950834595373 8.033936608103453
P 2.070750510364932 3.768031217744457 7.515848302321682
P 3.5673000924297016 4.775701798690496 8.702563693630388
P 2.9172994058307973 8.257281923617121 7.2942360821325
P 8.852980628249814 3.5399187577997564 8.20492703563394
P 5.896110174274475 9.200467633014155 9.750094474648856
P 6.66062236543198 5.802260656354945 9.189204733100556
P 5.1705808644422735 7.185720039558742 10.10267789925777
P 7.428805214234074 2.2173486395908606 9.369450735305504
P 3.177124071685098 6.931542444124349 9.091982427849054
