45
Energy = -233.45842938 eV
P 5.054252766327375 6.8151080725681235 1.6929776934612022
P 3.787244120011673 4.954167858601936 1.3797202647963844
P 7.132490981698278 6.027149496590286 1.4253996654998609
P 5.216144599335631 3.337917534202383 2.088390956522102
P 3.431229705686326 8.497602381315941 3.945989146835785
P 6.748276328384288 4.624856145663716 3.0597957873524435
P 4.809584848623551 6.822352922166491 3.959897425084957
P 1.943887186591348 5.248028395443856 2.7506353887081394
P 7.954743134368402 2.6978598801337728 3.4060896734109534
P 1.6427936400169199 7.229029576611356 3.8608584843595533
P 8.16385936415168 7.639834435872199 2.7906408800752116
P 6.465153618418072 9.774958307732415 5.311465320258927
P 4.600338858833295 2.3040993418128597 3.993423963300567
P 6.475359729154202 2.906573868695259 5.045807452769743
P 1.457716792371846 3.6246235063515666 4.211284206780354
P 9.59761812783379 3.429363734349166 4.747040963464185
P 9.942978352483662 6.925660525299654 3.7312486848536217
P 6.8132783554490866 7.6236719594329765 4.566577867113792
P 9.223890287295484 5.576225288900667 5.292588426701705
P 8.34417665319984 10.84163498762029 5.840099560997568
P 7.1309302755821316 5.834670406612499 5.890218890581972
P 1.4815025050899722 6.4392442871234525 5.942767686419521
P 7.7749129274107105 8.457481822938595 7.848998990876718
P 3.4029056801260955 3.6619571159776143 5.311345048855693
P 5.733322424763404 9.128701754467071 7.274029114380133
P 0.17597360452204228 4.752034259456459 5.503694650777992
P 7.0055681120020035 1.5939040987516506 6.7608214307554775
P 10.464844971546805 5.657989254733349 7.077258135346582
P 6.954184341758572 12.452228624629868 6.6627676811550245
P 3.4941958597500644 5.636060786755931 6.434497035669784
P 8.90169925621276 10.28215487941415 7.942516752661643
P 8.204427120088575 7.070095729694417 9.530949207473247
P 3.6313842828990666 2.5204804522147226 7.242445927248144
P 7.29517557275068 5.332880796505021 8.382523536449067
P 5.558176210034941 11.275487855526533 7.954928846051192
P 7.494938287470364 11.8572047912276 8.790764740265288
P 9.165823046443172 2.3882199987058854 6.684218287942676
P 2.5880896808684173 4.327684300151848 8.088484905189715
P 9.352285097701559 4.161593341612344 8.089486896892275
P 5.760111970655372 3.2423556704651664 7.759294112575471
P 5.197179701724304 6.418835878196124 8.96730253217403
P 6.359671923073481 6.593907671164711 10.827139560120909
P 5.388513069143512 3.130416783035157 9.997156417396633
P 7.144144720008313 4.463235649104693 10.52860108499429
P 3.953207698290487 4.838641362322262 9.826042505551696
