45
Energy = -232.51467802 eV
P 2.189056845063686 4.957696594058159 1.2532063110010914
P 3.899416983310528 6.219635554205601 1.9156883149796176
P 9.985818354958372 6.74374299397809 2.3977652786965717
P 8.274053330910114 7.954775201911753 1.5971255268243871
P 0.7634243916032479 4.378269857880957 2.931148347642303
P 3.1997185892498403 3.026575319862677 1.4982489576259739
P 9.240365101696966 9.635201016838263 2.729662597506207
P 4.270316516520081 5.102951165174646 3.783663605256993
P 2.756044533772684 8.096001048825315 2.246572864214299
P 8.883617779461245 5.2609815815729295 3.6129954640270596
P 1.6752400295037495 2.341724511627068 2.7459060252486855
P 10.59741053393164 8.394200222254556 3.7169565238092726
P 10.59109830761235 4.573261064065882 4.791539983579394
P 6.727915391090522 7.404152743651518 3.102630574838402
P 7.569620978407975 0.2531166220737465 6.502741101860374
P 3.834844478994609 9.593658822212566 3.2589668916774523
P 2.0371240184575763 7.112608969751207 4.960596546316004
P 2.129211825501549 4.925001596932682 4.580724596158524
P 6.077567351414835 9.549081307364675 3.5317932975550788
P 7.545721939213162 6.419118921644719 4.941748183022483
P 4.1525883249917594 6.637042079003277 5.455790426853457
P 9.14487136051068 7.511106806511824 6.110081770978387
P 8.358900115820537 2.205739772041814 5.698146782208534
P 1.682199843591154 3.829703828320092 6.3993618229784355
P 10.63761504288879 5.9078353468184535 6.5078661979565675
P 4.125005938246543 8.900594579292875 5.5184637173705235
P 6.055232816960966 9.83724713844655 5.685632238221099
P 1.1730364018648312 7.3112502969067705 7.019957251563625
P 5.582842977686119 5.315180211714038 7.552972860719839
P 1.7037912681065452 5.313993747412049 7.9542213902603445
P 5.943440115703902 1.207871076401602 7.699301765531438
P 8.025506322582915 3.7880484251513127 7.2261040028808425
P 6.181430591711815 1.6697260806931167 5.527087854573117
P 3.067005119786314 8.333026891692425 7.725008131814745
P 3.7080235818642904 6.261977268877825 8.40204023260484
P 8.401043144353446 7.761504172134466 8.21383629070671
P 9.957337820574725 4.464889642589253 8.10595020052257
P 6.2438188374967964 7.373972531289689 8.170271361224382
P 4.405379833096263 4.094071422241086 10.780602066313355
P 9.290620490558835 6.104408389649006 9.467416318582483
P 7.316352307604151 2.494227764907003 8.889630535982208
P 6.065038626282934 4.232557598004974 9.472709364676776
P 4.147577982015741 6.260516602713079 10.61784448977889
P 6.245974994818204 7.220232638305452 10.398169505936224
P 7.528009582149481 5.411751294937428 10.69208314986309
