45
Energy = -230.7939279 eV
P 5.629708766000043 7.429521170766794 1.0081178941463507
P 5.393264488592582 1.75643879902469 2.6041849317458334
P 3.4878938431120536 7.547138237881522 1.701679028018734
P 3.5937873436533585 5.522614301419536 2.6416701567016996
P 8.4396135588966 6.103661685379438 2.421767867115816
P 3.4373807175776987 9.163652584298598 3.261543076015451
P 6.65106219341997 9.067741365693102 2.106658082861266
P 7.017181880755537 2.883206643208138 3.8564310744570545
P 10.17655657256593 7.004749875058279 3.543944539632032
P 1.5581076917188685 4.997815293932966 3.5363396605469495
P 6.514866273284632 7.046105947449605 3.048288775071594
P 5.214674199475003 10.355897501509322 3.0812854555593603
P 4.424663810049841 0.33536079247918105 3.937453799827308
P 3.807883657133704 2.3599543689825944 4.0399770706956
P 3.95503403977184 7.978089684007851 5.090065991974552
P 8.056266117934324 1.62376443923592 5.302548606687981
P 9.324760344200982 7.950122993941706 5.369774832586797
P 4.69156889123181 5.806375589598643 4.589567479919011
P 9.405927798159633 4.924914985479228 4.031284022366379
P 1.6593231124815884 2.7457764219354104 3.5733340313892987
P 2.5377669912378007 5.3177417953444746 5.480211560000278
P 2.128772482727924 7.351032054674628 6.215907922142826
P 8.486047492825659 9.963968541872847 5.430520035368221
P 5.424984028731652 6.1512057138316 8.046628069389476
P 5.551506881169657 3.254956870155526 5.634197061643955
P 10.886720646908703 7.455823866302648 6.845004428513529
P 4.889217459543772 9.543187587470335 6.41947069076703
P 4.099381564703503 1.2809400781972666 7.987990730698116
P 5.810566317140128 1.0744903041341536 6.319847973687292
P 7.1488983701981335 8.97431811314653 6.799229508974477
P 7.598264339550454 3.306534612216662 6.711910898995618
P 0.8226394877523093 2.4950290017646837 5.562038444674904
P 7.392760333677559 6.963669534855895 5.7362751399397585
P 8.692571826875474 5.177045951634777 6.18938552493597
P 1.7669815382178273 3.855937482303071 6.963192631315415
P 3.939381811507953 3.3780554724454923 7.570321065952434
P 3.381377853538088 7.012711320726038 8.091223740336364
P 7.509326580716708 9.035028317266567 8.882601323246215
P 6.31835031999807 1.2021105950928241 8.490919625897476
P 10.334567954508815 5.517133503816862 7.51297854730833
P 4.0748863358102705 9.09703762705447 8.455293091839625
P 5.758993016470414 7.9408222538710955 9.502151150007423
P 7.415490383297101 3.062586176072668 8.829202888941369
P 2.613822366694146 5.843904015347326 9.665923147871814
P 4.468276694180574 4.632904907118531 9.402736798230766
