45
Energy = -231.82127917 eV
P 9.22702674837795 5.8138058406659034 0.3458898497851295
P 5.304446092746053 4.365635464313363 0.9053404964877276
P 8.31161377470247 6.615708444079642 2.224507255578794
P 7.6473832971598315 3.0010626365946815 1.3224756113836196
P 5.098796987587943 6.590523196374374 0.47140213014919885
P 8.327500149196812 7.665486993939524 11.252284957723168
P 4.785618485491003 4.90756541110022 2.9428938080118727
P 3.3049022449297896 3.8488168148001636 4.19086726234484
P 6.750777349081164 1.3599648304501963 2.4648995513909147
P 4.051578822130307 6.89876149699632 2.430599724172304
P 6.808004554814158 7.884884321094771 1.0963067049697541
P 1.8150144020203578 7.347862924691347 2.4691253685759786
P 4.634923508214072 0.8737714185393571 2.1103620293300045
P 1.72147728465226 6.727905518300193 4.646705009529879
P 3.9358380447732384 0.37538792997418535 4.189615010221884
P 6.601797771894882 4.4184667777944115 5.032349383678963
P 9.276930747446748 3.305804352543899 2.66936794091819
P 4.639313328360994 3.483864321935006 6.023007015790294
P 4.937359742559095 8.228757299101932 3.9237784679635643
P 7.9413258626305545 4.241633740872545 6.784628532577061
P 3.802662214292464 10.132251658172434 3.6989344377593723
P 9.874171466081252 7.779065847566387 1.0792635415561354
P 1.0849822023451832 8.638131980584063 5.602171839801557
P 5.346182285614156 1.3537682891516725 5.716704216049174
P 9.062909015376231 1.9344648044656059 4.497633494218733
P 0.6490525994629239 5.087991486585838 6.0341785983055365
P 5.409016463646595 5.337734141114836 8.445182895725397
P 2.9466081579517645 2.016076182751902 3.032866369811479
P 3.859248649507255 7.023738511197936 5.476691324902588
P 1.7152964775475763 9.350990551997883 3.4096512745725454
P 6.905855363618318 2.3012521670746664 4.440256447809239
P 2.1397443998874692 5.668674844480484 7.556347108274427
P 9.677954704097235 3.1018537380223674 6.22667807507023
P 0.16517338309081808 6.6359803468740095 7.428020773629866
P 3.881399553844739 10.611925049652251 5.808195208104161
P 6.405636017614436 3.3016922578482975 8.280691881354219
P 2.9048679450023474 2.266158383639747 7.920886704691789
P 4.746429048694162 1.6399098173599338 8.8360718334047
P 3.0501985642660094 8.839026712424424 6.681710179033403
P 6.5046103063129515 5.8089028211033265 10.343846223016564
P 2.063473982716763 3.9716148631359394 9.093843165344854
P 6.969223252982422 3.4118784047489163 10.469314492825815
P 4.014773317307357 4.633261885407934 9.953106186464847
P 4.891041494028083 2.7212956645420325 10.791497468292036
P 4.57810916937152 6.2469390893660455 11.252284957723168
