45
Energy = -231.28764974 eV
P 6.959959875972739 5.784910722342652 0.5948211547887685
P 4.447984660724388 8.466362502450039 1.2509688324177461
P 9.107266460380991 5.336805539174671 1.25174804133298
P 6.204249792730327 7.206866615034369 2.0777465035361486
P 8.134071279604475 8.359546837159911 2.5914859831887336
P 6.358348697252765 3.8027672441238773 1.5536679358128314
P 2.6932443975972618 7.349724794753008 1.738021633156006
P 3.4245167450116787 3.6916313867454496 4.243032680187533
P 5.466415237244357 4.270621334587294 3.5395343868959364
P 9.47076596805105 6.676671166577526 3.0153726954769655
P 8.375319459703405 3.6267436780403455 2.548587385500915
P 4.186749706813666 9.57996023661078 3.4657827104242727
P 3.4552166449872126 7.4967232216217905 3.7067612340187748
P 5.665939090661061 6.387944035816561 4.008669768309532
P 7.943753711053641 8.99464728094124 4.729162136985283
P 3.7017361926387844 4.967948469128356 6.121279691664823
P 6.056784914103142 10.215407384953313 4.427546643542764
P 4.177633273762672 1.6699271577652812 5.03625791555079
P 6.702233829062371 3.904220384767698 5.624569113032862
P 8.26979103472152 5.172702412949972 4.36785373551372
P 9.949934972762719 4.1837277173241505 5.5242626032254325
P 10.002250437217837 7.384256228089438 7.106904269435489
P 11.078322196283134 5.679211752476475 6.620755765661877
P 4.389839212651919 7.973892144434658 6.480741817754462
P 8.222839592471475 7.087997859476646 5.871973570620897
P 2.5021973916438234 6.915874442013273 5.763587740546658
P 3.501801550936421 1.737801324241341 7.1823432816959505
P 6.430886004648109 1.7346841431095583 5.179476111550053
P 5.293275470286941 2.0043407439909857 8.484973293694583
P 4.387080993325773 10.102173127705417 5.895714223262912
P 6.70058537677541 6.3922322365056985 7.353353490743771
P 8.424210276484809 3.4576002959108902 7.152561973475163
P 2.284143345738136 3.6263418762869377 7.31967190789849
P 1.9320375312189022 8.916974198794597 9.202372975923586
P 8.324422004986234 5.238537125820773 8.503719095722674
P 6.744020524337037 8.066157479234377 8.829298164540797
P 3.8851738132588847 8.220890935558392 8.629570984989826
P 6.919386684236373 1.315568364941794 7.313120954275347
P 1.8815771721752663 6.897941051078382 8.526118930170963
P 5.0609901507992285 4.571799400848594 8.700418493947229
P 6.5267239678082865 6.8724259577745475 10.647150239834419
P 3.0867679384049462 3.7698728916883324 9.438972583464649
P 4.398619270757844 6.466925890494452 9.856346351823962
P 6.849180566689635 4.664478695121724 10.085214568099754
P 2.354709780857632 5.689118910368916 10.371463625138006
