45
Energy = -231.83128202 eV
P 5.727310171285184 1.9037340735580186 2.432103105971116
P 7.912979492180601 2.6573510188523617 2.9059880204273685
P 2.9955304654668646 9.498452674312176 2.4190006573828895
P 4.387041011101626 10.931214090388721 2.7945642799903196
P 7.449231051200722 4.893299115240857 2.6633705185429233
P 9.329288013313226 8.120551079709935 2.9902716135583787
P 9.231446753882102 6.069627223083762 3.659511686935614
P 3.098292365570922 1.5772239046887715 1.63716516133522
P 2.219548887057754 8.7670278352421 4.337517174235508
P 5.144025909053164 0.39608967874786943 4.038072624145468
P 4.690739111271543 3.7846894031495277 2.8832005059583645
P 7.5319093198057505 3.0511231191443837 5.038241831127951
P 2.673935350916155 2.882870546563534 3.3248951393710757
P 6.359421445546083 9.398303738265172 3.959236295663725
P 2.9794434123316114 0.6675763656342634 3.6352736400506505
P 3.132359810619284 10.080324680305663 5.85909745229754
P 4.999816154040489 10.950851806644986 4.94864735950421
P 3.059291564353659 6.6945316986053065 4.611880871128074
P 5.005334637067948 0.9658950377064307 6.188638030453262
P 8.615669799538303 9.65761127505398 4.340970297047815
P 8.384974922578166 5.879444244567046 5.710085913075963
P 6.0723428894474045 4.748667061199258 4.42495350201229
P 9.467115573703122 3.839676671915143 5.801745140625527
P 7.198552299181065 1.2407577104766423 6.310192969681781
P 9.0975017974499 9.284162577898986 6.553594234797521
P 4.635951106348563 6.752948699402372 6.125687559590055
P 1.5882214836974777 5.947684063708362 6.099900904969355
P 3.59824463224198 8.381868887328976 7.2323756491129325
P 6.501752486840431 4.300431853058892 7.8544368702898835
P 4.245985872044629 3.005377182580621 6.604131232039652
P 9.8535763276348 7.1596919410883855 6.801627910625825
P 5.9295401194801 10.592437012785215 7.93840384665541
P 7.374070327029034 2.230038141871147 8.280774664283278
P 9.423028450075 3.1523279303947502 7.961184313228734
P 7.03494651361253 8.88810382057793 7.211002931685889
P 6.443714275288375 7.702933165677976 5.353885357151284
P 4.423874882607113 9.418721979258866 9.005468201593647
P 1.9719995343722763 7.053507625517848 7.881311487820318
P 8.319164955141453 4.735601241224509 9.090401735643761
P 4.172800009613195 2.4861533946426557 8.641261193042386
P 3.6816037092477147 6.193070788754294 9.462884699635838
P 7.3513815249860635 8.059894876025663 9.192830260604712
P 9.190996625425486 6.755254663943825 8.93486270667027
P 4.950529778872802 4.389899742833329 9.500759011979715
P 5.296806381149723 7.604287562039397 10.109882641727992
