45
Energy = -230.25803629 eV
P 1.7330031442763973 6.79600580923106 1.4743444390846392
P 1.3751205700901152 4.926687278556948 2.5584556949507844
P 6.22702533946251 4.643021248486696 0.9506337376141105
P 4.225816212070258 6.040732712790967 0.8542097170249993
P 2.111152043339106 6.73465517627884 3.5779094529655437
P 6.910929805588164 8.340027868197476 1.106713895126464
P 5.051093208466657 7.758998342481724 2.0211044889012113
P 7.913926745592693 5.804420747984449 1.9949099550846945
P 3.6004358964102057 5.122520824656532 2.7993425255924986
P 5.19732068652376 3.3753741584632815 2.3697015906022596
P 8.361649441897605 4.279943791922473 3.6677096456294684
P 10.100102030578384 3.0711212357840743 3.8884918684689604
P 7.606216972411542 8.86590321316074 3.1583206976004803
P 6.057104516054656 10.207818985093546 4.105840841457182
P 6.988612451282255 2.594052150503754 3.362171448884923
P 6.614720531783573 6.870393017783044 3.565849239648667
P 5.162550484099054 8.62714416169785 5.396748148557674
P 10.01221913952383 8.568854228447885 5.891774207746709
P 11.133064595805422 6.879574489265194 6.576669878808919
P 6.845627939818619 2.1179845699036504 5.502651488689044
P 9.16827334736127 2.022964878322713 5.572821011944226
P 0.1841728734157354 2.84613724453748 7.749014934061168
P 3.2180609960373427 9.453322385339014 6.359827870049813
P 8.04635487812714 8.17977011091599 6.522989992849607
P 6.705104672243423 9.939529771394271 6.243836451086646
P 7.73920859219853 5.554051699312209 5.374747705776274
P 6.445748915410902 4.127769034061439 6.448907100281462
P 2.1199523740204356 7.516961784147225 6.985537233005615
P 0.4134379923457044 4.813805709622045 8.444997520694074
P 1.998582103669025 1.7453631608941444 7.836936671531636
P 3.2857734860363017 5.605443587469908 6.540265906055758
P 9.67485467780052 5.4968093621892224 7.440940392019264
P 9.644440143499859 3.1341236599200277 7.4261128196071455
P 5.19226291629649 6.4661615705863476 7.340156857674034
P 3.6821639854091113 9.935106478645464 8.458680231116167
P 8.807492804134489 7.061653020506124 8.72753796041583
P 3.6590546534878756 7.822254177508186 8.471039365742234
P 10.154844920394416 5.36276347629329 9.6393342689085
P 2.5672252193621854 4.794422602370391 8.58982689649153
P 3.5767989428200937 2.8665984254824464 8.64764935945569
P 7.613509790156154 3.139156560987944 8.219522371036678
P 5.3940571440986105 5.348729237565458 9.268527811285239
P 8.268079059742808 4.233157048637489 10.127369363492068
P 3.4792024675397144 6.207505159624188 10.104343631306195
P 7.247840952435839 6.215395506095462 10.149712974792672
