45
Energy = -231.78603737 eV
P 5.351147091363699 1.2642082507205143 2.8308540395342305
P 6.172292231707418 8.101024514088254 2.4961281090630765
P 7.370647623809788 4.118736204250544 2.2880347761803304
P 3.064583612943845 1.7045763938792193 2.845479417118214
P 9.715736535478518 8.371211918975227 3.6415924121948753
P 5.300338680369734 3.2746924352402083 1.9257022014481078
P 9.176440825761889 6.2503125709229135 3.863544276783034
P 8.14996860011192 9.217360421540365 2.3588728268266865
P 7.159710248041478 6.216207296677307 3.0646801816633045
P 5.185360942266402 8.104892889041546 4.6852399588194205
P 3.266668431395755 2.6425065760261437 4.884109419542203
P 5.1630248605922 1.5260070239525612 5.067946751036715
P 3.142297299246341 8.245586005955001 5.88529270128323
P 8.007747256812587 2.752733359781842 3.985797366863518
P 8.015512311337895 11.219319394492006 3.1068122164297334
P 3.4882271678138492 3.9067618299240263 3.084114022859716
P 8.052952387390494 6.0164334272759445 6.091524827941241
P 5.844880805484909 6.042352773226279 5.025288169328569
P 9.933608138812215 3.2618886920029047 4.843126661372735
P 9.509111946814503 9.521488418250648 5.616121873480405
P 5.721116529873761 10.287898305870561 5.255403081636307
P 7.836640678840615 10.929597993483844 5.260383081093335
P 2.806210807097942 6.0739231158457905 6.1693821959293516
P 4.8865662970050066 10.52165859348507 7.336468973252641
P 7.093856385702258 8.317852998160165 8.420787943558167
P 6.53202814313583 3.209525234539131 5.594160483202305
P 8.882707265428477 7.9684290677181915 7.082323505092429
P 4.647379573330558 8.285297175640222 7.50491481473839
P 9.402052198659291 4.173653928643394 6.71613648756797
P 10.550624888015369 7.5273227324866925 8.418117384513685
P 7.842693503222384 2.7215993500438964 7.350952287090795
P 6.474770844430331 10.493692786884337 8.883149282928136
P 4.945878945293271 5.960482742485704 7.136973106164754
P 2.288324829499313 5.461492398965568 8.354295551385338
P 4.052797527569998 4.116018731499378 7.983243053368933
P 3.4947243788037157 8.700710764063562 9.333742639819075
P 7.00926531964613 5.960360924611792 8.091969056179819
P 7.250622969966327 4.04990518179586 9.10128906365002
P 3.0528756978943745 6.6883465548113294 10.185932784590305
P 9.647326268196622 6.694031335583486 10.147105011699557
P 5.165866554060779 9.581634897350582 10.547892531752812
P 8.143347274616463 8.24121940786332 10.364733079888545
P 4.93835095007842 5.832102434336621 11.022849831943725
P 6.23187634466136 7.710912183181612 11.381125938841516
P 5.133984476240347 3.8361764132506417 9.868552269167093
