45
Energy = -232.72263522 eV
P 3.96463772741523 11.589900928011936 5.4004102297934695
P 4.500667463856384 0.5766513577066459 6.4672911968787385
P 9.277385390345698 6.732054204309514 7.280914638510227
P 3.8170279697718708 9.581387958312542 2.408966542181714
P 5.8990076432524905 6.3647320236648275 9.098314890957672
P 5.718920777420259 10.583205693837701 2.8632732223899944
P 3.13868785036928 5.400123590220671 4.5605132586222
P 2.5783688404797345 10.29832240597337 4.123508097458287
P 2.133892651288162 9.14207760540089 7.258619297880227
P 5.819394730343805 1.7422336471148783 9.487681253972204
P 2.6372952770044877 5.52667667627932 8.014476457110417
P 4.090183015258637 3.048101733865675 9.074568924829645
P 2.329913146202923 8.392207592790806 5.18216061030042
P 11.215577134705363 6.741407905569168 6.25685053367338
P 4.422825023746414 7.49968667967025 2.9055344847956297
P 10.566648158388393 3.784772927204801 8.057543842350677
P 5.288167894618179 1.772789533882046 4.5779537135507615
P 3.562566504354423 7.484851825760187 7.7179055318394685
P 11.52116882649801 4.526991551697314 6.126607810309605
P 8.998659591720818 9.026894610469224 5.129878933493163
P 2.9140456990704893 5.967163805322669 2.53445457787145
P 6.176023490010208 0.5353266428865279 7.82943670301048
P 3.9359861998706753 10.532274448632359 7.379416188603801
P 3.000278873547556 1.7016064711432273 7.690170699031374
P 8.83143657788912 2.5477761244825867 7.354328186181497
P 4.214604452880861 3.6005620132164555 5.358731011202284
P 2.260982369053765 2.7964495567942094 5.859042059173077
P 7.418567599866767 4.771729889051583 9.305547058705455
P 6.040207728845015 10.85383412902925 5.092426459265133
P 7.1905765170328815 9.156301760909077 2.073503684998976
P 6.263837673213027 7.2993506094420635 1.8416585411168123
P 10.199971478045786 3.9785655479748345 4.390676967266256
P 6.725606493799139 8.48820529300248 8.206133445711513
P 10.139749315880918 7.309883235342737 4.369364127421818
P 8.713742407464261 5.562380162816721 4.162445585363917
P 6.973899928724571 3.170641330656696 4.840073283857939
P 9.019177807179165 2.201177512596975 5.12941972654361
P 9.52651271031552 5.532672155555326 9.118668244061444
P 1.5675937476433661 4.96274391727584 6.102587089035383
P 8.841875752096838 8.86431846534015 7.368857598851587
P 5.471275848147641 9.167051503594266 6.509683295736633
P 4.329560000194891 7.329721660576927 5.500116924122705
P 7.616748819501641 5.94982756701107 6.047482530980149
P 4.81719187937894 4.743920396216746 7.729146756889015
P 7.188014375355845 4.0199085124757765 7.072118748226602
