45
Energy = -233.15033434 eV
P 4.486907856341621 10.45584960254984 5.09904409012961
P 4.7641645286038 7.420663203436296 2.989465253122658
P 4.171524951234347 4.681170302563081 4.298669371708023
P 4.207078010987015 8.761211531498274 8.395002388034843
P 7.3874692135955895 6.92638187209203 9.336615507647947
P 5.277826761195361 7.08513464482077 0.8306961511192081
P 8.18991318867917 3.3432478240754797 2.305489030003872
P 7.169638995874693 5.254210986099546 2.8571570934625194
P 2.6317157048827515 7.150034266331185 2.284727602370714
P 6.537676205976731 4.642725471822044 11.212513121590337
P 7.216323173065379 5.882850476531845 0.7250525345621205
P 7.069237496140637 2.5706983492369178 4.150317154026128
P 4.789856627449793 4.9904577167166035 9.931819854989758
P 0.22697187977531813 5.950650731571668 7.721983207625008
P 4.304446548094542 10.668361197438895 6.698568524677293
P 11.247821051770606 5.357649433582489 5.638794304335237
P 4.930529300497592 11.294497391449253 8.725757847206284
P 5.187285623526308 9.611371413080274 3.1536700193720724
P 8.401411861874973 7.012790241971884 5.650432807787524
P 10.477181620539005 4.29453019102131 5.382589249289201
P 6.0461853697958166 0.4844683261965169 6.305771021354935
P 6.227353628130103 3.9561686691037403 1.3677453916484095
P 9.460591977844075 7.394557538012669 3.7167858750248337
P 4.913197231131742 2.3974428040004363 6.6026036595133055
P 0.38341504128850634 7.427783792637839 6.050242263950223
P 11.04924711394893 5.87142221984217 4.041748209776119
P 3.155594579844078 9.242284320180252 6.416605785326677
P 3.4782058670223965 5.72262136968579 0.7180855922347781
P 9.336924668312298 5.407044176621093 6.790059021260886
P 2.628604786430473 4.972152822830463 2.6768913670551577
P 3.316551243558913 5.598572399783908 6.177758287177916
P 6.253473630923248 8.220305508492844 7.909913263754458
P 2.467891933645764 7.461360699647651 5.305200556356312
P 3.4575944109767027 0.9556693549557275 7.6720123784961265
P 5.772979432515052 6.737381573299462 10.911979418106245
P 6.813289766591361 4.765897165809139 8.974877416493348
P 10.053727555465674 7.562688715895475 6.9901112081213865
P 6.6236037821345715 0.40302442662051047 4.122784470137275
P 6.58527758676863 9.675956166494183 4.9323847284843465
P 11.247821051770606 7.8368203129430665 5.04094323948267
P 1.493060926682452 4.46173807070744 6.662713079798817
P 3.6813581616822564 2.5018070559048273 4.716058479263306
P 5.891597574575918 10.183571062922267 8.538892907842248
P 5.204611204778039 1.8378251361474325 3.2056459198502716
P 6.268090337433838 7.60575161393061 5.722301238523304
