45
Energy = -229.72397331 eV
P 6.392549730945717 8.316876954541682 1.7438478749562154
P 7.543489139423111 6.347128528490697 1.4550801827839037
P 8.134679665601855 4.038915340308812 1.73605295170135
P 4.22282352799561 7.955525881018448 2.034123605718164
P 9.390247156392673 7.3650068392255275 2.1152772386227237
P 4.528901360729537 5.754384861926853 2.027748068507983
P 10.749029671215794 5.878178844104659 3.1712116973496847
P 6.4282193193703705 3.44629742603429 3.098722754730122
P 6.822759360614854 9.488603674625606 3.538903147649601
P 9.533968316746945 4.026332409737412 3.4095508239015273
P 7.635004219336221 4.391994573031975 4.72585414815147
P 8.991547723568287 8.981506456744084 3.6544912513178223
P 3.4321215231371105 5.089757874534642 3.683823854919538
P 3.838575459122205 8.246592114336519 4.256126627683072
P 6.5541453617544665 1.6059837793977014 4.52904958906315
P 2.4257710456153085 6.689282479207006 4.666458026784708
P 3.1831878738390205 10.11453580721979 5.132857598824843
P 5.380701517142097 4.78365274780008 5.790636971054107
P 8.118157217803544 2.461556921135077 5.829861151778934
P 10.750172712358506 5.76754083763265 5.421505421291399
P 5.896822951851512 8.370084764768478 5.272164609003542
P 8.590666944397759 6.155615613557689 6.1799932223581795
P 2.608067563724762 4.464039137354156 7.217989285447788
P 5.055828693419709 10.25556422377251 6.1940245102412765
P 8.777627409547106 8.375529399126938 5.753888046968076
P 5.235017482605652 2.6123384229793736 6.2532759006632626
P 10.857154583893992 7.787051476486199 6.4400630241175145
P 6.742381538868828 2.2671921648972155 7.799774090374241
P 5.069104764084671 7.080130624012374 8.116560047855875
P 6.643917100498102 5.568435492388102 7.354697898242642
P 1.3396552443647205 7.176531387630429 8.092118751837656
P 3.297342280881427 2.299767104290038 7.550743657797951
P 1.114901359117739 5.1304574661188065 8.85323684256064
P 4.062931389240417 5.011676110640688 8.796411702142265
P 5.163079077256383 9.966322234712049 8.733848481910194
P 9.783415270618137 6.568256365278245 8.053538827545541
P 6.734064763107818 8.596123947454046 8.119988731955106
P 4.594161105658823 2.8752712324877296 9.221151125637187
P 7.819814343848768 4.101697068312356 8.520226476125769
P 4.446563356063108 8.18265755567982 9.930789905310371
P 7.02961263556431 4.589000258238636 10.519240844938215
P 2.242747030343377 7.663987258667857 10.037712783614896
P 2.6550013203851015 5.490332762572671 10.492776288184027
P 7.465366227451203 6.5975949676261445 10.859163113232626
P 8.521707859800314 7.8676928092004115 9.418443044450163
