46
Energy = -236.6553508 eV
P 7.122409965168363 8.889037542416688 2.6499323382323854
P 6.302258263050462 5.517464010632059 2.4251928559317473
P 4.9188954926207265 8.67238840481878 2.940869701699836
P 9.593014856686615 4.880725908823461 3.9297207809480037
P 4.613995843342102 4.488733427585593 3.5359077397860115
P 7.681925731602414 4.188025226685002 3.4917862673551903
P 7.463823442504933 0.1763041823381259 4.050133167418065
P 9.884618907801272 8.412777008968204 4.417875762835108
P 6.365210931807672 7.222602188191527 3.8768088178575852
P 4.150226976765657 0.7623233475162543 5.265158977271016
P 3.6998994255483337 5.997906735471371 4.762157837521036
P 0.899347612216061 7.220133618572134 5.463995123745715
P 5.22001852320256 2.821098374791506 6.246518105708402
P 9.546659142144682 2.880866770738437 7.27233762680552
P 6.112218398201175 4.457505496466655 5.012055994143079
P 2.6848851233772186 7.936745326536193 4.872234213756812
P 4.490234512019594 9.005683404106303 5.004809341715008
P 2.203361049097721 4.912280987336182 6.005576164467178
P 9.173591745417562 10.2979945148081 5.284716037836412
P 9.25848427443805 6.484872184822156 5.250793699018021
P 8.277144395199667 1.8703555503085185 5.826055985316587
P 7.0534155548270405 9.739112088462395 5.890211615083881
P 5.912074052601946 1.2643968738311995 6.322037877595233
P 4.777332177368978 6.097741975786946 6.69739299438583
P 0.86462113663968 7.9595094896137795 7.611784012464714
P 8.064532327276313 1.2643968738311995 7.866619521453353
P 3.9185654956696774 4.274913074542188 7.282535278895188
P 5.670236813268514 9.086288917241905 9.600170865378114
P 4.205084219427719 0.8740498518374553 7.530475641971688
P 4.263276465256486 9.150706293184095 7.912783304231249
P 8.197572073006707 10.273061108995668 9.556296398021486
P 6.56394521447545 3.0275678170386113 8.042151631222376
P 2.7836351850158767 6.859824839893073 7.168877123125136
P 9.222105054641023 7.453078895777952 8.155056283850794
P 8.098071105662545 4.457505496466655 7.786807481695545
P 0.37013500021011964 5.9735250292938655 8.542871189322426
P 5.40132656645934 6.048820004055263 9.399886232305558
P 10.090236197280795 7.303668123754521 10.20241015469215
P 8.093051897157213 4.363689080715116 10.057293327096708
P 6.401229917007262 0.41842209531806807 0.25150390760186864
P 7.921620014841854 9.477116942975195 1.0685927218873268
P 3.415295079577176 6.380674231689914 9.616695666283777
P 3.602445395297323 8.593027453929178 9.951925782717964
P 5.844983793502273 4.090893554648371 10.031408547075007
P 8.349222141557131 6.169066911524371 0.6673955834468908
P 6.575937195836893 7.471567998840004 0.5243550049031761
