46
Energy = -237.95001184 eV
P 6.881440405792493 6.878431352690605 8.886446166700404
P 9.730632217202169 7.488239502444097 7.282224068009447
P 9.788565808090597 4.127365124026218 5.933225146440623
P 7.384135569942334 2.23668792752321 7.8626957155808475
P 8.095302447837513 4.598414354175258 7.2692721701526235
P 8.102665872136987 4.458264542758491 4.438232977549524
P 8.219339751303144 6.961665527421934 5.714933259850515
P 7.594994604136584 2.435715496195535 3.585894577876498
P 9.214262967041435 4.996200845054891 2.509820515138491
P 10.386937364690144 6.249771147939956 5.555319567067183
P 7.525541144538221 10.065689223564735 7.665810852298551
P 8.8474843555819 8.39942579212285 4.1310992692377555
P 9.161722097776549 7.210446048682702 2.2563582389616874
P 5.711770838352667 10.284444882490632 4.908869646842016
P 5.669114366011756 8.316524484843056 2.3157701137943674
P 4.222044431975993 5.770554030271606 1.3667819184523995
P 4.584281389119187 2.119204467016563 3.297256456744893
P 5.8668646838579 5.866851195048401 2.8907369063575348
P 6.064611230658041 3.417176396834934 2.315848551554515
P 7.511684181530794 5.9631302588032655 1.3668052989386736
P 6.021938919923336 1.4493004975320816 4.908908111512602
P 7.149416301809177 9.61448359310462 3.297297184043619
P 5.922372867484665 0.47055029107071106 8.475036642609414
P 2.8862095643001515 3.334287911112269 4.1310909729362715
P 5.716122823513412 2.9802867523777006 6.539301974456021
P 4.208122606974403 1.667995819719301 7.665864401153928
P 2.5720200914962175 4.523281230318555 2.2563227911277735
P 2.0030511437505636 4.245432719283122 7.282254990588034
P 1.346709040010021 5.483904090624255 5.555260738747152
P 2.5194543333267174 6.737484198229298 2.5098190067201567
P 5.866809626583867 5.8668428987466 10.521041653959067
P 4.349565137822533 9.497051418825682 7.862674597722394
P 5.259680207166178 9.574852987806743 9.873004222310861
P 8.979540037040206 5.973017611523619 8.75893746406135
P 7.37493786947838 8.931583757789198 9.60535375189057
P 2.754181034374113 5.760750394776365 8.75889145729813
P 6.47405594843276 2.158850156498911 9.873007239147851
P 4.852301029271101 4.8552408690366216 8.886462005094044
P 4.1387332551608775 9.297956725531844 3.585845554276287
P 3.63102804774522 7.275449160476618 4.43826540854661
P 4.35870778101262 2.8021480464675377 9.60537034449402
P 1.9451281117916066 7.6062671246116045 5.933221375394304
P 3.5143602022527194 4.772021778489918 5.7149302430136855
P 3.6384367245984235 7.135284264875393 7.2692940422204035
P 5.811299934538766 11.263175479512208 8.475042676283394
P 6.017608806830212 8.753485779177447 6.539287644480717
