46
Energy = -237.8649858 eV
P 9.652195272610319 8.905086155046531 5.595602436774167
P 7.748218342861287 7.822053875045994 4.598634275082136
P 6.077409395433718 4.480983297025275 5.059920335984407
P 0.7106250127453999 7.482459029757305 6.598936733944704
P 8.949345329243561 4.99033869058149 5.457285784261499
P 8.949447715191578 3.8448298691863485 3.6986787599638578
P 5.29773520141981 5.714661538656523 1.263638150431807
P 7.601972745600108 0.01764251342858252 9.752937432002309
P 5.410743046984061 7.328498540441131 9.86272267793088
P 9.27789122639668 6.455596911273662 1.4847937577793957
P 7.464391925669298 3.5032991496020536 8.062803050556688
P 4.562094977091471 4.149822065898432 9.990694781182958
P 2.687349101123493 9.095366283090133 6.932806374798576
P 3.358407230698207 8.863775841832023 4.82417409082755
P 5.191179541936251 9.99803117300172 5.058704540150933
P 7.593006920966847 5.7210721467241 8.266809732014123
P 8.164898550279105 8.31332765487223 2.05144298814663
P 8.88551976097117 7.45954089191756 2.70832125002831
P 8.327732270010548 4.963600852548312 0.089104515791528
P 9.760597689754208 5.245923174038649 8.492770109414652
P 0.784825015901558 6.65606094496789 3.197012928997434
P 9.453467091133328 3.537924708346187 7.0692040396929645
P 4.077341804984849 3.886672547290906 4.89701985680577
P 4.60336112413483 6.766291325857236 2.83997154019662
P 9.947630952520138 8.409791708337387 0.6479036595342197
P 9.400543352313528 5.35149311843793 2.2078024251987474
P 6.739166396640509 3.7763507712870314 3.179237139191587
P 3.564223358491131 6.931964356296354 0.75943361561565
P 4.561251204831427 4.676277841876138 2.0514429881466323
P 4.1363247533394585 2.649686915094564 2.90343194084838
P 5.9581889601003875 1.7819127732708868 2.951605149595129
P 6.176053624855143 2.7877915817239582 6.4174100279401864
P 6.237163316520592 9.009429622738136 1.010024533587276
P 6.006931692955508 8.990389584785042 6.86110698855219
P 0.9138045442092647 5.788874039573948 5.182685598820488
P 2.67100203862746 5.724609294499726 2.565503375578922
P 4.367506055822119 6.8470163494078475 4.992578529574478
P 7.151624017650127 0.6584145303281601 7.590379979170567
P 8.68977577354579 8.445715112353913 8.922109790056318
P 4.12753153318398 3.270972638038386 7.064272912656267
P 6.414053921399354 9.09555548477107 3.541551081987924
P 2.8249162015301086 5.249979212429222 9.463818417565063
P 4.332892228850373 9.379036898390497 8.128451003099341
P 2.620238598740142 5.454094168151017 4.7400911639337036
P 4.56209497709147 5.198130596837954 8.06888314442407
P 9.312392403780905 10.070622546854045 7.497874612354072
