47
Energy = -243.5427573 eV
P 6.895735936688173 6.059483682284775 0.48706984886688237
P 5.504353108569488 4.727084020597826 1.4659574868275427
P 8.780863282421823 5.174910727171105 1.135996228928006
P 8.509687528666273 2.947347267298733 0.9914977854643559
P 4.720440578735245 7.1487258828581055 3.299987972724536
P 6.276816051819808 2.7193026090189187 1.0490453928972068
P 2.7392612065605584 6.16365105719646 3.508048936161473
P 2.9789774507007962 3.9330734739392583 3.3798653476248
P 6.252128033091262 5.3809838350529935 3.513240771284043
P 6.616745458243339 10.062074270666075 5.003349167523975
P 9.352398540035713 2.1265743780416884 2.8451548974959633
P 8.277396763980889 6.182101977834598 3.035495225385283
P 5.904409448346104 1.5911613902247335 2.9668351119725163
P 1.3390045217235182 2.9809983611692137 4.5825716966354095
P 3.4385595355804095 7.600239832852249 5.072247534255773
P 8.47502023857127 11.250436765138215 5.473853742748939
P 7.296499514233764 4.016877831896168 5.095097689653739
P 9.345173333599087 9.093601247153106 4.888823057904839
P 9.233998358282781 5.0112619251054245 4.8181705526422665
P 7.735915755742011 1.9313474730830449 4.165107792410385
P 2.890375105674363 1.3497971959481458 4.824194012797427
P 5.121822281766818 10.303715362158231 6.523384625894784
P 2.4583278678468132 9.001564845356453 8.939720901064609
P 8.367100706213245 11.291413665884438 7.717578856549007
P 7.696412770958875 8.316267424035226 6.128601292094674
P 2.790082131880859 1.6534340166468486 7.081323644753747
P 4.5946910732954365 2.778607162793336 4.413287034724085
P 6.1506044555620045 11.541163103031518 8.038058499034792
P 4.235645203088618 6.533268425460465 6.835411856968537
P 6.235847721399442 4.054677230632825 7.096617561125118
P 6.584221456795843 2.025109011737962 7.982797183519419
P 3.4632440062004863 3.7861632970679793 7.007463432231451
P 1.2890631105372605 3.326733964132753 6.848843315952368
P 9.18552851755021 6.501639078880858 6.469194078782214
P 10.843863032937747 7.789720657699828 5.7732127941279865
P 8.758240255613286 9.157048061009363 8.004157919653045
P 2.479498303765965 6.939014463323874 8.23483918914731
P 5.652871915722222 8.072841896289173 7.519924022404129
P 5.938743162012552 10.391855550082242 9.976389905286299
P 4.510809255543844 8.808862823047615 9.35008029593088
P 5.764631294252154 3.0078289090700534 9.788994463575555
P 3.3449808980117 5.889910436009117 10.023896495925365
P 7.613260248370643 3.8393419481482574 8.80699612049822
P 3.697144912052879 3.7840084506783955 9.252936815968939
P 7.683679578986028 8.831550352509614 9.90428771021979
P 5.186104000762423 7.056365454660564 10.612236068399593
P 6.845610393308181 6.922647510823741 9.123943969665461
