47
Energy = -244.36778785 eV
P 1.6149955621784209 5.2589167584148795 0.7534747424537157
P 4.947810440512319 7.07807187523966 1.3410282175630692
P 6.103855870116301 5.208320971164279 1.0336756016393711
P 3.8067329664751517 2.9362099676782636 2.2572635982399087
P 0.23091108077656722 6.9212142649404225 1.5032412019376815
P 0.638565264437944 4.038116618392702 2.3696838044240303
P 3.1670701955983906 5.985431967916396 2.186659138374592
P 2.3913275368399534 3.747096556572076 3.776759232343528
P 5.515419980129228 4.182926039293236 2.96805915901828
P 8.075551348516212 5.968538094737619 1.7685375643817776
P 8.768696835678265 4.059652549202903 2.800040719482904
P 11.813383294662387 5.805742592736068 3.306188205845754
P 4.990305459106253 9.54236721355622 3.68477620529052
P 5.328184391892769 7.308261211232707 3.5608155321526422
P 1.8576696574671494 7.753167366782643 2.853953737832051
P 7.076484541031731 2.6975119892443327 2.4084821730852406
P 8.37725186358397 9.019286686885705 3.7751034325550865
P 3.8444351723059405 0.9090937475053174 3.368653435271232
P 0.7726412518681873 7.011153442649519 4.5791562284218905
P 6.810650605114992 10.212974996912097 4.770348505313296
P 7.412705148003318 1.3440301622251498 4.141249333053703
P 8.379760545487686 4.627254081546855 4.9633994263071735
P 3.4538745670711135 9.513958507291438 5.240198071780287
P 7.507215118824631 6.970436213910277 3.724691692087721
P 4.858864812777316 2.9862149100077127 5.640597091419984
P 5.374310306135507 0.9476740088735982 4.997786379813026
P 8.187654198587744 2.5550147092063575 5.898341294027695
P 2.0910358609631543 1.6144181856546442 4.63174760295175
P 9.66158270110034 9.003902243890233 5.606420123499366
P 11.057851151411063 7.338803604174343 5.605171889534603
P 6.700592604608967 5.419447095790122 6.202842718037488
P 6.467177341991801 9.457519768329796 6.863774336576874
P 6.452693342251152 3.3325050385110506 7.143150993815086
P 2.889842904250219 2.46990690756778 6.5478570762310735
P 2.327081180179137 6.795599516195454 8.24281236566461
P 4.537349827193821 8.35687550789594 6.66789403866244
P 4.114333286100654 6.142097421762537 6.996250458142576
P 3.5440527782500424 11.136970767467275 7.129394204874564
P 8.436108902424182 8.47596849645603 7.367668971569674
P 3.9140375122524587 10.212974996912097 8.975096500902797
P 3.145671711388218 0.695865383909792 7.829180771715498
P 10.049084161223806 5.602172815194046 6.284770789502534
P 8.288707777692977 6.244360853526252 7.545471606036938
P 3.8114862558414213 11.617258540875238 10.569637397431748
P 3.595421027775976 8.587512695081811 8.673437986647626
P 3.319531442428588 1.1496590568138545 9.863737868727641
P 4.286038273728308 6.509934137135174 9.199335394081956
