47
Energy = -242.65036792 eV
P 7.976560379426077 7.2809555033917635 2.0129403750931267
P 6.1090110905123005 6.198257594845354 1.3211537178433395
P 4.4327518570071724 7.738104761062623 1.7858101293141935
P 5.2733964429505935 9.572901168115798 2.523133921047799
P 3.605334660875457 4.568010860146464 2.9085386155308233
P 5.77088384825684 4.968356959760455 3.1630300062239534
P 6.655029560419507 2.9165544878303633 3.174129449752064
P 6.9051336212418475 8.610909773568613 3.490079855375808
P 8.657314525018096 6.122995215612809 3.818392791065101
P 3.3289580175965443 6.728622104489639 3.545018057685403
P 11.93247080640214 6.430101580883969 4.410457722832818
P 7.803877202901314 4.090762838087541 4.695657218883106
P 3.7962933987490777 8.714089003091265 6.348372035631014
P 3.298537853512881 3.4722071092092643 4.835160356730627
P 4.534880130560212 6.881202081464309 5.350552453141379
P 5.2425110130508505 2.2237681782838923 4.8962727134280435
P 8.569964276310948 9.84444163818833 4.369866175091326
P 6.373056075829504 3.325428558536422 6.435447228501257
P 9.929159917955303 3.542717466621119 5.110137113243826
P 1.4242708509350863 7.534584992847436 4.124232086236877
P 6.6547137455156316 7.219998545536052 5.1842921051941575
P 9.999849654524498 7.941896404118952 4.559970557920404
P 10.528837423798452 4.936113730564203 3.4825048057625767
P 11.830509112541558 6.137398107809663 6.512653637425933
P 6.3456660090879105 8.813647777838646 6.900465077121568
P 1.7065029835533378 7.752314725135948 6.281974339218923
P 1.9410521173700217 5.653636012072718 7.030347844420217
P 8.369667994811111 9.759983680326853 6.586537944342624
P 10.285928839408616 4.640987272902469 7.09795721330026
P 6.1994122201100055 6.707516636569226 7.883433773398584
P 5.482619246378895 2.354819780899264 8.34626838439776
P 3.420281188030955 3.020393296467718 8.052483121506596
P 3.975432605416549 4.785019406620203 6.530096149584742
P 8.79306697695487 6.2576526418499565 7.573266289717669
P 9.991484294193377 8.035929443299985 6.734050356687553
P 3.770890837421335 9.2591595579374 8.72352841791885
P 5.796481355245303 10.161258126901314 8.691662257326676
P 7.272902427917715 9.395261013318676 10.118616130569501
P 6.188730825799944 4.283631561550103 9.20048073121891
P 2.3085499435607093 6.145941891717306 9.176438967989801
P 8.92641117563497 6.079933816805471 9.849734230469661
P 2.914880505445239 4.134271585372486 9.94372139801659
P 8.21398380835882 4.023295858534323 9.913238646709221
P 4.2828717525644295 7.1765348733891425 9.174143439124215
P 7.032349042523397 7.29132631083865 9.878267041621122
P 4.88655955472264 4.464737575091866 10.997523456642572
P 5.173989540360862 6.715389201256704 11.170982370504627
