47
Energy = -241.77723387 eV
P 5.6156046650604035 6.858330650788418 2.0038368490014458
P 3.523131130911987 6.090990238628205 2.626918317699508
P 4.045290380910779 3.8916745933113437 2.6980658426391018
P 5.927998149447631 8.98624620771294 2.504629942679691
P 10.445370463078818 6.6590409065032325 3.808934287878126
P 8.85943751107759 5.745398855938345 2.5613581712261295
P 3.547708587008563 7.677408409430857 4.241479443514641
P 8.86759436749594 3.6618390692441207 3.347744037631096
P 2.8306448296478117 2.5552403067914766 3.8175052423787283
P 9.500172702923942 8.655380606138241 4.095775306894414
P 7.276979996197811 8.24085536048367 4.471311015671357
P 6.955246188545792 6.1862734423528405 3.7267114666378696
P 1.062758775381451 3.458579971805387 5.078869644601373
P 4.299898048169994 9.742801019503235 3.8221461574330995
P 10.919888418004533 5.526284339749167 5.680497442793191
P 3.950831652601509 4.979268803943657 5.783035462216169
P 1.5485978546611237 7.536267630952488 5.264963509859311
P 2.0353277081667485 5.400045298401444 4.702192094882438
P 7.709286678331228 7.1842722149748575 6.470345104920814
P 10.71227789825967 3.500078515383269 4.684366918229875
P 3.512136796700573 1.5206613380595888 5.92116921131134
P 10.32626552776771 9.588190655479714 5.871908307253527
P 4.6458549142879315 7.068151192735556 6.1243078708463745
P 1.9505284250582893 2.6597894934465107 7.021089981237615
P 7.716542711258269 9.63107693421854 8.64281595565497
P 6.156754205999709 4.104356763908966 6.598263891699506
P 2.7670331050229304 7.833943898995492 7.177089279941208
P 9.206983926614248 2.4665224216526327 6.03050312535106
P 9.215351900339304 8.53396601243924 7.369728523854215
P 5.309544104379879 9.630098463103742 5.97887258751211
P 7.960411323944115 4.248970556068027 5.338195459914015
P 6.5247340221389125 7.711126448539595 8.3354057781057
P 9.184575502558292 5.444601100884729 7.108694702273615
P 6.6842113139495645 10.9765054117016 7.138225959858228
P 9.911505014020662 6.842433783061153 8.827458261419183
P 5.600381338403708 1.9232466124075784 6.541986763500561
P 2.950755576407209 4.501611192953892 7.750118092180645
P 3.2763444534113795 10.017656685544209 6.8187587993578
P 5.710542979937239 1.9527231228409443 8.798577590748954
P 9.570950647024455 3.330232151549037 8.033003131988837
P 3.6027147717261423 10.740153099097977 8.850546747552206
P 7.3456472363144325 3.4719077060980217 8.398093742158899
P 7.949862558455337 6.874126332092748 9.891048866694765
P 5.511499771605665 11.494728684931353 8.949011613609496
P 5.1144346612081755 5.328790731244671 10.173266682306497
P 4.161729674397214 3.528275095284416 9.370437343640988
P 7.199231829800163 4.740451968236886 10.251309769854485
