47
Energy = -241.37913437 eV
P 7.050022972197343 1.606303234327712 1.973126890248763
P 8.000505068959376 5.221707062143114 2.130929523378295
P 5.911795435736798 3.2569220528119924 0.9666508664346336
P 5.0161187910736045 3.4937957841035545 4.5299891407414785
P 2.944417343843074 3.420176636419001 3.6745235204354216
P 4.555939973045 6.2417959486151755 1.9298454420860789
P 2.5815479593189097 5.347976030409458 2.521167321624235
P 5.668132003089555 1.462663008130433 3.7070100978412523
P 4.845071350860291 1.4253493826594161 1.635770974884097
P 1.8010551919455842 6.266442124749617 6.235375064909759
P 2.6169815763473454 8.304361495848784 6.506223805625409
P 3.3031559321996675 7.239650424767711 3.4636412288995917
P 1.9242124965643368 3.3075435666301574 5.802918446607169
P 3.7422960778164818 2.4108071243314533 6.691030504809426
P 4.69993870965218 4.594335177065577 9.81099036460697
P 2.081304800152462 1.1576276509087318 6.173986224026797
P 3.890791721478348 6.662470504636654 5.576347547696623
P 5.880812237427108 4.610152657158856 2.73614560514989
P 5.235761747775014 10.230896380388382 2.998117819204045
P 4.516724392412754 9.666122294254322 8.628614724658927
P 6.1970252758174835 12.400920195093011 4.64660002407372
P 4.202875982432761 11.876163594188181 3.8028489262764236
P 2.3742740924060945 6.969878382773585 8.285848458781837
P 8.72497433026362 6.792249365170231 5.436026211469258
P 5.836596144078756 9.367625593531857 6.693404177021294
P 7.4524803127988255 10.68752766167881 7.595841501520636
P 7.029675323789527 10.455738260574094 4.1989019674478625
P 5.829946464024206 11.416428454743576 8.990851668423025
P 5.0298003728927085 7.937198223451324 9.95053496699581
P 5.687406980426027 11.579460642033347 6.677884946371159
P 4.53399810683157 6.376881412214742 8.388254207303529
P 7.9492629281372 7.207409352690458 8.183720764580595
P 6.723868495723427 4.462071519259155 8.92638072782363
P 9.445829046819231 6.377466647390856 3.3510889828315666
P 8.940468099222533 2.6927952236858386 4.8185112925540095
P 7.387553562388021 2.4407040476977087 9.495996240445805
P 9.977496503375646 8.109407257484344 7.915469823831599
P 8.134126344599702 5.899900430339818 9.972611512706953
P 9.923176478699533 8.666194238375208 5.740160990331527
P 9.645021872176779 4.143631745108616 3.1851390447673418
P 7.259319163300832 7.954896783284648 10.133273667149991
P 7.526724334894642 3.7699960396798473 6.21726653605877
P 10.762906137219328 6.718751355609629 6.356705006227213
P 7.926551608276861 1.8643260789546379 7.29817893901205
P 9.573941974647406 3.3326646167314458 6.878555560398097
P 3.831684752503632 2.7081198253665106 9.018041369302576
P 5.413036996238269 1.4511022241989584 9.736105329885918
