47
Energy = -242.56531793 eV
P 6.48813168169107 6.780744034644658 1.3649946299385565
P 2.6728053559755174 6.408202166537765 1.1446646535626193
P 6.570006795842819 4.6390426859154275 2.0816410229913216
P 4.443551564740412 7.75153321768315 0.9906707740879946
P 2.614346525251043 2.795470532535432 2.6600286524255043
P 3.155851999921856 4.903951166317873 2.8393420426807996
P 7.415936081597408 8.116850890607957 2.9345816265234883
P 8.586122010602756 5.1289208975701355 3.031908337077113
P 5.337580675165545 4.575157487212373 3.9461544381117584
P 1.2418166726531914 7.626719565242926 2.224643270272909
P 5.939798743321626 9.703178949774117 3.6442236909408705
P 4.033705437760826 9.391470603929442 2.4640963096569743
P 7.6088011987020145 6.517780746433179 4.496316229200396
P 2.287542807390741 8.868578929332038 3.7132362553372036
P 4.1987460940434165 2.663482989958699 4.0982475765915805
P 1.7244618632890076 5.717148886318955 4.324383428333485
P 8.794063153908066 3.307804062511703 4.300344146086387
P 5.897751636042921 1.1850505596257808 4.625898611698545
P 2.970681516032166 7.3190076253524206 5.205616070737666
P 6.8043250812839995 3.058665838400566 5.338820117982749
P 1.8212093258299134 4.190846866577562 6.00335292264129
P 5.227013158608712 9.628688817469698 5.761863206180854
P 9.208244196617045 7.61274809432598 5.701593087398611
P 9.341986122624153 3.992204347696404 6.349784759546121
P 5.505554257346567 7.462103915715239 6.293420950528088
P 7.5533216662794205 8.167278009606536 7.141139717448639
P 1.9273774615805377 5.461021430868881 7.866221217080884
P 7.1091316436709375 10.303840043603488 6.945693032395119
P 1.6171126987014195 7.509725545790716 6.996444842038382
P 3.680322385380572 2.9590744368503232 6.3135760420710385
P 2.691229990988691 8.815337510972483 8.358879443285787
P 11.022127468983848 3.252666575592988 7.715767878719908
P 5.051996850989481 0.5975722817638033 6.5838373395762675
P 5.3624509271082 4.374401564660022 6.630493571629239
P 10.451015700824287 5.879480528890897 6.409937914460859
P 3.898296543893555 5.701009748631676 9.103521122833316
P 7.794153910873201 7.552626281208375 9.232404949642643
P 8.169703305164306 1.990806180223004 7.150612746039263
P 6.381589613110581 10.543537835501406 9.00387852681028
P 10.817184821686983 5.367017155244736 8.58823454086566
P 9.37806938403265 2.47056755696298 9.032714957500458
P 7.461524817387822 5.447666473576786 8.356126890186493
P 5.615314643228827 4.1974354465529 8.835836960671035
P 6.519137560063917 0.9292610408267125 8.055821249970329
P 8.970716682500292 4.6065655887022405 9.73833129423556
P 4.486471139129581 7.683035625777162 8.336590479656984
P 5.906549167608393 8.599551599933083 9.818940811778821
