47
Energy = -242.72149063 eV
P 5.2463413659418165 7.655669305872349 1.5458869881505914
P 6.924750286302899 2.6836231852147074 1.051491868473793
P 7.414875590512269 4.891647526979867 1.4725309984578725
P 3.5053590846735854 4.615431504090201 2.0003639940406814
P 5.5028370451685245 5.5694596704970065 2.2385658583736414
P 8.433095735827763 1.290959212850086 2.135747463182745
P 5.750103025204746 8.28265588650815 3.6926275834541373
P 5.372912635883777 1.716285236879109 2.3489077855636533
P 9.541892702224782 3.1351585275431275 2.707460395223293
P 3.0820274017776743 7.764360360071687 1.5629417134022572
P 3.7953329998957788 2.890888741773073 3.4200976158343845
P 2.6014019403855095 6.350684007069237 3.133358370037175
P 8.00936345300215 9.163696530830642 3.18839796273542
P 7.917027691626096 4.301444749994067 3.6817318415741687
P 6.842768854443504 0.5392719868001616 3.607685719163761
P 5.1858113751961765 10.400941525266683 3.9670960892622853
P 5.799019124222618 5.591999977434037 4.5061110365274475
P 10.616456686225316 3.2536532484723857 4.716560700786964
P 3.760388997651608 10.613450555449155 5.646641130398048
P 7.38674342362626 10.968019408815325 4.296416961857949
P 9.710354829178527 5.377164216099787 4.652191849871408
P 4.0649015704299325 6.979739169522293 4.729838300537816
P 1.4537807583759 4.754199973430463 5.925924302355692
P 4.970242368409014 3.639566207171917 5.1803295415264135
P 8.645418112699032 2.9392045532200988 5.617372999497761
P 8.512602425283017 9.344388221530213 5.314162088123801
P 7.690870543624661 0.9875439957800649 5.6670257309203835
P 0.9199938911891834 1.7095040999341564 7.384671516023347
P 0.02398047861834015 3.667140785380127 7.268511317781942
P 4.377079251930287 10.458462118467063 7.6154873470864155
P 6.70461519696342 8.318031674160803 6.138713482662438
P 3.372200261751064 4.05416872574629 6.7801864080971095
P 1.3436510277518143 6.8594596376855135 6.658977938493371
P 9.29987859115917 5.695259595976774 6.875571144904723
P 5.993906244483593 1.8725167026707419 6.770283901568189
P 7.126459263361049 6.339800018213902 7.081797032990297
P 6.837179248248206 3.0812153844037247 8.275387655486448
P 8.945802129549232 3.541253166399972 7.67633820354854
P 2.8675886474702033 2.249005808175117 8.088989403318807
P 7.174252401084835 6.708622902567929 9.272088610144156
P 6.417829455705232 9.686733353261436 7.837533869387431
P 6.328998636888538 8.531169387285432 9.684354716949754
P 0.504885145447748 4.525196380144156 9.261921859347474
P 2.783894789522905 7.15843563585269 8.322674652699204
P 0.6647072275822169 6.703518441086165 8.829218283128295
P 3.9817969859229847 5.285940534642856 8.523584038250611
P 2.6103087767327207 3.8691458419362164 9.66192940795444
