47
Energy = -243.76270802 eV
P 4.991301998103344 4.169152908362412 9.053467269731142
P 5.153947822948719 7.068666417519781 0.3224528374213242
P 4.12650013736038 2.262546790621905 9.91995028833984
P 3.0961454889627316 9.80362576500266 1.0954615573020428
P 2.081799169568309 3.1608488509029304 10.087110088633736
P 6.879206432215853 5.929919671655378 1.1866965453216807
P 3.553492244059445 5.70056652394867 9.836429559997594
P 0.7123546995531681 1.5638630404230578 0.6369473498866833
P 9.7129152715535 4.509669107425281 10.095121114684613
P 6.595149521187337 3.843506647475687 0.44117988362066984
P 5.103677601217518 2.741026857542457 1.7327858240378171
P 9.323922956687998 2.952462443551928 1.4820057259711044
P 6.097170587405831 5.7421514525544275 3.258936873716701
P 4.8798893330126605 9.43172768905519 2.318652231655502
P 5.79732709799442 7.97183711904387 3.6320805855362104
P 1.5652262518836595 8.946877196644843 2.494085443404245
P 4.471050861476152 8.5194636419709 1.9154614614665904
P 6.354122916055439 0.8477042121750331 2.0336358018040377
P 2.590762870076547 4.726866034809934 1.4452339809465264
P 0.7640173709858241 6.033184018407033 0.9696740876512268
P 1.8875346969344118 0.9814614625100566 2.450511699278422
P 9.755300578028816 5.820906711893965 2.8344645545991725
P 8.821372304109717 3.9416239056448057 3.0894872725240234
P 0.3103499499150742 3.782127528382981 3.2092539752845752
P 2.851311614873399 5.994111084006518 4.399357469058346
P 0.7335202957105246 6.810541037984388 4.465155543183691
P 3.952563242455881 0.24318967366303304 4.3681866791838955
P 8.488113862514286 2.6891024004393063 4.736473185814387
P 0.11460417023673636 0.5530524580250148 4.804947399066371
P 6.016664368701702 0.832419008373251 4.405804751987297
P 8.11927757723431 5.709540222915797 4.222084644982398
P 3.578970255170913 8.079164813041098 3.92903281396818
P 9.171229179179441 3.608732430259815 5.025122272824179
P 2.646440963892442 8.5194636419709 4.425360865624432
P 5.5037349373075894 4.11613558320443 5.727331490648136
P 2.1746176250981315 3.0258331487263606 5.850672649055993
P 9.93851209998022 5.49667597617746 6.048118317158296
P 1.4769923772934943 9.6302387087687 5.911774030330237
P 2.9016688231037238 6.363419579079225 6.62861206383529
P 6.4493879023900345 1.0279131276986104 6.457252366879005
P 0.1264966438218902 2.1744028978516017 6.3129586371825965
P 4.378552661868721 0.2886954114999723 6.678373982718046
P 7.7226459578007915 4.3509796938018255 5.989352932658228
P 4.919041467205836 5.604999448495473 7.298107717535379
P 1.5435163151892544 4.717496290009858 7.1935576353279185
P 5.08934057279818 3.4152384960453928 7.792532083938159
P 3.2738227661441566 2.0924327117041868 7.5843082954943135
