47
Energy = -241.96897394 eV
P 3.9099196120116875 4.881729836704323 11.561448020624836
P 3.390695631676397 7.843671798902018 0.9398310545283656
P 2.7295146576197493 3.998714116309851 0.9483801978386895
P 1.9495126305102004 6.058588472501843 1.1846429345176992
P 5.760633173146297 5.109658679100082 0.443557431063956
P 5.506188692875217 7.170240787084705 1.3755965381242887
P 4.7823923523034795 3.471956890031208 1.6076851315285363
P 4.688061501482984 6.851753698910267 3.4159818689058663
P 1.0797441933761553 6.247916203710485 3.2722576170557462
P 3.630248055183238 8.75082995364691 2.9941336641124674
P 7.562573947921668 5.303191069291379 3.5304509793258316
P 1.5716252765493455 8.322952710426028 3.8748961805346536
P 9.605639800904461 6.080401212540493 3.2973017272708285
P 6.534208770728462 2.421132400391537 4.623604997254011
P 6.771559634138813 7.252261790539437 4.162005018248535
P 1.9544699059578106 4.684414337633883 4.610695394763307
P 7.542791275353995 4.243926131153871 5.700718705409737
P 7.89559937538401 8.98516099794204 3.4874638362328505
P 9.629669560980055 8.015319146571239 4.430956180446977
P 9.705817955522365 3.546715999625565 5.69126265575225
P 4.1623294495533285 4.724835610089525 5.269273582038337
P 10.862156641948287 4.648426728894758 4.420945870540489
P 4.639465994760551 3.11423790285571 3.7769902623118763
P 7.343392880673339 2.4738140475294044 7.49769735302141
P 7.523725395175787 9.67445559308827 7.028614031093847
P 2.363215663361357 7.646346733859104 5.858318628141289
P 9.075479964632933 9.562421135329473 8.528737879671713
P 10.878538089175725 6.0824731277830795 9.367644853846326
P 7.958663213589433 6.197545308106739 7.609199472376977
P 1.0938234276998424 5.835412039723686 6.29646360487066
P 8.02643662787386 7.85065064845711 5.943543760029974
P 9.565398173781798 4.7389539088301245 8.348284736100446
P 1.9309872760736642 8.826473645975012 7.644883423460977
P 3.786756205384715 2.967102239791934 6.649969278768412
P 5.600037189445847 1.598210944988307 6.48969330662491
P 5.728933870045691 6.646216902542862 7.91841541340765
P 8.300310079278532 7.729504847823462 9.269645118607613
P 2.96128488110497 5.754361711697203 7.533037221814874
P 9.53036740373853 6.883493884086206 10.900010156140796
P 6.636904185703277 3.0154901587739995 9.469873617680514
P 3.4317840190347555 3.865162233951653 8.670090112590497
P 2.361050658309217 7.305940461082788 8.98589566379529
P 8.62594158745358 3.7309229361825205 10.085469560736511
P 6.093819028188458 7.861196550764709 9.766257983513917
P 8.099115628295577 5.273970674811956 11.561448020624832
P 5.42529142068424 4.8797528510353585 9.266859263028309
P 5.949782970470268 6.027948867994151 11.150041609072474
