48
Energy = -248.26384334 eV
P 7.06376148451108 5.647758937622207 10.358385197647756
P 3.569070691274358 5.28802133635993 0.7023597230836289
P 5.505810323934271 4.220432041868614 0.6743971117173876
P 6.434322845214419 7.726149761412956 10.31746843850647
P 8.46101582738396 5.637962303571966 1.699836708882892
P 4.21733782683231 2.4678561093828173 2.9907935008706
P 5.621231030553079 8.172214712454496 1.828915289350079
P 3.6816048218579653 7.090065891162616 2.0572544953238605
P 5.787160818851167 4.010670752141125 2.8653928196377016
P 8.024107928249416 3.7915316439491273 2.9089655060230823
P 7.354270396120469 7.215251580020502 2.8588095735426347
P 2.5904936992163368 3.815986966307322 2.098302226975798
P 10.424826835067352 8.144156796338237 3.825125192663606
P 8.624298163549755 9.015553140125048 2.991152146076957
P 7.088847247574743 6.520773299682913 4.9428526619631175
P 3.6100795742460563 3.240829480729681 5.095966012736219
P 5.839387225379738 9.71081979443713 5.450378603444399
P 3.607987471199849 6.520414198701656 4.168659661063302
P 2.0278707487523326 5.006063607575632 3.875831339243719
P 5.286474384315632 5.1300565417373445 4.719071109881033
P 8.61778275823293 4.89261756526036 4.746878911140224
P 0.3843206377382463 3.4823192196067536 6.267990646492486
P 9.315574964894159 8.241861101240021 5.649502410321775
P 8.025050213685512 10.005681127202676 5.280689303516066
P 6.52054486737795 2.721907335893428 7.30125098441137
P 5.213717041337242 1.7220728797098956 5.871022145350358
P 8.38984703068215 3.396691457124169 6.366926601841651
P 1.7440764612128874 1.9558273419692769 5.556008974861064
P 3.606979099361483 4.929029352348142 7.019582914556462
P 8.536271028829931 10.416498526594115 7.653909790920677
P 10.235926697907017 9.004304838268137 7.658469574349374
P 2.1445811398981185 0.8886764280857524 7.470157025613836
P 5.1795630228923315 9.98095206369385 7.427537649989884
P 1.694461129664173 4.148111264324578 7.8216435196929845
P 2.9943123009461665 7.0167199947527 8.308366164983228
P 6.413297281660574 6.871658810837509 7.852784521958681
P 4.40767599536996 0.7114414233756661 7.681634403087109
P 9.39977855207567 4.30812625754825 8.057894507627493
P 6.997907007704111 9.06081278460411 8.272178254113683
P 2.104988337411326 2.407647366440528 9.129310081117088
P 8.294721734733747 6.033002409623122 8.605469274443742
P 5.163500557486517 4.136400944536305 8.3478912859487
P 9.55343818400843 7.670924896149059 9.385842442320815
P 1.045151012206513 6.095262107779743 8.855051787208202
P 2.6823088513800752 6.34195792578686 10.268674288316097
P 4.351195799279807 2.2845100967674377 9.347729199716767
P 6.652062842727681 6.514535850015177 10.100175900178368
P 7.68981576104231 8.566689390712881 10.31746843850647
