48
Energy = -248.44799242 eV
P 3.886700244246268 4.888178338658519 0.16212637333955754
P 5.856708385773833 5.86603069614738 0.6405909047843229
P 5.324309443070855 7.900932549236557 1.3531983935636975
P 2.2319811288578086 6.124304012829359 1.0430737460938588
P 3.162564324490363 7.964291245255365 1.946538001304098
P 6.043420625238449 4.532844807979383 2.543850822557773
P 4.3841153563296835 3.2556496434311817 1.5932466865101302
P 7.518889519194956 3.0339073360691273 1.7761622795767897
P 6.50113675412767 1.056846651487979 2.1812498223862806
P 7.867667332361158 6.214385996708347 3.069797472764168
P 6.384332559062751 7.909820219585527 3.3725020692997143
P 3.2298763527205803 7.542857958060969 4.121157958931921
P 2.592112683172943 3.0254816555606348 2.8848649426800748
P 1.3389530985718578 4.878475013414106 2.723162670852888
P 5.693511291583184 3.211752018513413 4.750939239341317
P 3.434835421371642 2.993163526844652 4.96954053067936
P 9.096602970845352 2.6115165693499733 3.3505014893277205
P 5.152363228136509 6.619369409723147 4.671508610810738
P 2.881942096973225 9.611866191674208 4.940104170322506
P 5.999473320205157 1.0289296031974735 4.34071789694556
P 4.794505548747085 10.427052457548386 4.3085524535822906
P 8.80269799535011 7.045789476090636 4.8003350126363085
P 9.972193672424078 5.284205034232144 5.469305026833317
P 1.5965916060431555 6.062515920234225 4.611499098237127
P 1.5182745898941292 3.7264216023564156 7.260732177346721
P 10.43695026145991 7.073975056867599 8.677951698041435
P 8.348314488491807 3.855162786709417 4.987560007907147
P 0.6891082904123514 5.322333859598773 8.63237350470787
P 7.6268916436728595 6.965868856946113 7.2114663130690575
P 2.930839537195641 4.926805264584326 5.974303639321982
P 5.269505932739685 7.949915730210753 6.666424305401991
P 6.076928488209851 9.908490815826328 6.006303461042114
P 8.095696251103359 0.6477466073069094 3.7949088178475843
P 9.356639928395582 5.570402763722243 7.630936983940071
P 3.1662397522752754 8.835508025824721 6.975293412515194
P 4.835398566417237 2.0817752136653085 8.0140899128282
P 8.945916586084875 8.590764065525537 7.9244919415237325
P 6.035754453766388 3.65039984187526 6.91282868651962
P 3.0020556477608107 3.0960398722343214 8.787976191826546
P 2.18093566457468 6.11478212082967 9.821732119233596
P 4.7069267716408465 10.29233525806918 7.801917994958238
P 8.07161211748897 2.6136408453757265 6.871673438379779
P 7.422533640263439 7.780075915274476 9.369590340688953
P 3.937142261506276 5.049016417975867 9.119365643823365
P 5.318800816887831 8.358605883175654 8.890517109702472
P 9.179697204115268 3.607500952574201 8.446093216264947
P 5.917355402503625 2.5788640978674127 9.948106568477014
P 5.256027541184948 4.3864326107156515 10.72186763821598
