48
Energy = -249.30801095 eV
P 5.548645502267925 9.56341887764621 2.287541510703992
P 1.2697500057917825 6.895471396950796 0.9807594130564318
P 2.3358999814064263 4.875849814570191 0.8829437587669045
P 4.457952991106385 4.86337320472173 1.3533329283011044
P 4.570193198848397 7.547025344663471 2.2809825341865384
P 2.628021768430541 8.48486302404204 1.766598461628754
P 4.6741123748899165 10.578181802548853 4.162162412285246
P 7.284070820766497 8.922390380267641 3.5694324013233043
P 8.868688084542432 6.067310444701963 3.6968747807582254
P 0.1335861974891103 6.079144876423115 2.7662330588676785
P 1.706841995312916 8.960462746954377 3.7550956888445195
P 1.225948503836709 4.0722008172828446 2.650346354545249
P 3.462489703797194 9.026055422800702 5.14272251854566
P 4.580493926525797 7.2252628839643736 4.476470706645383
P 4.6128140766808015 3.688827425307815 3.0732942873137676
P 6.623764510867323 10.429447893947334 5.312808498087094
P 8.695940371728735 4.188757930793429 6.167695043667811
P 8.430338221832207 7.477192788045271 2.113746723373492
P 10.813488565672182 4.634537068249493 6.723625283538864
P 7.545437527477039 7.144430200775436 5.428715612895375
P 0.9428372580255804 7.027894082828693 4.590582354579912
P 2.7526105169443587 3.8795800446235673 4.239437652831045
P 10.927104079118623 6.87126723414618 4.184006506173954
P 11.151630502608517 4.489556261389003 8.92959406888385
P 11.144286380635531 6.784832041176334 6.400556103396748
P 2.8594358664060997 5.972329505562312 5.083384004443737
P 9.274023052285669 9.481669410701041 2.773857404550615
P 6.4546001579013 8.852486738460614 6.796847547602153
P 9.284236363131773 8.150050060583185 6.378106553816786
P 10.497277568171405 9.009091367286484 4.5720188650991975
P 6.958231476618908 5.395935888961393 6.778156104137561
P 8.678389659919064 2.286737211932237 7.198768952615994
P 9.516461775903924 3.00956512504231 9.433962964149623
P 4.899557679829216 3.155472705859958 7.1917648354925605
P 9.137822393922733 5.154703759482383 9.578607632212169
P 6.645168834392732 2.036624430372612 7.963166824849199
P 2.525649508098625 6.103814334499478 7.183189729403206
P 8.321137082610267 9.132228927792431 7.974282992393937
P 6.0385123232255955 6.332947271089318 8.697337104977292
P 4.272581500748329 5.137499815118163 8.066951963828448
P 7.317083065339345 3.7936427115940123 11.647836967246384
P 9.4361870064506 4.280466959084027 11.596243647041295
P 3.608377211213149 2.22563992051712 8.823124452037293
P 6.9968318138614025 2.0744904925163974 10.200621414728856
P 2.9637404528691116 4.297098394493718 9.637057229093294
P 6.113278715854558 5.513909916518529 10.846807942325714
P 4.412170780696329 4.202396738277151 11.367120955579328
P 4.846122929112031 2.0676885906006848 10.719049534339147
