48
Energy = -246.54116148 eV
P 6.083248212556154 5.545192418611031 0.0770263974102961
P 7.802286073851042 4.187234137498333 0.4672894305024874
P 4.515902933195204 4.162611282539715 0.9564493940116234
P 6.518379207198951 6.444106730762613 2.158218543292547
P 6.294994662059176 2.76961575740962 1.331882968174224
P 8.714756354520617 6.050525557228499 1.8861893412240454
P 4.216873974657145 5.751946261784486 2.5926185226595937
P 2.3849871265106275 6.867872547009357 2.7600078346789747
P 6.6817949237837215 8.628881781760386 2.738090463608893
P 6.886531187923317 5.108879742832046 4.411840775905032
P 5.501060023481837 8.143469406683508 4.630287052444557
P 6.6951276681945044 2.833607514377294 3.4842475405728885
P 9.024578880962784 4.8505925292020295 3.7228280382624037
P 4.418035039845902 5.207950797375437 4.765854153670813
P 5.482040309667069 1.5864791780774476 4.906870018576703
P 8.815471101965183 2.634099402398939 4.106738390222234
P 8.683769196787754 7.974949544549031 3.657736187479355
P 10.56552006466817 5.874449569765013 4.864328904795415
P 3.728082280931713 3.060783128950899 4.866943662630382
P 7.383966386958906 7.185978657439508 5.2403693476667526
P 5.018086971166347 9.70152017350866 6.218405854713623
P 8.49153317671214 10.927048688233542 5.615384875535228
P 2.2118282114352517 5.748849915130321 4.586023730278731
P 7.739792555807989 3.603721140183595 6.044316685664359
P 6.969552132923877 10.453206589575538 6.967596565678228
P 6.830569949268156 5.269142784742105 7.595545637941004
P 10.0018962110685 5.962159057595379 6.964075549933113
P 2.9364451721430873 2.9154235677260987 6.962284052408093
P 4.70438212804577 8.298739372339844 7.8685250681523895
P 6.840569063977714 1.7141419060701721 6.5746651629448145
P 8.03849120723213 7.118517762608187 7.359909269883971
P 4.738073475697786 5.6783846552623185 7.879946743351342
P 1.4202251458806685 6.620826438605107 6.428675298632415
P 9.465225402558275 3.862979930837759 7.494044798437117
P 9.99095116148088 11.428542093844081 7.006400008393308
P 7.258742185331286 10.623731308126391 9.037550446834059
P 4.564661653299246 3.390017712392699 8.37537929018987
P 7.807864575829933 4.024775883744074 9.091542505020216
P 9.259379757329532 11.265425729370772 8.990576699478533
P 1.2967043001593102 4.519195768515405 7.23033804336987
P 2.5350984655434363 8.197572558614178 7.598056673950278
P 4.5357366761684705 5.921657140028002 10.148716640378925
P 8.201563884262525 5.503922207895425 10.687656285188236
P 1.5006580660644928 5.000380673901746 9.395114894686069
P 3.3713612954292325 3.9618378262739897 10.155612083055818
P 3.397945752554108 7.532427767548272 10.92637929635232
P 6.3940603854103655 6.268851210181992 11.332872676156581
P 1.7573453245156694 7.293924087905441 9.514738092618558
