48
Energy = -249.6663146 eV
P 4.463431215228073 7.481235447870518 2.5717368959653695
P 3.8181294989249834 10.577744301544623 2.308775545440348
P 2.8814636606060944 8.851103209069306 3.364133297776179
P 6.031936999091027 10.09911135195594 2.0239000491353494
P 6.427276921457289 8.294960026545649 3.1999634606953893
P 2.503271712561206 4.664294046874618 3.7911979863161562
P 4.312009178534829 5.880846693152633 4.044713097643021
P 11.604339697450817 8.331870298715474 5.184853620640235
P 1.1144214225355142 5.7938318918546745 5.024147401617155
P 3.094303388167746 8.965220085836442 5.569965034307203
P 4.2786498631591625 12.0698811342281 3.939895052148628
P 9.609024061889174 8.172407878517948 4.195349299852851
P 12.312109492581369 6.195075278242987 5.204675324964325
P 6.509112038707892 8.409767445023006 5.437596739730485
P 3.345419715837308 2.716778277993042 4.58542930421421
P 8.820466561219117 6.460911435067139 5.400902496060353
P 10.412412413942198 5.060311289752416 4.82804976262142
P 6.063555362388347 4.593927819105686 4.163673933008933
P 6.457470570802676 11.893076514395174 3.3534034597438245
P 3.986548962589908 10.980022265171618 5.889208332513993
P 2.3285320655666495 5.997847291610125 6.762551822361177
P 4.446674576706028 6.762275435512196 6.2300547268287705
P 11.116313554261206 8.36431063863443 7.362674496764158
P 5.278161775441935 2.6555362635307853 3.631953236996286
P 8.031730548099175 1.4289295387627823 6.47341629580819
P 10.506336270965088 3.82102829797079 6.66741859196722
P 5.715716673260533 4.794851704265466 6.498968599496367
P 4.100856507851986 3.267344450599792 6.599735701735716
P 1.438189382016551 7.25256319265511 8.309189350469723
P 9.248684901069831 1.6490939341922637 8.361707849884015
P 8.3258210995983 3.427258048848843 7.377844637098287
P 8.512065704873228 9.414627285729864 5.714937418836024
P 7.460121799578552 11.46955425243852 5.305574382380741
P 2.3997074161860774 4.053435090496898 7.846677066394848
P 4.980026384130665 7.578802748574882 8.418804690865125
P 5.9833579491129445 10.296801428755764 6.496572351635758
P 6.471711990813761 0.5248209721139029 7.877417609912634
P 9.229007374396932 7.108464796578769 7.507703102703111
P 10.591590392046978 5.415246283671956 8.200309622123784
P 12.418440873754076 6.447480274224802 7.492002850216932
P 4.347514010319405 1.4189045839407044 7.845755727630445
P 3.0826458815161835 7.856876886634948 9.44825758421687
P 7.471093411318513 1.257530298167685 9.767697900452148
P 3.5194201583159646 4.471813847235949 9.718824316732496
P 5.396564280074664 5.515483544157163 8.97642509685702
P 6.574772676389603 3.207166063998515 9.279699559593428
P 6.950770632669758 5.07096535584978 10.365276526277064
P 4.499147971193182 2.4489397991339437 9.851307788568588
