48
Energy = -248.28606119 eV
P 7.4265063308749415 8.309862151543864 1.0760995397166597
P 6.009714617042868 5.045861667036266 1.9505829714234526
P 8.111235073593281 7.077196585221163 2.823003332131807
P 8.253113683322116 5.006921780184938 1.8743617385470395
P 3.104205306295126 3.062329075178923 3.465438606455477
P 5.843738849092069 6.802758344767676 0.5526063937954313
P 6.352377353815954 9.854797937863149 2.3525826307795135
P 3.9300092795229693 7.720794397054219 1.065886825721154
P 1.5972568084133922 4.514092754717555 4.1838598095538435
P 10.140889656625633 7.273439646713547 3.715276662710237
P 8.275791525446563 4.175263702707153 3.922657538300195
P 4.300464627702554 9.018805745641565 2.6779635156158386
P 10.293047918084762 5.026474174188409 4.270184944840733
P 6.372146953061101 5.8003915527108 4.077998170402108
P 4.556381071779939 2.6793118090955548 4.959939367431645
P 9.167528096017564 7.927911092986693 5.616110954009791
P 7.179455129738001 8.92847319361549 4.259569531258969
P 0.569917675864954 3.651541825816875 5.970765598595161
P 2.0017972171540355 6.841043974176897 6.626092040030584
P 0.7142893020958452 5.17254437028315 7.59434560163888
P 5.259003958695129 7.8421920288498495 4.547493415365733
P 3.085862812911619 5.9900354478545905 4.891127048497562
P 7.529386170793905 1.6258492963814568 6.385753939734215
P 8.350532843769901 5.398599992248373 6.886745309134301
P 10.500690410928371 4.967486131761772 6.558219956873104
P 6.267549576417849 0.9185788382080627 7.931961286372385
P 10.94412883924167 7.158178283606056 6.798583654551146
P 5.587061368075212 6.953274746417918 6.67024971727903
P 7.381350925754385 10.467005335669233 5.994828576477224
P 1.7420154009443494 3.5132151537001213 8.76126902019693
P 9.623557033409938 10.078806970311163 6.09547899372083
P 4.906584446612835 4.941210983928797 5.763193714793199
P 3.8899585631512132 2.1077071027085585 6.9683088838308285
P 7.460350440460862 8.89970463508073 7.563233199047882
P 1.6479999763073796 1.9878034602867773 7.042426593960239
P 3.765290695386894 7.426841393732678 7.903287452254027
P 3.79312946265522 4.102197955546577 8.179085157669912
P 7.019960998549483 3.609798957804529 7.143175883204343
P 10.207304202626354 7.568885717980004 8.84652296089294
P 8.52166633089583 6.0095121686136554 9.019619111964444
P 6.867180945386124 2.688045598946949 9.143949120437984
P 6.341580252118937 6.646318593625876 9.053610092375422
P 4.046763455879985 9.370405015556086 8.753893567594604
P 4.969338897097084 3.4932633462186002 9.979054762965044
P 9.36869593512151 9.69216229339751 8.332713250133374
P 6.076446523632142 8.865273902028937 9.387812200415512
P 5.229400052740274 5.629277018937139 10.691836687370778
P 3.315468605363556 6.056679449565851 9.569366270400803
