48
Energy = -243.74653489 eV
P 6.821030361610476 11.74250982772197 6.007714208148003
P 5.1436295031860775 6.675176473084437 11.085264832560307
P 1.7005893973556032 7.250211309657678 7.201777022091017
P 6.006035959511567 9.417363510178335 9.007286710718825
P 6.738850462966766 7.263620562865747 8.423960448450678
P 3.570077093017999 8.017052674654883 8.20324709385955
P 7.427887205248688 4.488465663370218 9.514450862611177
P 7.879851272223644 4.971192792996512 3.3578752267580825
P 8.392703862598362 8.011023825795542 9.683694733693535
P 7.104301113567192 9.140092268557849 4.431423383754028
P 11.115234853873636 6.695583793160609 8.322636309887832
P 5.28150152480593 4.723416763188218 9.9874050163624
P 4.96716372115653 7.384083217609927 2.832324704014375
P 1.9200633343241258 6.5752057738187615 5.060340289809211
P 6.739103916916808 8.757584292787596 6.859515424274464
P 6.0459106485234715 4.507560518777951 6.320321563667786
P 9.340019299250168 4.338319620744451 6.127853699548608
P 11.135798090241837 5.226892631656907 5.089933519832742
P 4.749391743592231 7.645067703976202 6.345691339853689
P 6.704393195103907 13.779112959711611 6.081577963657091
P 12.2322674847402 5.231941701947662 7.1159482444106725
P 8.054896641019736 5.341039290744561 11.485792865402521
P 3.8682930112299454 4.236645973190633 6.917535498173994
P 5.856435297576828 2.982517843158322 4.653505176845734
P 4.019707076727741 10.174693707643518 7.940839588922107
P 6.856996400111449 8.350462393689895 2.288542693716276
P 5.896680566862549 4.803848002465118 12.124062307490556
P 7.251606221472572 7.430916940496227 11.524251270073226
P 10.872846173373967 8.278090153880763 6.772916104344125
P 2.96416960209685 4.595192785786018 4.986977601511159
P 2.079088835655489 5.260637736264126 8.019233892386941
P 9.00350668674354 9.528861741819314 6.985131426418661
P 6.925848956987275 4.987803609757176 1.298790069950643
P 10.21830534614424 4.693422051318511 8.194085187831988
P 4.812207288128836 5.618563127152144 1.719205627500441
P 10.058123175897387 7.199115704577946 4.969667446267312
P 7.294629644736292 1.3552208601917586 5.142351421653728
P 7.719130663511487 1.6307984211290154 7.331886383728701
P 8.185639706709994 10.17967539482087 9.147457324587522
P 5.129579223628496 1.1744891612082495 5.706917626156522
P 5.451971420448881 10.673494497634165 4.503981749328502
P 3.8786305509208603 9.62947648539956 5.734559043513544
P 8.316989905726174 6.646563969905273 1.9398148658869347
P 5.687912071517566 1.6169054660507989 7.823071593064635
P 8.354394517041456 6.32853332301156 6.060292022178388
P 6.5372370799367125 6.074900298858982 4.774603512926139
P 8.753652583299402 10.580314579782167 5.031419059841461
P 0.9997741304368751 4.758129197249153 6.026909419998334
