48
Energy = -247.53196633 eV
P 8.168641023718308 4.315277020036178 0.671961990988364
P 8.011594894577442 7.825224413341093 1.1892727433638992
P 6.939114575317679 6.192610595684202 0.07850022247006641
P 5.116628656094777 3.7437047425497525 1.4666433730233919
P 10.240543773805012 5.010043983228517 0.9783962521327157
P 5.023492616557059 5.960869748840833 1.2031071644219886
P 3.7714280883637583 8.456277276829574 3.308353907816957
P 3.024404248606786 3.1002763487017244 1.9261101050523197
P 5.9261438881198805 1.1283277046640263 3.175466854571042
P 7.137217692269167 8.877711165700273 2.994016158569419
P 9.369811482055557 6.443178561834412 2.276426668059499
P 7.790325739336663 4.817248749917505 2.792201892072475
P 4.164100839638392 10.578049194406292 4.05237316252951
P 2.4821994075655622 4.351199900639248 3.69967798940091
P 5.661876733033555 7.848074459303684 4.365643590595804
P 8.665452049994888 3.362607079310507 4.223267123066133
P 6.62807801571235 2.516910103473246 4.662412093060206
P 5.594961179522533 5.05196125884723 3.2022441790192424
P 2.384746008449149 8.372122475248151 5.086036646531955
P 3.8063247325765843 1.6334642030433832 3.5669608657905947
P 0.4390093000873128 5.060942398579591 4.267978758435901
P 10.479925428080064 7.579557512701258 3.686705653158303
P 0.965961010971382 2.879743482971321 4.452621145942867
P 8.788740026759726 8.615749277039406 4.500766710059293
P 2.9176832503342176 6.7897497350770815 6.590874399445419
P 4.22589144677129 2.9288376620742227 5.454495729725778
P 8.074533255752812 6.848452840489499 5.908345304369854
P 5.5924207947743 9.78366011187652 5.575893290131532
P 4.724971710065811 1.013398779156305 6.541622045434143
P 2.1724313650901643 3.1658125766775544 6.344668569957545
P 6.879257963859513 1.5980961371837026 6.7227446014649255
P 9.304572849284476 4.891217341260659 5.8449456162864175
P 6.961348218608839 7.247789014513313 7.796482774004135
P 1.276982804129264 5.249631672955648 6.362001038727283
P 9.164609184280017 7.649710145346304 7.685492428429567
P 3.4465678130611304 9.988841976181133 6.16392589138169
P 1.8836319787116271 8.114770116908096 8.033909836171198
P 6.385775601414708 3.707581670048743 7.318693374609938
P 4.051663014751224 1.49599961092796 8.596905818531162
P 2.0052454384386684 2.178895810663588 8.25175207723792
P 4.0689649090562 4.833841090789948 9.299708883067899
P 8.5918671206019 4.058238430166917 7.743151926571628
P 8.400348549298055 5.960030755457705 8.907481185654817
P 5.562557362405787 3.1600872506469795 9.311688673653506
P 2.2852080395437078 7.216785614485536 9.924511924806133
P 1.7812123069972756 5.077104069346045 9.837715537629117
P 4.3642662504076215 6.618595131511713 10.628399868733187
P 3.370524101655236 4.77499753986984 11.400700694348599
