49
Energy = -251.75656499 eV
P 1.57313103965883 8.5576115911346 7.37248078777906
P 5.544883329578155 1.3015978378804103 8.549580819949094
P 4.552498751879571 4.819369556927004 7.019212883157475
P 3.835487159241294 2.2029849134654547 9.386599064880238
P 5.2851190808994755 9.655530012803368 8.596021582663543
P 4.109420155589159 4.030478098715202 4.951445112851389
P 5.581578562011565 1.9463309543374208 6.564788141241098
P 2.6113406598435756 2.594248224195018 5.829472211255889
P 1.1320522124196308 5.488430268742832 7.352946305265255
P 2.9803961669149857 3.481424663272651 7.862618484525952
P 1.05680118269457 4.216041238568096 5.487650309654111
P 3.094940502629738 6.722988881132276 7.024470956153492
P 5.154157817036705 8.599199192365264 4.358720293639219
P 0.3926738060468052 7.211298461126727 6.048926289790103
P 2.3848631222467067 7.244650769386988 4.87184976545173
P 5.45713326925541 2.8713359930181217 3.4334342857952613
P 2.4239773798517663 5.075106880122503 3.919251388175662
P 3.5678669748169036 8.059063689311634 2.947816239390631
P 4.38487469482779 9.923080235155842 5.851524826806462
P 2.289951018770794 9.50142291684554 5.499245960831491
P 7.043063502885887 9.471870435056841 3.565212755876766
P 4.2774106834766545 6.255045259235942 2.0405836231604
P 6.138117433251368 6.1582051830358235 3.1558042524850745
P 6.75492555395684 4.235597719549354 2.1895301787542043
P 5.163578213372365 7.622762784004567 7.674989046871414
P 5.18169351147177 6.767223295602543 9.781465392348018
P 6.139468387523662 8.671685351116077 10.517400126165466
P 7.362628745432625 10.96292583945269 5.7127288581209426
P 9.38459505127388 7.2304120985775 3.185269432675641
P 8.598245163471429 8.592726809324846 4.846966699129519
P 8.541013849572186 8.417571207816271 7.859276719424015
P 10.884034869633007 7.4856728758939175 8.039287028190271
P 11.62422433631551 6.956021883397453 6.149699991390878
P 8.3372346855902 8.481979485826768 10.077022641392768
P 7.302269005617593 10.258114350131848 7.783355928126309
P 9.827178584808566 5.633634315708818 8.74690345884672
P 9.468534441339102 10.409479020857612 5.675840011148234
P 7.925741130377286 6.190401395236588 7.725081876100674
P 8.782801844190285 3.5717209864501913 3.1352679924408684
P 9.14957180951948 5.373512660796769 4.414441227877275
P 8.607452151890373 6.311182675765987 10.574456735927805
P 10.564446038460455 3.052146715298481 5.895388082658653
P 11.151727948218268 4.984428149630534 5.157924564357476
P 7.512139255720032 4.9607250068630195 5.896950500497982
P 8.652846868359816 3.3090099101726835 6.935098652087248
P 7.433421639750471 1.9697714062378857 3.923490078279427
P 7.671236203952405 1.4842857693560916 6.084537312356895
P 7.478816570320392 7.5945424349914425 2.103663636023809
P 6.881744905079649 5.338460358730122 9.477617496444084
