49
Energy = -251.99556638 eV
P 7.455187276420472 4.985660468847974 0.7318330850682954
P 1.1571708221723562 4.035362820202724 11.128089508540771
P 0.9147945067654322 6.046035999355655 10.571754820074023
P 5.3265282531750335 5.046006536944686 0.0868400104824918
P 6.660720801923522 6.8136142147684104 11.265481297258518
P 3.952628995366831 1.9083256913889493 1.1867783084036523
P 7.426267192602827 5.668246814548564 2.842793892793008
P 0.7953272177962966 4.24094210252375 1.685972452824819
P 4.8973657647253495 6.965670612212436 1.136346929784149
P 7.951404735310894 3.7115226879238388 3.898250021258469
P 0.8233485424909762 0.6187828330174343 2.402880869602901
P 0.4329420804510033 7.2839041723998355 0.7271562116229786
P 8.940820465343732 7.090384006994914 3.3034011926167413
P 2.6583837071079297 1.5456320163240402 2.9003355836664806
P 5.595311092408549 0.7871151769904003 1.8147682770359639
P 0.7946873998891959 2.6257471014417604 3.273453852614595
P 0.34509657774787383 6.123932897439413 2.4769397984494175
P 4.493458585702181 3.3666140665980184 4.703624810579951
P 6.249154470706789 8.761736175718418 3.4479944405135567
P 4.57490969055622 9.544016938068959 4.876015055743739
P 5.426994466859185 6.616097642737373 3.2510302653003196
P 10.118905749692662 6.218895323294616 5.870598795535266
P 9.858950660964709 4.077376996905532 5.0805973093363805
P 7.624106430834812 8.958800324099423 5.215362828705868
P 8.049550153425253 6.808331849818779 5.350189138236271
P 6.512520064158648 3.2369282863905613 5.490550292846336
P 3.8193012384869984 4.6104484114760655 6.6760966824176755
P 0.9274439534676033 3.9999134608618228 7.767658299519836
P 1.74986216253292 4.996932328409542 5.874597581799188
P 5.570043688823412 0.2825700332535492 3.881799656988173
P 3.801636119642541 1.2164313692535749 4.787014444395489
P 5.937337228343903 9.435307357753317 6.670164740344053
P 4.645000075769086 7.722570771831992 6.130583120268727
P 2.978357304805866 3.0345729161678987 7.999978177517713
P 1.1811669134065363 7.056600490517074 6.742940489642712
P 9.334031202316476 2.633346622207385 6.84108611751999
P 7.53093190244827 1.4951307477531206 6.226058754074897
P 9.966935637652938 5.88874027723821 8.127420115043446
P 6.296948505962086 4.740122779722074 7.242816487019654
P 1.0868963421545061 6.036987933999322 8.79251714612855
P 8.487895346766233 7.479827782412339 8.640867676873208
P 8.458414087559156 4.327440640812782 7.973431012030963
P 3.0012958609379528 8.100357874655362 7.606759314341981
P 3.2612452937338445 6.1183916869826 8.622001335503448
P 6.007458294945733 3.1051948912039906 8.812462917235074
P 3.9783482800578893 5.55402034268629 10.57175482007402
P 4.033711540263689 3.4749695317166944 9.93767830852919
P 7.427873403415473 4.429080726481177 9.962936017779493
P 6.730322716189496 6.424350069930116 9.14094086709245
