49
Energy = -253.38167128 eV
P 9.762071342533412 5.769010189721509 1.8607946521962648
P 4.241671276447754 8.130043116382126 1.8623778060946505
P 9.829826870254193 3.7866928660060086 2.854703105095163
P 9.50697286899212 6.940768125160772 3.8600807819659795
P 7.912853379379613 4.638233457312435 2.197078331075211
P 1.2513115080703698 5.0726199254535995 3.6121708203031884
P 2.371413633693817 4.785895340747944 1.6960364050900725
P 8.831258540070978 9.087812320554525 3.7195792975887243
P 5.6938474091816635 9.752664333030708 1.921472858951468
P 6.291729844619146 2.3225532529373902 4.126756824835395
P 4.309250787327668 4.008012407772576 1.8038076065697415
P 2.3211583733456354 8.526526976974393 3.114542655664977
P 11.64547791336289 4.6882389650526495 5.828996347592503
P 2.709257891905685 6.597680637759967 4.198771958055164
P 12.357685830105149 6.711644316088015 5.781771391186959
P 7.656940576547706 5.790174373917515 4.321556524931127
P 4.981097186471649 7.46857998487041 4.058150305505352
P 1.430880098707761 3.397895895608352 5.194302857512069
P 3.7682535794390843 9.359815079442457 4.583690167752849
P 4.469431279307438 3.616046412405112 3.9068428397981254
P 2.8907034802333067 2.023416618401214 4.222840320271038
P 8.791174043046897 9.258188481101598 5.980552935082559
P 9.449206867412784 4.5950397124958435 5.0072900597268095
P 6.604940742855106 9.07866058023852 3.730532788467739
P 11.174169856751275 5.046079776564765 7.959462663299082
P 5.234186026349971 6.64020564909615 6.304219115613851
P 10.97164802798614 7.222396015869957 7.409874486920983
P 6.576442041033389 3.3950394203284873 6.0745052681048195
P 3.040339876711285 3.8055884405698217 6.7229200615001465
P 3.502606431443335 1.6037027971611122 6.323198292454362
P 2.976404782855712 6.726303232442491 6.468768482433639
P 2.55651039750358 8.893088218262898 6.419362026887322
P 8.766555825920884 3.028462445983147 6.433102096606498
P 8.91061537656421 6.968529568807333 6.3541937668475414
P 6.669108582250353 10.011477706068012 5.820496770967718
P 5.738261402966108 1.3207809158660377 6.0436599258389805
P 1.780710272640853 4.002926305082486 8.529354457527587
P 5.883356449523056 8.504243188546056 7.313280347749633
P 9.058622061420404 4.241776186314484 8.338803896403052
P 8.309844296129546 6.3141285869833395 8.443463481371255
P 3.952869798646518 9.34064909211197 8.098974614240321
P 3.220827635396473 5.288562948334632 9.358306285988474
P 5.252947399557701 4.38356301550856 9.193590847938067
P 6.142032727333124 6.407143720094985 8.927366857586144
P 3.1682052709389374 7.61798919593408 9.328181776812865
P 5.317734782481644 4.700675719792079 11.47774349826611
P 3.185863691131413 5.596831960495957 11.570911725615918
P 6.2433118201583575 6.736940696774143 11.174604853069065
P 4.140155665184182 7.648447649760064 11.318700580831575
