49
Energy = -248.63555892 eV
P 10.31141708674694 5.444173183287592 0.9233746268997967
P 8.29927462560491 4.574092739416231 0.7187926608488487
P 10.91269543356591 3.984308838606852 2.502231078063836
P 8.910082439963242 2.964779500340188 2.1088116699144095
P 2.655722944507699 2.984079014080521 3.5753809523766247
P 10.043953781584147 6.838252324823717 2.902729162322559
P 8.937372006213808 8.661555762191922 3.7644658942515097
P 5.02418100431406 5.695757181164328 2.273665050565379
P 7.1759370988792455 6.373383397034123 1.893386324432355
P 2.3601049790371977 7.811550710912211 3.7759154493964227
P 3.9083716687053776 7.730292925064749 2.084531129618412
P 1.6356736886269811 4.675795671609584 4.360536544647287
P 9.865402937908497 5.106637422509693 4.206579789030627
P 5.594726447038358 8.98353911627157 2.8226975768045945
P 3.4077798423937518 1.6743311930570643 5.056836576505389
P 7.844294241079031 3.9611666289831673 3.783823521382462
P 7.071754278384518 7.554152227545655 3.7636364410954943
P 6.6996417910791415 2.42618337799497 4.997598699005725
P 9.562145561832903 8.832950062364691 5.913812215734451
P 4.81521484459556 5.582380910471552 4.479707577477613
P 2.6300183493144593 9.942800952798919 4.548227943794676
P 1.2767932821614476 4.236472535182959 6.476143602854669
P 10.620322135438967 5.35025373465998 6.217545714343484
P 3.8187347896977797 7.448422129565057 5.456040082884907
P 4.120390436927613 5.793104894772378 7.2282530953180535
P 4.775044993138331 9.441244730144694 4.801622023878534
P 6.631850982541903 6.2986374822281395 5.628869858097565
P 7.368757964605343 1.5375859743582776 7.040470649443694
P 6.903084784103522 4.098026784591052 6.379672629695682
P 2.5608769180254454 2.5302609621763796 6.799110314627863
P 2.742103361724075 9.164893584212424 6.724177758542451
P 8.05321070965106 9.523991533080157 7.538750240408948
P 9.055276322217448 6.787288155690603 6.606331760546222
P 4.574247786931506 10.209180030449861 7.581427077801487
P 2.0375201130290685 5.6285145361375974 8.050629552974996
P 8.807042992368647 3.411144224709558 7.312574001361437
P 6.08774627647988 8.63114026399126 6.9481995517752315
P 8.892510562775326 7.789224199839614 8.63726147274465
P 3.414493434609101 2.4088627763190473 8.767065996305233
P 5.04300421053368 7.202853683609894 8.650268392764074
P 6.173438637009034 3.0708204950035762 8.235637397066036
P 7.897377557228994 3.980944013471187 9.316417055370707
P 2.338055327074265 4.054102579627724 9.614015963038076
P 4.2442564018035585 9.090028824435247 9.512734683720732
P 7.0513735439871095 6.843580292529374 9.578975828444854
P 4.3036600648482235 5.963501644588732 10.6315900273025
P 6.253229199780785 8.86461098126464 10.598017183609072
P 6.331069730198606 5.608075876356131 11.384414884882275
P 5.192953158204331 7.465260664945053 12.06123304449923
