49
Energy = -253.83901837 eV
P 4.390871975837332 5.230823228968845 1.1959609089656316
P 8.962154071303392 8.121447443222653 2.4547265813140804
P 6.789181333384971 7.908157127655838 2.4326392923672104
P 2.6960185342187706 7.551991486144858 3.1450579107381564
P 6.351969648371362 4.046177439746317 1.127990335660703
P 3.561797285883961 4.130212676677265 2.9691551716362135
P 6.037502085189038 5.703139184889666 2.5869276433618054
P 3.9979071077618653 1.9615760737911574 2.6840209613386685
P 6.207188999844153 2.2797177839070284 2.5579419925150395
P 1.6406590563691974 4.0930466826459675 4.102501799453977
P 1.3358349532422484 6.380772197935282 4.421488390275508
P 10.97598191462103 6.614428577797299 5.633378858161495
P 6.16281085826967 11.346849639936986 4.0820228110789705
P 9.29267595886027 7.732292448900014 4.557779639544121
P 3.9334779973442306 8.52173110106978 4.576126087260159
P 4.754878346442495 4.741407248372193 4.699826714384914
P 6.4766932050784725 3.2858580539226976 4.517702113649045
P 8.029994284709986 5.883063180855969 4.651286699464168
P 9.250751426164284 9.738388128629515 5.479795586105643
P 9.224004813118524 3.697972121961897 6.530113882030125
P 4.170300822677294 10.828064980122052 4.6816413019907985
P 3.695199586712449 1.4089687703702016 4.880996549259987
P 6.159021241934889 7.795753436983941 4.607943468495708
P 10.091433978370409 4.779075749515711 4.699336354991955
P 9.641834118660881 6.410278667771821 7.438146595252392
P 7.742579108162949 5.404681860803664 6.821694059027434
P 3.0657663613762516 8.60120933819199 6.600428157542065
P 5.584833347831429 3.364069651010509 7.332716575700833
P 3.084974847442736 3.4399572788721953 5.671763195072171
P 6.990696262282601 9.78411349326388 5.265502695561346
P 10.410572697583351 4.495086346384064 8.27758761927416
P 3.3973863998571954 5.766024048509757 7.4363954069080505
P 5.77870059592927 1.6274339239609186 5.784204488415225
P 1.548980395439026 6.702303854476898 6.613795371519345
P 10.01222388583503 9.803473680071672 7.4726745817490325
P 4.21310819569094 10.606768042539194 6.933039991452575
P 9.538098397585976 8.132091799137935 8.790472318664154
P 4.126819593053296 2.7136547453142983 8.942660648551895
P 3.9281550120946833 7.603148581963766 8.567072482327502
P 6.080762364567102 7.7541893651741605 7.8121077868137565
P 6.295525310295078 9.971442665607725 7.391926346286971
P 8.66516087359564 4.055544415817993 9.647633442392419
P 2.8372385990294546 4.591439172675574 9.32536664615896
P 7.228934189698324 2.5794712660636567 8.745983323845838
P 7.457621548614575 7.927692088181964 9.603553045198833
P 5.811026674284318 5.128985649508947 9.693539076544502
P 4.022851744034876 5.928536097225315 10.640017481891743
P 5.793336794721246 3.0492700110011928 10.442213044923655
P 7.685827261580507 5.909543257403993 10.604468629837065
