49
Energy = -255.50089777 eV
P 4.766518748869017 4.639707277707211 0.853323246501311
P 4.405809326002513 7.497498689828495 11.786895197556323
P 5.179311834932028 5.497141111094241 11.474053116863367
P 2.5986869589613413 7.348131172614625 0.5761219731870898
P 8.319821950654067 4.959968065833617 2.5171589519565125
P 2.6317370143101178 5.112556520260606 0.9456442307335255
P 6.146463916463097 7.682587085448067 0.6375240712714606
P 5.564863801340905 2.760030198282277 3.399582091297207
P 5.495231486175399 6.274250072369486 2.206318694408315
P 8.502795419810568 7.128651698343358 3.1050474873080827
P 10.0986756855422 3.8141336238005676 3.4478381301054872
P 7.102106631625822 4.213446044173643 4.266887241405562
P 3.8656109286524325 7.8052614630055235 2.3036272095490564
P 5.4614664716297945 1.5633780796863113 5.325938233053188
P 2.051651465980479 4.635857975862905 3.1404961952513326
P 5.371858970413166 9.390933404681022 2.170486832382674
P 3.7534083866023193 3.777261481335814 4.310229944894356
P 10.623878886985215 7.079969439873491 3.772370793891488
P 7.264011699703929 7.387351732209545 4.959642781745909
P 10.815955506099368 5.233072741780713 4.962757259760967
P 3.2339500951518176 1.7497610756331705 5.0546513727218745
P 2.5262343210793743 8.383953201324019 3.9397113479908623
P 2.0899912833686765 6.293581940568066 4.7312245438068645
P 8.680599765657064 2.6450491187202805 4.8160284800136415
P 5.999655431549997 9.240910677247005 4.343688281203075
P 4.251907112010048 6.219627447352793 5.321577116576035
P 10.662201477749186 8.486647630547019 5.5295983499425
P 4.141812726002615 8.5443358156435 5.472546878513007
P 9.307560437753274 3.3926115093440257 6.848404922568008
P 8.547575671477878 8.756074803538334 6.200523756038858
P 8.931422739091069 5.524150414603028 6.174179640214524
P 2.5655462540727543 2.042695066165348 7.1542500271089295
P 5.894312022046907 3.369768970160357 6.612935179466993
P 0.925748126670396 3.4225020948259934 6.960616578850229
P 9.845904056420848 7.264433656130966 7.269053852237934
P 4.166938468426637 3.5702161387522118 8.054970252007507
P 7.523371937799517 2.5291896495160087 7.853103417647217
P 3.9929358100313523 5.741767357569642 7.485491770628458
P 1.9799060632822882 6.154593560766234 8.3048560792952
P 0.4819803341709638 2.9284075759476873 9.061479677876584
P 5.617497359236631 6.986592259018622 8.513785954212473
P 7.495271900354436 5.989469728539933 8.836233192451443
P 5.307936692047673 3.284072948511846 10.021431044392388
P 7.370971960668731 3.9304574727001302 9.622293190152574
P 2.05456242390094 4.278137035664472 9.455730322936734
P 2.619141904384419 7.039564096701786 10.389210250274138
P 4.849451352255047 6.987132052983629 10.557513641612934
P 4.864979340604833 4.909599686018191 11.436820675335449
P 2.5699804181803656 5.052721713513962 11.474053116863367
