49
Energy = -251.28720365 eV
P 4.633616890501476 2.5539899875136793 1.4287701601983267
P 6.750025682391691 7.256502724080936 0.3196343465681127
P 5.025034596718391 8.326024061235273 0.6470171117750296
P 6.595274001804974 3.5700279790022953 1.0182269117925005
P 4.076984659807151 4.577311358419953 2.3479805948345303
P 7.304108130561177 6.573191941447664 2.365843003626957
P 8.128664717115033 2.264674958261457 1.919097765860115
P 9.32994148125785 5.720854071191863 2.1746362032623487
P 5.741190609645281 10.031258963985556 3.3985151754810254
P 1.2738063514062898 6.164665480851911 3.4781778535798162
P 5.214972660848998 1.1273013512663288 3.0556855353076373
P 4.782901690293901 8.112431942743552 2.8485492014269314
P 6.250728874505613 4.708281744124528 2.879704759185499
P 9.694373373551873 3.7135262355930148 2.5512508552366087
P 7.3120604958782955 1.4400936033035312 3.808427184262412
P 3.575109349693858 4.041567056191882 4.454395142988102
P 1.3079447693685944 4.172281508485327 4.43143041857958
P 1.3702413927095471 7.645648008827342 4.904611958845661
P 3.631713729703701 9.808435165694032 3.5903185966046633
P 3.771523186126946 1.7897904966501508 4.6185390046214705
P 6.667886141232607 9.225982056282069 5.442720818950401
P 5.467149852590976 5.964058192939665 6.158424254113156
P 8.841013351625254 9.106745170027384 5.569287328416777
P 1.0064766025944185 6.7509918830869555 6.853548338024453
P 7.119486036642054 4.626676205221107 6.8256230312757324
P 7.7684487386088525 10.793156782927545 6.473149928607481
P 10.925637777241255 7.85076692895746 7.982060352055716
P 4.064676673045528 8.858363324132547 7.1664484262225425
P 7.036422685710062 2.5764355037942885 5.765272374818431
P 4.544234861796485 10.368445955463347 8.619831879863872
P 5.315107694852046 1.3063418682803047 6.148026934891741
P 3.9696448042669905 5.486092134952385 7.770586382073248
P 0.8932426429983282 4.494849293923429 6.634759591470551
P 6.021006087962021 7.8347002426316035 7.291733825344279
P 2.8956844747293635 3.683205386456037 7.145790299133969
P 6.579373689442638 3.519056229408343 8.698938287953839
P 8.235136617670362 9.993293003791836 8.79028768841343
P 8.725857644161636 8.088144151504242 7.725905486732002
P 5.470387468052262 1.6445447356749692 8.358206731811944
P 2.7114126065475905 7.216515069350514 8.242310598630711
P 11.094887800950797 8.204780588079371 10.013038738502445
P 6.243974084859394 9.665569423497589 9.834444892090906
P 7.8935581934792864 1.3214999629074424 7.6020988658385305
P 4.624825249271695 4.608306991313405 9.680841033993039
P 8.592915426529755 2.7079121612393946 9.022931504597835
P 6.055796045326083 7.490103392556379 9.58420669581865
P 3.3852098707351646 2.842485281703595 9.159956875328222
P 9.012578416484265 8.455627368914776 10.673618671156799
P 8.124923932119748 6.774664187529169 9.582310495249523
