49
Energy = -254.44068504 eV
P 7.458184475588341 3.0866688454385462 0.8697114123816652
P 5.01431656440542 6.09479207873912 0.4699241929358436
P 6.762969801890302 5.150989718526 1.6362409944679737
P 5.452467800523915 7.60511395302707 2.072297522184286
P 3.4423568890259757 4.724980164595128 0.9861518045588239
P 9.409537316072964 2.778958414570902 1.941633451249549
P 8.746608224372684 6.251291190205828 2.3569951644939264
P 2.7730131229279826 9.965162938302019 3.2881354197742048
P 9.825451756503973 4.576942193510214 3.250758892611292
P 1.8876103959642543 7.913907074744207 3.0044698171561177
P 5.845671822526005 2.243678810108487 2.173238228813805
P 3.8822952152845995 7.015094291039393 3.381210358824101
P 3.659764281815854 4.823142518154006 3.1302547798178066
P 5.8744865746462835 4.134457015771262 3.3536578890772537
P 8.911397198382325 1.832631706458582 3.8721786901796724
P 6.870449561804415 5.587458453174119 5.426968177922481
P 8.525776653016976 6.825893890271231 4.523836026235952
P 3.9603161181005815 9.77759058464204 5.166678860731888
P 8.244538342232655 3.7489769405615037 4.91432026884046
P 6.854418460034461 1.013889877801168 3.835112634335921
P 0.9656163395294822 7.974448718362732 5.049535848459038
P 2.0400380755316427 4.016213339683302 4.255273705626566
P 6.285974363525977 2.515101336551964 5.414667899579379
P 8.68687762581484 8.938939178970529 4.600043355705567
P 5.8923004989959 1.4919157294309426 7.336175379448231
P 9.661982135308037 3.9906387572291253 6.620762845198476
P 7.258805027987526 6.300600947821227 7.506782132514551
P 1.7620000962639213 10.062203970301237 5.338051643076933
P 10.239171870187304 6.050466869395658 5.896770390510111
P 4.33036359763938 7.596639023917243 5.470028767662973
P 4.0436585818823 4.3710811744807625 7.2279914169809825
P 3.7512840766487274 2.189883019848435 7.389742698870613
P 8.310386887702846 4.531363406913171 8.327452163513714
P 9.127535945203745 9.210404048321825 6.665298420698333
P 2.0640549865051248 4.868746570235045 6.260304510907781
P 7.126793026853356 2.7007089758440803 8.790484067156278
P 6.4156552915082425 9.24936213246941 8.280575783865062
P 2.4084882917910866 7.073507626151914 6.4458712180876265
P 3.4908455588481515 3.447153714797707 9.191838647984527
P 9.326009683729424 7.20614972292913 7.56493976576642
P 6.070829604515265 11.052498495117717 9.539469662961858
P 7.527422780911861 9.499419978822012 10.178980093289482
P 5.6683052486209995 5.594478507741386 10.454035947763037
P 5.5153964334410785 3.384234356741303 10.217328451469202
P 3.7791808285787307 6.455859597943977 10.292053790313295
P 4.422193802397868 9.589972757317254 9.22195188157391
P 7.2703021674578 6.332670719482676 11.536926901298628
P 6.481412578816675 8.370761483954158 11.79752342603844
P 4.31477575260944 8.4222469135096 11.11465633101284
