49
Energy = -253.06861358 eV
P 7.0466767025083685 6.399890602075169 2.197017252427045
P 8.392393580491195 4.686925328335763 1.4475766602528894
P 7.590586492079905 2.7310389279446934 1.7561361463700946
P 8.576824722718461 10.048009877273167 2.423362537643137
P 6.911135791126295 11.058782711174866 1.5835163183441647
P 4.848074166964551 5.970683498036502 2.4155577435565476
P 9.79298297593293 5.522632018055272 3.2736969001747607
P 4.343727074621725 3.775231988491595 2.680529287840426
P 5.3594171818071334 11.289426568504329 2.976658395453294
P 1.5669674046134416 7.261116190882957 3.8709963978764366
P 6.059273497545759 2.496702396737505 3.308952269879614
P 7.779482429266656 5.597323166617659 4.101575691431296
P 10.528865045607953 3.9528855853184046 4.671456894197342
P 9.048997108165462 2.2839869484593294 4.544823537228588
P 8.172589357092154 9.583151765879322 4.433605716797914
P 3.5528945733681256 7.997133773637383 4.498073000288183
P 7.623473466801459 6.887766514130666 5.886553285499929
P 6.160311232221521 10.190531619644881 4.578563729239778
P 4.875385138559846 6.245871316684792 4.684426716044553
P 7.117779240872481 3.25782336863299 5.124610116511867
P 3.557244324622374 4.406706566100146 4.684213054201709
P 1.4571676628437575 5.217327095490713 4.575936734051614
P 7.1353174336752225 1.560922458294239 6.806200005848698
P 9.397764211849037 1.4777938336862118 6.68777562578157
P 9.577598543590275 4.7073180674071535 6.587489488241931
P 2.546621497252055 8.791066572141885 6.300046708795734
P 3.9646085064934358 5.882109546120977 7.5612855589845225
P 6.126512374175279 8.648652013985663 7.8176960301525416
P 7.414232643694233 4.820550171550795 7.084992321841883
P 9.777670909723065 6.954561996377358 6.669767347337822
P 10.249045763388857 3.1288644106133194 7.987136730575463
P 1.054638216456955 5.440186205343738 6.767941462334453
P 5.811305114459147 10.710356091401733 6.729938824366399
P 6.74196040547342 2.9775871115886514 8.399451016550884
P 3.692626959540422 10.483201124109518 7.488435254714127
P 3.579691559064394 2.8539950540484518 6.134504349689202
P 2.1844436154094637 7.149135064466697 7.75289409191859
P 2.6738281608915084 4.072605326832554 7.722453837428538
P 8.617331758965026 3.43991689401455 9.491800171349638
P 5.186457546903327 6.497942133066688 9.317006143799883
P 9.364938974110581 7.103026622018877 8.884656511308126
P 5.223318634816604 10.14472527650621 9.171463570299954
P 8.055363502636691 8.933136643037534 8.924827493471001
P 3.892530186798129 7.365251407376293 10.854408233071252
P 7.794628341250542 5.588951740177008 9.224197005570218
P 5.204832554978689 5.637690695292039 11.367550655252646
P 7.317016316776844 8.553798210725796 11.104967840794199
P 7.286479802491027 6.411857059180615 11.634614925366682
P 5.154475857588554 9.191339004811535 11.196148972128077
