49
Energy = -250.92369958 eV
P 5.438759317029835 5.6816185705617555 0.6401306699142862
P 3.373066143525762 4.7427762554701465 1.3387253558270162
P 6.976752346088501 4.771600087241201 2.0258029316610666
P 9.281940985901684 4.376560130599209 1.658214816525788
P 6.091699179876397 7.773451875632792 1.2275662398230682
P 6.304256650378619 2.597792787396387 2.063219111357774
P 4.684159806688207 8.92747765686096 2.580779130216017
P 9.299245497278084 6.533695369781946 1.0090867346491323
P 2.773041505947674 5.587519736199061 3.4517769216103362
P 4.2358629848240374 3.1494947013653425 2.634563691938634
P 4.852923302592592 4.96896578424548 3.7291056555623787
P 4.527703926127515 7.898263360588542 4.58251637744037
P 2.4613916574221717 2.069237327879975 4.96804026761803
P 7.785606983052297 7.103773273833891 2.517025948708928
P 1.50247782383995 3.98800491327814 4.680350688960485
P 6.197635505763313 10.287739119375434 3.440933349189088
P 9.634579119924553 4.966703620056884 3.7130568093189913
P 6.510212400278817 8.806820840464002 5.038066310112544
P 6.893430880507838 2.6407646531405393 4.327617248028048
P 10.684100547826375 7.742479990712994 2.2521327349005937
P 9.076096128609713 8.809561244332617 3.0786482086779463
P 5.653073729244381 4.014298175683695 5.5459169906369175
P 3.1571114181915814 9.585689872485661 5.129014894766024
P 9.105615643002395 2.955453161684815 4.406926157231053
P 8.911966262661847 5.029986537878842 6.896393483737278
P 7.074097016123519 1.130011017707176 5.978409422083553
P 4.126848855629614 10.66870624357309 6.809061467309759
P 6.301369719568303 9.949446776679778 6.9149157594599036
P 1.777909746184417 8.55020676848687 6.614412247859872
P 1.4959014932959565 4.864048284873846 6.775076885241164
P 8.88105689010316 2.8314688476234715 6.645649210333094
P 4.064743896245977 2.6128997372006753 6.29137063337237
P 7.041002572693261 6.218606074388098 6.477219623739688
P 8.220002707842534 7.564043961137586 7.848599654965346
P 5.208703383181631 0.8522404831608488 6.909219531102976
P 2.934728660220115 6.642427779199516 6.958438322141329
P 5.584852805265214 5.360528015634165 7.897268733589532
P 8.935148514866231 5.752348263901416 9.037204876808321
P 2.771335038846419 9.69141296515553 8.23296476883708
P 7.005316689362837 4.80048527722315 9.563021511294336
P 6.599355119008414 8.748915303250548 8.810730587983143
P 2.618847899419905 3.321445208523665 7.9294802342630994
P 5.025837770534559 2.4928858784786025 10.026386962425772
P 7.135686334938835 2.7088282526523293 9.952534816389674
P 2.6064021529339723 4.802158654393439 9.647982864338305
P 5.107712571859163 7.030972678003802 9.229949995888756
P 5.807354367575068 5.933979622373833 11.077038795104006
P 2.8680044360618475 7.009668769788353 9.15746339220694
P 4.218740774903513 4.276205253086711 11.103658138098131
