49
Energy = -253.91785468 eV
P 3.382511308310418 3.077637259796738 2.139187443999379
P 10.007312076675609 7.364307382287227 2.4720445393443558
P 3.4625559942099713 5.246406741978817 1.5281490455892515
P 6.389426321498316 7.35240298363515 1.4827731867181622
P 9.05814169739808 9.362032547117865 2.512195061030199
P 1.314847383206244 2.442152365678846 2.8390660673567574
P 10.957907775575787 6.970076157538029 4.521162539231088
P 3.5654588329734622 6.525514361582501 3.3449615554000753
P 5.084602643390103 2.594385311961663 3.4856529266901566
P 7.024381523046712 4.509739966175112 5.229264813270835
P 5.364159998273206 9.247803450968737 2.200880413618253
P 9.469734349592793 5.386988806072857 4.990930119680034
P 3.262428185158682 8.677963417415436 2.7078234760872215
P 0.2779834621408839 3.453584644117084 4.43356931667629
P 2.10153928202716 6.088190266638621 4.890755716981448
P 9.337403187990825 10.283174936820172 4.563390100780927
P 2.087763784688912 0.6402691421680751 3.9473624753467433
P 4.363239541268318 0.5120614557386778 3.9306769388313567
P 7.89331658869502 7.594455761517715 3.155190271018639
P 5.45231519674595 5.621037240190744 2.563493476910179
P 10.46513446793653 8.808895996926951 5.777988739242781
P 2.138171076340185 3.668271687791277 5.522144606187535
P 4.908870492367204 3.8714827638356875 5.309742933053531
P 2.0271425382202386 1.3797935290468448 6.0404875668376885
P 4.140892675177293 0.4926514474361145 6.171649186856993
P 3.6591334221692438 9.906015862593986 4.598019736892186
P 6.54674221436252 7.204639506822648 5.954035323436389
P 5.768027632299088 9.14236081107416 4.397264702082302
P 7.25828105329405 10.512235248955554 5.447476666709625
P 8.258293626209781 6.078088787600894 6.79673707512769
P 8.087478093842691 2.6035999599853783 5.543715455156599
P 10.033533359680943 3.5745271062486346 6.267735260058063
P 5.088760805209821 2.3629708609027675 6.924652166083229
P 3.1209722952596586 7.186020107802461 6.515149761683681
P 1.8141131134385973 4.001605792103186 7.723371013360763
P 2.7277361143522585 9.307134746130433 6.450858228335575
P 5.008456738179636 6.254030265264147 7.164632440856952
P 9.220892991641566 8.175133075166997 7.50948421119441
P 7.217267775207038 9.046086659271749 7.173073206858935
P 9.345900291621856 4.5918647817802825 8.14100249023202
P 7.270499502259278 1.7462947899710282 7.434132785793806
P 1.9850070185632605 6.161737036400979 8.231266828382388
P 3.43260395228162 2.721137634577584 8.58224350564569
P 7.933699096107134 3.1671207556187517 9.07261275980695
P 5.063612030430888 7.4038896466341715 9.121614909224053
P 3.434078465629238 6.031644549318542 9.9745942440457
P 6.897334021344318 6.446553906623807 9.844015713803225
P 6.280512679520756 4.656036019375632 8.816971786502268
P 4.485056291046365 4.023225432200439 10.03003017884862
