49
Energy = -251.0531624 eV
P 5.8515085267312985 3.6195114137709816 1.2032077719033787
P 6.897486522630849 6.913551272693876 1.7317751620736004
P 3.200185557125924 6.141272131726028 1.5891755615038965
P 4.238888209115142 4.390624975119618 2.3857616030154434
P 7.513133988103958 4.757828603816876 2.008586511828642
P 4.93118459870678 7.235054014645833 2.7577295265138186
P 2.9513741788534293 2.692606336403412 2.930944747186452
P 3.171829524251463 8.911028397302172 4.266429165709973
P 2.4254810557395423 6.125797677638554 3.88492099336764
P 6.495879125795285 2.333897076028425 4.179869225824091
P 8.036996286008746 7.712967768752124 3.5727007080431608
P 10.50784581901104 4.987195732459445 3.4469421053204456
P 7.160068792742494 4.5172949217284835 4.222744252191567
P 4.280757406513437 1.9601998191867533 4.686469090855058
P 1.3305259237144673 4.165730113956531 3.6144852783941226
P 4.611240646519964 5.592526200262955 4.3117512710270045
P 7.49848803093851 1.2959341481815954 5.796626162477879
P 1.2635405983929322 6.916017999004365 5.7252982974951
P 5.149333853037169 9.928942629995909 4.366974765946375
P 3.16325853067313 8.06805271139514 6.268045339897186
P 3.7193800023981 3.725504853341415 5.882773357739559
P 8.65841676672596 9.81673910019302 3.381948496953622
P 9.242898766646025 4.42700960124097 5.141555044072144
P 11.487073058891607 6.422202561627059 4.608903155398515
P 9.744406816345355 6.512704576081282 5.924764873048591
P 5.210858905324648 10.979511709633936 6.3289148426075466
P 6.230108777707666 8.057316486588032 4.7045180464849485
P 11.00871980281989 6.612555283550263 7.79403808096264
P 3.635240768420618 9.873260873586826 7.571147386754916
P 4.3917208008748965 6.413635429788145 7.1371653165563975
P 5.403391241807156 3.924319761846633 7.281822274034577
P 8.690742279855238 10.689125691232567 5.30952952817024
P 0.7841548273829381 5.164547575277822 7.069652554558823
P 1.937480342674457 3.2610372467339044 7.155297692039964
P 0.37520221208900517 3.5532588361550808 5.578718386355464
P 7.325552825096242 10.582151384272045 7.031491226066702
P 6.465170469223298 7.00142000071247 6.55972462740949
P 5.69224333960951 0.5210818105231974 8.786939264415338
P 6.625429150528607 2.103579950566442 7.571114035381386
P 10.240189951143494 5.2659092726353505 9.3536287752985
P 9.97988447932921 7.495138123344681 9.565924519747332
P 4.114616521274294 6.918282330074097 9.214899605213157
P 4.690384188040623 1.6957919824910954 10.133152455598353
P 8.163915091123068 5.193519556135492 8.426515710027237
P 4.8849878704531084 8.947623938969821 9.161479689629163
P 6.808563525435321 8.533572855660417 8.079253284274422
P 7.285561019429934 3.449070567187336 9.528494283971337
P 7.752475497537179 7.079951860912533 9.586284354421034
P 5.106567712736257 3.848487021100576 9.514255777763728
