5
Energy = -23.14094602 eV
P 6.908388899618289 8.050742369657154 6.718209465894706
P 6.702972188693739 5.036525466936574 5.035203647223883
P 5.902764265713533 6.098468034332224 6.833324268130805
P 4.749736445331777 6.0312202858127115 4.917771767211503
P 4.8802929055237305 3.954538964825924 5.661975218269438
