5
Energy = -22.3686214 eV
P 6.757189251743054 5.390462180592392 5.325010338804306
P 5.271938656906343 6.364040205897223 6.375748728974572
P 5.5281002460196875 8.588533695111394 8.817305358169055
P 6.696553064681376 7.616269746853358 7.519144028862229
P 8.247182656176093 4.541658047072186 4.4637554207163985
