5
Energy = -22.16707552 eV
P 5.2043164072226205 4.361817397606564 5.844886428747227
P 6.283531858488999 3.031452187295725 6.768616650586905
P 4.560060436951134 5.370734323867394 3.928647010384063
P 3.7895267875829677 5.965327101584373 5.832231100196473
P 4.6442840513592145 5.54614270882699 1.9895236170453872
