5
Energy = -24.8153337 eV
P 7.420662488157453 5.840929275246645 7.976457325758404
P 5.706804596943206 7.184855598420593 7.548204420645419
P 7.494971711193137 5.685966737319139 5.763642168810812
P 5.2695298713304295 6.040376496890898 5.65316051130809
P 6.610959287548745 7.750799847295585 5.561463528650686
