5
Energy = -23.4549254 eV
P 7.273996119741634 4.419368505354703 6.2755654927511015
P 8.073743887820667 5.931676362634994 7.378158646293171
P 5.862506539523371 5.842345758887124 7.187544271627402
P 5.342671494295596 7.288310452920617 5.455445817130251
P 5.950036550235827 9.021253511819534 6.20624036381505
