5
Energy = -23.13091338 eV
P 7.663245130864599 4.328000447052907 6.243705813296379
P 5.789735243532699 8.116482428564604 7.514202569545695
P 6.954880944956448 6.1921857432122716 6.0698526147487755
P 4.857873785791856 6.635732215600124 6.296343335860072
P 7.853990268159129 7.901211709967327 7.028073188516402
