50
Energy = -258.32606162 eV
P 5.756457324823926 9.163667969420112 11.614793159621929
P 1.624999921678529 3.8480236674549326 4.427371519143568
P 7.840295541408575 9.728758080387227 7.473406854413786
P 6.737232273557245 7.763731761994214 1.3084580423303889
P 5.065819421684136 6.9642024810408065 11.79510008157452
P 5.555564682725664 9.945446945943516 7.579180207228453
P 7.392511146329627 11.808661234975363 4.610811235217282
P 6.039938276975086 4.08155557030922 5.963590165549913
P 8.462921321789072 8.696096943795723 2.189093109847053
P 4.946827123228422 8.357857055331351 2.508707301409606
P 5.1270070977672555 4.510900661528845 4.013333417628534
P 11.612855911065372 6.62626645410504 5.921864891857627
P 7.186918613330233 10.01695001654596 3.4775219061113187
P 2.1121466133206805 3.026255002061668 6.455969267336109
P 5.462767936589351 3.7886023072397306 9.891493350666053
P 9.611098265662863 6.810591195221687 8.939191359599521
P 3.5157899266918973 1.6245460687474411 5.371099611263922
P 8.304642722935862 7.864038701275419 6.245445156235468
P 7.643077268665933 7.948001498794278 8.895585214227502
P 5.231582382735006 11.682251546307368 4.324972045865331
P 10.351970831848378 7.980814258443932 7.179967731153016
P 8.934056730447665 2.351329468458659 4.042186938196572
P 4.773290937339538 9.759723124622024 5.51302920698498
P 3.3083306534500885 4.844865807131465 7.1213635071245225
P 4.264130391086591 8.28563619209684 10.256889082827175
P 8.756268046600551 3.539644745113058 9.511075993425164
P 8.651442080250334 5.039310375130936 7.806544774814027
P 7.037275877349952 2.144361223158684 9.165846240453805
P 7.029054984415829 1.318611993549081 7.052126761424361
P 8.417788135750579 5.594293566455186 4.593923873414265
P 5.46867123446915 10.563471515605729 2.2890575914834335
P 7.847152711355036 8.473313451117727 11.042030483330633
P 2.0299260137217066 6.090256347644351 4.644679020661525
P 10.849805012030044 3.4663079475732763 4.224378954687218
P 10.128461478393467 4.945986423012197 5.867652304842295
P 3.6995691161054136 4.8496200077503175 9.226791335521213
P 2.6662952809654215 9.612408982096017 5.7790384902699685
P 3.533019444778984 2.9797132598231464 3.5497089574252136
P 9.212146541165751 4.245801707351446 2.92154807777692
P 7.267188771401811 6.367166492489032 11.557605653162243
P 5.007827042227513 2.2896766719719 6.855718171671179
P 4.1149520246450635 6.0081188843461195 5.330822828809598
P 9.231287270364076 7.674822895718899 4.118761107754875
P 8.009434157741124 3.0660080324787486 6.000475304003195
P 2.594005946987555 8.332893089478043 7.528378641707477
P 11.358358777730269 7.681411714748522 4.043522338251593
P 4.779657983561134 7.854933678349083 8.09470945365226
P 1.598359708975392 6.250250698771413 6.864806099180946
P 7.169689011569336 5.1612131762477755 9.66081564366226
P 6.021254207911321 8.267250064218508 4.461229451321042
