51
Energy = -264.03067363 eV
P 5.735420216682007 3.5178168027792176 8.830808115688598
P 3.722036180762946 0.8735285939967413 7.824778817968349
P 7.155672265951296 1.1554958416640182 6.914463821788303
P 3.7350673005864587 4.591270315982997 8.916289188606095
P 8.33015807880013 3.780004636254639 7.017056852866118
P 1.8779164389166836 2.0297894827336154 7.441777867305794
P 3.8660909085105213 0.09468160403804439 5.920307453801175
P 6.51770966405292 5.660567683870478 8.982340105069564
P 6.046067626407168 9.715777544947892 5.576398155979202
P 1.0399244655334747 1.7652947642564674 5.365069486787502
P 6.187074830921119 3.1928058465613995 6.632999121695174
P 8.68585937333231 1.2556506441750614 5.2118049554229025
P 2.832190212394302 3.995306003888703 6.941840498655087
P 4.861123735758462 6.154158431843204 7.554898446834818
P 8.340202028330195 5.925565747839031 7.613698806221383
P 2.435111456880332 0.8844778358933795 2.391625080461261
P 9.61458601410096 3.4091067618916973 5.962804015710913
P 4.538647886299878 0.0051250620777772765 2.694742555896023
P 0.8053358727172479 4.858981083466129 7.375310351564611
P 2.3346498312804913 2.7401035659363533 3.7332499313730816
P 9.250433547417797 3.375138371675271 5.056148371917465
P 4.48123341707213 3.3895710878085974 1.1688946681203574
P 7.275539807698877 1.6323388481935839 3.4250576031402615
P 5.166233503055241 1.3685744094459997 4.350799834984524
P 5.820550218320341 8.353951503064874 7.410023319372235
P 6.796150036386663 5.269156073944585 3.2631963340709174
P 7.9618336657416915 3.4902440562549404 2.545677684814101
P 3.702253489775784 6.755472201300145 4.682040026292659
P 6.887501665859412 6.78071929428499 6.190608345356746
P 7.587919546374426 8.223350980122227 4.639451554655765
P 6.423580051215702 0.6343766387473229 1.4945335255715715
P 0.43152297424062047 3.1788391221436383 2.5871099298056133
P 0.6293985320160893 6.7471960916604 6.193522566554197
P 6.556088355738121 2.702643489553651 0.715665481944342
P 1.8456115799948243 3.298793358760864 9.525707987730977
P 9.331829394325146 4.518620234911269 4.013322112374793
P 8.450766726195507 6.730931037832339 3.22215205538171
P 5.075699292368001 9.715777544947892 5.866337365472763
P 4.038709917974182 6.260250989821054 1.8333557606632551
P 1.112780301085215 5.8125874933279285 4.2763150391647455
P 3.889410174030908 4.212958642943853 9.175468081529301
P 3.1694248635750446 1.7217926585672898 0.48281055163953285
P 2.5944818596627166 8.007526076297891 6.195707294776763
P 7.001359351458716 6.742103621373839 1.5388600935756083
P 3.684652914452492 6.397718188011629 9.605491308415367
P 5.390885130748028 8.249526097676338 4.259713462421635
P 0.8022492021472811 4.6794929530593725 0.9885775922764959
P 2.4862065323176035 8.590068507476385 4.027837539764186
P 0.6890752382570053 7.618614672081381 3.123627755213804
P 1.965520249518576 6.646741446831459 1.163148582166526
P 5.293040109785583 8.18445752990795 1.9877811509574088
