51
Energy = -254.64286982 eV
P 6.832560319998956 6.861357772704983 3.4504482436210187
P 7.757131489336002 3.955125160020141 4.316234388786168
P 8.861073058343784 8.031633436616902 3.2527404164118225
P 9.240170326528299 5.529199462874939 3.597274128100028
P 5.598798704744745 8.2936652654618 4.254394346665801
P 4.634353159512146 5.639505471766831 5.934727482887035
P 1.3359541594841997 7.105693586815511 4.147139597977077
P 7.707057812577768 1.416752099950895 4.267403277290052
P 5.586118988959144 1.3139593073829186 4.147139597977077
P 3.1961241022835774 6.832393109104333 6.151916526539833
P 7.787016540384021 8.61919132361851 4.721045506533824
P 2.017553696673629 0.6135692628956727 4.784727108661464
P 7.786769146724581 5.644772303814135 4.756216863510989
P 9.308005981317086 4.1881202843547465 5.756832362997535
P 6.279222121546414 3.3295531354732115 6.787265198077182
P 1.4122695449505693 6.95680693584807 5.848836681468645
P 1.9387042331325708 4.778872561767135 5.348260208009555
P 3.8087522721032756 9.069804547052964 5.964791191424324
P 5.068055420095171 7.775919431338528 6.566264754374225
P 4.217190651903452 4.826619001155352 7.7854210471797165
P 1.7555349013263133 2.513188300041659 5.84572859696541
P 7.037463752820987 3.0042222619408605 7.206835030475983
P 3.190938596365336 8.256943665380252 6.08093394124416
P 0.32190734792063586 0.9091315632900591 6.221830915383144
P 5.048701144987612 2.6823502969700197 6.246490936548246
P 0.537855156293913 2.486096654385127 9.209430242603514
P 6.13788071202186 0.9330770944865909 7.026215745669745
P 1.5193311406941863 8.680373882978353 0.1574868973721586
P 1.835366960656575 1.1769471811022507 7.90194392385434
P 3.1961241022835774 7.999212547619979 8.297701552039927
P 2.346533896144108 4.543282975578877 7.405457599748044
P 3.3587563011090222 0.05639243158414352 8.161938518869993
P 4.819342102411126 0.7153492318065507 8.81624128929392
P 7.261750753563125 2.9557294925326913 0.14820065863419488
P 0.684035980046246 5.335828170772543 8.18618008112449
P 8.263985359574214 3.4598200780086525 7.782943315130105
P 2.7950115438638523 5.855592750640541 8.85222946172914
P 3.682065256747095 6.993800399536471 8.504358002824578
P 6.967414656365553 4.696102462410392 8.279867432214328
P 5.294515396752651 3.9139726952048 8.747695004709717
P 8.83513990767732 7.9752913192167085 8.724019310510837
P 8.459230608651087 0.920372839282937 0.4571798224168337
P 5.33514511524161 2.3070482036740714 1.001530703844204
P 1.130429594923981 5.1212687884167805 0.9918481887238494
P 4.670965072174456 7.770105233103032 2.576529282095211
P 6.894887567341434 0.9865997495473239 2.066776482954947
P 7.383402096972334 5.372192304297837 1.57233638462597
P 9.026360307073757 6.8179440913688 1.3938112637293174
P 4.666643195747258 6.508008842165234 0.7225932230905059
P 5.978503796310433 8.384655862983982 0.8872134957931669
P 6.859383042900669 7.215321628213679 2.6936115038578694
