51
Energy = -263.79476784 eV
P 9.051313126657616 10.276004006334057 6.063938784567381
P 9.463879038286393 3.7087535155486475 7.5412179146394545
P 6.344575273926994 7.982768251061668 6.061000989554964
P 4.254017261202353 7.722842876629493 9.09527334349783
P 5.4075908551155845 3.397322316824744 11.611359366194607
P 2.7093011175179234 6.8325953570625115 10.508289894141893
P 5.8931750536163126 4.0088624081776265 8.184546661082468
P 3.3347666028548852 4.887275806269651 4.029644165068451
P 1.5840353250591235 4.375227041526843 5.32190634623517
P 8.447720886318733 7.610519934440491 8.098908449177424
P 10.251159497673306 4.870365935748548 9.317339831292282
P 3.5753153711817096 4.907428977993137 0.7570644703406356
P 4.317326007391882 3.5041712552022295 5.4971313011181095
P 5.8317131482610005 2.530436862416608 4.146315639428738
P 7.0739418504157685 3.547156572472982 9.999881894166714
P 9.365822285638865 6.775767359177314 9.986848443648721
P 0.04544749811402302 5.440797673030118 2.3392080188917252
P 7.0474689443101965 7.250393243795575 1.698618075699263
P 7.480459347543139 2.391007321299392 5.6299649162306125
P 10.901705420356988 3.195579689491733 4.259388194689104
P 4.35003408294563 1.993315208518027 10.284586594344175
P 10.723684293667054 4.588666549279335 5.939937739667247
P 7.0971395421393115 11.370414340841998 6.257486422575185
P 9.679430465317783 9.436879805428648 8.050292045611142
P 4.496516337625004 8.536029787052314 4.864731230235036
P 10.439970764872045 7.592489655277947 7.0624276106655905
P 4.004024556272704 10.030766617331025 6.480046262678204
P 11.386748403298965 6.7415423015857066 8.938317626476042
P 3.3063212346866364 6.645472583176956 7.384710871953255
P 3.7111277717570266 4.751983919613179 10.862289423499838
P 3.3018326953021817 3.7481109418090495 9.0686659360145
P 5.725447632736808 6.230807000039828 3.336174171185897
P 5.234292338033962 7.704786676604813 0.4548176015343495
P 6.039787892977779 9.773236593045882 7.390504257355282
P 3.91592405287982 6.706594471614752 2.073653306781787
P 11.386748403298965 4.804699968534163 4.2739639721267535
P 8.565069409179852 4.100346064201415 2.720164351273334
P 6.130774655083501 1.9007713262719523 8.840418904570509
P 1.7743853555481 5.806972023778062 8.818642885750851
P 6.215408494480608 9.295888312539935 1.622837763190711
P 3.1594208352713844 3.3756531333418183 2.366500586854594
P 8.858837191129316 2.2428752185656746 3.877937886563546
P 7.205879805236656 10.65880214585554 4.12432789905604
P 8.051957318404703 8.679233650601352 4.794731230533004
P 5.174261120000901 10.107092084758593 3.438105071545776
P 6.34774193355745 4.189667858839195 2.6458816853608362
P 1.5024884680093875 4.241899742385218 1.2318052546460472
P 2.4459608053955986 2.3399744007813745 5.2959823772595165
P 7.536025988850614 4.422606492276585 6.645122684018798
P 10.035422227083702 5.324246402109114 3.966401799252707
P 2.702322455079096 8.736330683875766 7.863163215270542
