51
Energy = -264.18357844 eV
P 2.3459667345889814 1.1618464392089562 0.26128318914747584
P 3.19562531125539 4.660539946173233 10.207668231382048
P 3.955951776929888 2.565319713163222 10.162054375719713
P 0.1850494445488902 6.351712381925705 1.0951530594944785
P 0.7722783922455334 3.892128069741104 2.7245376931497622
P 3.470242132252282 10.149706209156358 1.3470383625522402
P 2.9502560953269206 7.613177653177685 0.39073768795857866
P 2.2787798801047026 5.589520351288644 1.4477152349853513
P 9.78486889802059 5.231668899691108 2.707900819346721
P 5.324406136208777 5.632239451869671 10.311277438244957
P 0.5509450366010827 8.226971688890542 2.3666928458391223
P 5.604853777190233 0.19320315222416895 1.213789422699154
P 2.4446420283975914 1.1752282513416001 2.470302397604526
P 6.226300877842359 0.06057461577270285 3.339363881704208
P 3.967475662689583 2.778100370200933 2.8613187054099853
P 6.823608842714477 4.381184115445824 0.686354737818985
P 0.12085279307519065 7.855335235621972 4.546169539157957
P 0.5004815769042903 2.910530339212781 4.74121998683866
P 4.1253019412113305 6.971873482225496 3.0217200211864075
P 2.7236993882531904 8.657891823237328 2.327625693208016
P 5.385567039559252 2.4002923888420367 1.2163056035055941
P 5.094485954227783 7.401314319558061 1.037238109295283
P 10.592894416449598 4.699120230785712 6.024951237451001
P 6.409957667457185 4.823135416828104 2.8392375458241474
P 1.4527227321659024 6.1483914869717315 5.1153098416852245
P 8.101711382075678 1.3973364047767998 3.1187913018560915
P 1.6041469809872293 9.485010116206633 5.023972968170293
P 7.626924556621157 3.6336214652227166 5.884902676051035
P 1.5486629886622252 7.016165743769433 7.139513202933008
P 5.910300671545261 7.7130876123225365 4.208606567419142
P 7.446837488877455 6.728838878704462 3.028099986606241
P 1.4916088079220886 3.725059615762112 7.435279123212289
P 5.1395661173209195 1.6886164360157772 4.420236016815111
P 2.56774319919409 3.3216071414980037 5.510020440163128
P 4.653716457954079 5.00767881513709 7.109913432974238
P 8.069863858972493 3.5931463310160745 3.6657255937014694
P 3.5591840924938127 1.3532123235485152 5.9860887591846
P 2.6710110298082803 8.852432859759169 6.675328697498628
P 8.670288893561764 0.7794768022034316 5.192124659302071
P 5.8913093411193245 6.916765895504423 6.293023408634233
P 7.880005454382291 5.982590934097782 6.3622826545126205
P 2.721720131341584 5.477892733246756 8.222248015964318
P 4.212709326563355 2.2676078217437423 9.417829906589542
P 7.103904296976089 3.4348912334870305 8.358040280666085
P 6.7573067551524515 1.3366078702057567 6.30271671924934
P 5.578649984815953 5.64320527742519 9.05447840880785
P 4.940948553885663 2.488525615623409 7.442611159659794
P 9.526076076254677 2.5251083408813892 6.363261723912851
P 7.795391911300238 5.558108473612674 8.584218813214898
P 5.802751875638504 3.599485077061702 10.162054375719713
P 8.275554044571523 1.5498663353935613 8.033039508772648
