52
Energy = -265.81112487 eV
P 9.751863376283637 4.878216970725298 4.925972017266392
P 4.576087491450435 1.4059737043517442 5.102818610231509
P 9.252902463629058 5.246002190785942 10.38489864220368
P 3.929762839942925 7.009220232340032 10.396040386198335
P 1.7026009419234716 4.53944859651285 2.3456285360218
P 0.35945047693971205 10.130174394975084 0.9545737017560506
P 3.161764555245767 8.832539329154223 2.1351503319780645
P 4.296190362530455 4.37900554173413 6.566636512575061
P 7.17034254998739 3.4051643517537005 1.286215394193154
P 2.4587419550483514 5.38107410959998 10.182631345922044
P 5.667894803851143 1.9088978404809545 2.0551269894687025
P 5.244453256884458 0.2824046055743253 0.5872495084918674
P 1.467785743638565 5.080035084713427 4.54516782393156
P 6.04154493693326 4.866285988131338 9.207870650201126
P 5.187464320164756 9.622556051006061 2.4399643724192526
P 4.469128082408332 3.9852357909071676 7.84711689641495
P 9.704227607617824 3.6456786013940494 9.1465216351803
P 1.725745807639488 7.424401894944058 0.06923795331507861
P 2.053602671939169 6.755462443024315 2.185672927953187
P 10.331271600821202 10.073050139400749 5.728620288093431
P 8.913997861111719 3.640704038754757 3.2787211849132643
P 2.490808131457155 5.032526247601377 7.978592791790492
P 0.2554570503958939 1.4070909379283971 6.901775766932318
P 3.394375554129537 8.696818742096765 7.323546991451833
P 1.8358271111696594 2.3287726416862164 5.67922342703863
P 6.322676283480105 0.8061954538583009 3.863074346911519
P 5.091976888501131 9.986245694540004 7.84711689641495
P 5.148738049786994 4.050703915369172 0.5437720917103821
P 1.830433759281326 0.05380788443751788 2.5681164863947457
P 10.067625091232575 4.965651760084251 1.8914209392744106
P 5.372675961035688 8.405528965557611 6.273484523210214
P 4.126379603611147 7.3145181923740346 2.246583556654481
P 4.485777927875553 4.296918783669623 4.256343943284626
P 6.410052470705282 2.740231440625629 9.83917957768809
P 0.6983299343374962 9.191649198192751 3.9195729636820413
P 1.4315493414691778 0.40299089931021187 9.668955984226946
P 1.7661013597817965 2.916999210368483 7.909636253165984
P 0.7395281622241917 2.525546187399708 10.252890017520675
P 1.0200172948100437 7.272720018672358 4.079794516201166
P 5.307548562796874 6.300772121873284 3.7045602540167666
P 9.545872312525889 6.575047916291008 3.40202035413264
P 2.214791946286294 3.7410473563690996 7.361171112625264
P 8.913508948737991 0.5443667689389915 4.388512753500417
P 2.462367134687369 1.5261603975218645 7.646598371395788
P 9.697326503531853 1.452849600993735 1.1208176799146254
P 2.645993590663954 7.9918431859255445 4.133048205672322
P 3.203991061273215 1.4306870593491334 0.11031310993484034
P 3.702356307414817 9.57844050728379 5.324443202069883
P 6.439214569267393 3.2374704135777197 4.761630183078039
P 3.73897481869931 1.9777377582375735 8.47559051069399
P 5.630026097567023 2.565488893274585 6.723511268246173
P 10.24681012611781 1.8955756071754049 3.2409876728097986
