52
Energy = -267.08675913 eV
P 4.863446692440063 0.7374172246634372 9.422123527334499
P 2.394180598791568 6.7711532255041575 9.643792884825482
P 4.016833705102026 5.306677526239694 9.19640914997964
P 1.8832048609406142 4.597506315312754 9.538787892091502
P 4.83218251852706 7.467865246862575 1.3430778695992074
P 7.5992388710064365 3.1014352818657778 0.8798225311641042
P 2.1412442858741065 8.56765017901571 2.948946586668605
P 2.9538528019442336 0.674474624495121 0.23676950535986965
P 0.2325019966816231 6.4026433708660715 1.5945327599398509
P 5.76337395838728 5.833754165773282 0.2765191019376962
P 5.5260307467496474 0.641375138768031 1.2709478708460868
P 4.170143830094973 9.00639445883685 3.9805593575954985
P 2.5573794378579024 6.72583129384553 1.6787730623594945
P 4.323762601188255 2.36093685600062 0.5945746230906203
P 4.086337826786228 9.49065929506363 2.215461407543487
P 0.5063836029608173 4.272038007816595 1.0695964054189675
P 7.771442066082288 0.994995824198826 1.6733604217193925
P 5.888971722909815 7.829902716428265 3.0982951240124743
P 9.338536451952995 3.933987759494952 1.9611593361327202
P 0.7150447253596883 9.64741800415766 4.102900091951195
P 0.010557513901398044 5.710982648199425 3.695237387048453
P 5.509022611172246 9.427032864413317 4.014985687638043
P 2.6461623201886613 0.43747304456653585 3.829539612105399
P 8.079000044946152 5.646300858197733 2.544090524687339
P 6.21935898735183 4.4506014210573595 2.060845335987586
P 0.7481047602091285 0.7989583839033038 2.372744765682874
P 3.9342610761163352 9.62840849347102 5.5479124920349205
P 3.845020981744623 7.438417932564562 5.458459895159522
P 1.0515321827019304 1.244413946876699 5.310525292820193
P 1.3902227968485321 3.994363569446451 3.16970437418438
P 5.954639564867822 1.3435101326434948 4.411230471621621
P 1.640475852084148 7.015133243500348 4.528624628104475
P 8.07710841609669 4.623476469816559 4.617983346487601
P 10.234245230134706 2.363251897619028 3.729258917335616
P 8.111276429907138 1.0132904367297288 3.8800525293242587
P 6.635950973093436 3.3683164012048694 6.327965893649989
P 5.577509809299825 0.560230653850171 6.485893874376673
P 2.0705809756761333 3.7697302669386827 6.687821225798311
P 5.368515824614072 6.084893228817318 5.882858925504091
P 9.343697237612979 4.681251337544803 6.749874363205986
P 9.343697237612979 2.8887372170870447 4.229513292507867
P 2.8338143678579795 8.432257971361288 7.174677905273996
P 1.1451437429649791 5.712563205347904 7.437582080730616
P 0.20494554740229942 3.0717403535033356 7.7716964652589136
P 8.311821283961404 4.686981542064262 6.9542600522162825
P 8.677638091759384 2.579576509026182 6.623920022048992
P 0.7726065684098904 7.77441123359188 6.4449881458004565
P 5.412553558770703 2.251802085728853 7.951953275204312
P 4.754455472075741 5.602671956269641 7.974690615063385
P 9.967440469326819 4.984938364227079 8.879223146090554
P 2.9491866891100993 6.727932726711241 8.594647086838886
P 3.664738605651135 3.639807636282662 8.248403408408993
