53
Energy = -271.59439027 eV
P 7.287517468217129 6.840290500557154 0.875329034187886
P 5.187792325130492 4.960701722804851 2.981123947615344
P 8.151744593034774 9.46117511746823 5.916820592600726
P 6.6501090055236265 8.420733236774936 4.6421105223706425
P 6.086129373649603 10.365520727217268 3.5867633341949867
P 2.7746598922803973 5.105663403186421 2.151294534926102
P 2.981892434129209 3.5175166040508556 0.7269724818639577
P 1.8066454394115983 1.9982927417715532 3.771258972493734
P 1.301704286900005 7.839596428277208 5.965344747156151
P 3.242830119169923 8.231397317937969 3.530321511178284
P 3.8648423045256424 8.038461694365528 8.824236367425701
P 2.901021255475335 9.59363592819894 5.716907773195943
P 6.972305927707066 8.004959580471931 8.849789754768151
P 5.136138772015496 6.526469759637145 1.4097034976910379
P 4.161171877246582 10.098316724933854 2.489188158715264
P 4.179266911936395 11.143974455660855 4.379386466119593
P 0.8743711372043177 5.525721171414116 3.12402031553708
P 2.9767074418144013 7.174120837063093 1.4274090515748412
P 2.099554709975482 6.291723646251366 4.72596578707187
P 1.3423211995984647 9.2326335959673 4.206886578160631
P 5.386914915243079 6.682053830089354 7.943830023823081
P 2.136529692194234 6.595614516531481 9.337637315346006
P 1.4140606039404864 5.106247434007469 7.7954039007547005
P 5.3923451592369975 7.064229476417025 10.126712389099557
P 2.8576079435262858 4.638911833585531 6.107293032093384
P 1.2046457969382187 3.1815142111298935 5.555285887734472
P 1.906930991572159 3.4973192771967 9.381286749912732
P 6.39413408226131 0.07433624236707487 2.839131146453312
P 3.835457031783223 1.8342208235665851 4.686870371374271
P 4.951871059262653 3.1722244108459794 1.616788915023679
P 4.355514655810757 11.893811718409403 3.6824242438944346
P 3.761366130618331 2.282813045377664 8.564443826069772
P 6.077624598266284 11.143974455660855 4.790361506249352
P 2.049535782733304 1.1146343930360676 5.796161978133862
P 4.755787785992795 4.219913170108956 8.96645886452506
P 6.663902392061339 3.2004112991457534 8.452165935354284
P 9.430234269473997 7.622140353517614 5.826141583180905
P 3.07679832592562 4.999977951302884 10.534622763267516
P 5.274611589981475 2.4676995213893718 10.18696548224572
P 8.539239686268932 6.557281192828637 9.593461313954268
P 9.454820953815416 5.370736992955574 7.919753249626012
P 8.131378800384768 5.789296057769852 6.098343111246972
P 7.687786549383768 1.3805487595769295 5.65975310397636
P 9.57960365959966 2.6532094432374227 5.7123971624904515
P 8.28859977550904 4.316141483986879 9.522080161092987
P 8.784528209754413 8.635115826626498 3.9628141482096275
P 7.311476201210651 2.0241173335579457 3.5807961827433075
P 6.667185453929529 3.698615840332567 0.2789003390220725
P 5.864336809658748 5.658943940645698 11.531413539290632
P 9.27302369386766 1.11087027794812 4.132138937797328
P 7.488182850500974 4.951999879491513 2.0331515951865216
P 9.483944393798714 5.12382215450959 2.7423555958647223
P 9.622544430520238 4.680037635035867 4.8392934394663225
