53
Energy = -273.53944955 eV
P 6.098889855830445 3.8476866128490577 1.952331647069884E-4
P 5.07459870534116 3.57758715197551 10.978964619971933
P 7.880237244059298 2.9628403691433376 1.0331725648276653
P 7.866172541605665 2.2160343397023294 9.984184694196271
P 8.155308347943109 4.47491153490647 11.198807526233304
P 7.321020564780543 3.905304475543634 11.198807526233306
P 4.988626694844335 5.533314882897809 0.9370365825426208
P 4.426837062596096 5.593431987324934 10.323082139774597
P 3.9328646549842516 2.5437244482533217 1.9921000094168353
P 2.9968866889862915 3.1489690539493105 8.686690527933541
P 5.278437107472745 1.5264927779346804 3.4607612471357356
P 8.86536355485681 4.870420712976857 1.4919759646242348
P 8.02963714688142 4.216712774283549 9.125668076077073
P 7.617398628371639 6.359123631247955 2.9697882089050505
P 8.208714660822531 8.969274119329175 10.417724554189778
P 6.289071893961702 7.270508287203541 1.4278878590304056
P 6.056459853982598 9.400784288779041 9.970031333190532
P 2.9426183038050002 8.443014911646113 4.786248505140463
P 3.384834156400199 8.976168605127599 8.247560420175065
P 3.6996682698936247 4.697121975713863 2.590721746398761
P 3.581105333703551 5.217516071935009 8.415113607457764
P 9.393909251701638 1.5514514672604491 4.845361450724207
P 9.728386280862 1.4351153001370858 6.995038756752167
P 3.0729946058223314 1.5829846481757237 3.8086006977184024
P 3.3737724738726396 2.0417926819709877 6.848401101014252
P 7.79799185255223 0.7206178233714245 6.151516252377979
P 5.172427207225125 2.370765928338382 9.102229898324666
P 10.546692074256336 6.7404720065430315 4.654146927974523
P 10.14808433811352 7.619204113850967 7.6377505662943665
P 9.280808883852714 7.878831368014597 3.1320166078594105
P 8.491444006578593 9.070675199322114 8.224304419752453
P 5.687858117948336 9.877012507029988 3.7194048362066288
P 6.093517893626397 10.933303126865875 8.33476561776736
P 3.5113397113538265 10.477046867511246 4.10554394587967
P 3.8695509659710243 11.12146269967066 8.055271031578307
P 0.9592710184569117 8.870502281211527 5.630761342068762
P 1.236871750359617 8.974257967142277 7.8541962893524575
P 0.32664233361400796 6.759895109267284 5.9592298758712845
P 0.7885379376841576 6.80980968650944 7.9909963897569884
P 9.146863734721734 3.399476823944077 6.112061022109756
P 2.6861696155853374 3.2796139058639797 5.159149340184758
P 10.791374211897999 8.743442456554305 5.7497212460237055
P 8.578633726754974 8.771413137895001 5.104765712890133
P 5.818782682539146 9.786065544945721 6.0561777563484265
P 4.49640456256246 11.475647004706827 5.889953890774281
P 6.076596637652506 4.080523202601899 7.9473755585123955
P 8.762995076998276 6.705603292682519 6.08657090415626
P 4.39720144181943 8.028108189258814 6.473792727349764
P 6.119993903617245 3.3825062993003416 4.322859359742912
P 5.5323087459430695 7.679799331547633 3.49491460091705
P 6.9814063052300686 2.8411547074613432 6.311013359199692
P 4.392522905360052 4.6784235262815415 4.7037225421008815
P 7.062379860224169 7.589112158522531 9.10610344992539
