53
Energy = -276.12252832 eV
P 2.610534218484116 8.204591661905235 3.228033889485675
P 2.6409551645683442 4.5006799460086215 6.933099446289226
P 6.59360200844748 1.1999387329256899 0.3745509187836248
P 4.468602077650184 7.533739300598928 5.603116878403795
P 3.3636958512372868 5.714135302102284 8.689020952333578
P 9.563840877219626 4.06818945613928 6.287289387906953
P 3.499752773423769 1.2276390244812379 4.9239012321706355
P 4.639854548172301 9.628773849614873 4.579432947618175
P 7.3311273566867925 1.2139751492628261 4.820258778008887
P 1.3388994562512138 7.321878039286844 1.5957573415600976
P 3.154045776905615 9.060583652789441 2.9477522489822596
P 6.789893936530927 4.1377688972402735 8.624892325579276
P 5.165287831107309 2.935237286642488 9.048221822816881
P 1.763974458427024 0.2667179301708618 3.861273031839579
P 8.418965802309001 2.858925743587294 3.720550846634232
P 2.3432510101208237 7.710803764788415 8.259719694337733
P 2.5925784182143246 6.597165309911027 4.8192542274314505
P 0.376002615519719 3.270526513132723 4.54594515033487
P 7.668818055205215 5.930454829778984 2.048782256101383
P 5.858769493571993 6.679816604156504 0.9186865674437645
P 1.536671710213841 1.815709618978011 2.2617559100444335
P 0.6492842306383046 5.39348762253084 7.36049859544708
P 5.69286163087512 5.832649107100674 4.815736851620239
P 4.0446094094005325 10.033528524275766 1.1255724521954902
P 7.745640331358152 2.907570393667378 7.06733918830186
P 10.27004145875533 4.9009339057453865 3.0287032684799033
P 4.494428553417708 7.384797357857749 7.797295546015962
P 3.0993386760173443 0.8503771138024699 7.114379956471542
P 3.371584310126055 2.7081939765582157 10.043858562900647
P 8.857868906642922 3.590040681757028 1.902173997623132
P 3.2951558226175153 5.793445208273919 9.500579422453876
P 1.5123313128346532 4.611687443970097 10.12358267841182
P 2.003472417181041 2.6161834124131804 7.963346541911325
P 5.295817092495579 1.2585485082661294 7.579110216774853
P 5.119561487378821 1.4338262121162837 2.0472391349820307
P 2.289654586617336 0.85460978823927 0.35916908948932
P 6.207963657082926 4.100651260957814 9.408138228945816
P 6.3117811144195395 0.007310155680796132 3.255765700545798
P 1.8489915852549466 5.163132903844703 1.897938110341058
P 7.68776653410716 6.103474500949115 5.757709741983436
P 7.714624928631834 3.164548765365554 0.5449074266895352
P 9.705174103214395 1.5175957173642753 1.8136940288796677
P 5.886542605518673 2.57486667135662 5.8608575642939185
P 5.265464874562086 2.0583263835302437 9.048221822816881
P 4.485809780590909 8.164399867697748 1.852938048613217
P 8.819609435901997 4.185600782345217 5.549955948118246
P 4.707047539518138 4.789532122192182 0.6090684071427506
P 1.1276482409995467 7.3479826009243565 6.362212885197178
P 7.200916078386885 7.153460667366198 3.860847341223758
P 0.06249312301730912 2.1387593332082053 7.046787086398157
P 6.804484196133527 3.8949931701899154 2.473710496243555
P 8.858026273915518 2.242846454954958 3.7292462610357817
P 2.997745205365439 7.845904699187449 0.1609824875902912
