54
Energy = -278.33455892 eV
P 5.032978331077641 4.947375517919154 12.01788772986835
P 6.73214626465185 6.225663982667534 11.457415396269768
P 4.729837624040769 8.338142196270502 0.13787597006637095
P 3.533342008258837 6.452710269934842 12.745755049447466
P 7.855044619200454 6.48020340984989 0.27380929861811787
P 6.601889784965839 8.172827473571656 1.3477044443262531
P 5.470869001883765 3.7654241123786414 0.8400429321905992
P 3.7021267860516796 9.053038307210635 2.0100792703977186
P 7.422075922556365 4.559712398138495 1.3619073897524379
P 2.591362860980406 5.572142789205578 1.5877309851584036
P 8.540513025167416 2.6237097794549697 1.911481317003122
P 2.041269287708242 7.549032098683464 2.465949755722705
P 4.180094873237574 4.678261635872769 2.9117714336725653
P 5.286114798603975 8.04116717149162 3.1946585111305463
P 3.876557404439251 2.418227486843007 3.2369273044324096
P 6.286798405417579 1.9914902818537483 2.776998358124543
P 6.842955884429459 3.427401171485394 4.203797936253909
P 2.069326818555667 4.780241690705539 5.820117621494029
P 8.993383488912096 2.8306915524495047 4.040345742843016
P 3.9441537666635 5.619476386656905 4.91750965011329
P 2.952791073609605 1.2157679506130659 4.9198951008850065
P 7.489153833460617 5.579702052706945 3.4883262461891276
P 9.659942025199571 4.995197387201512 3.8432278579621113
P 7.564470094782498 6.628030692373565 5.750066038781317
P 2.9385306322384688 7.55880462148303 4.507371392361334
P 1.4076419363521653 6.952099059604058 6.062220549637926
P 5.910119027582612 9.612652908391253 4.725777641955566
P 0.8721102289201961 1.7229266564853558 5.243833644743456
P 5.729676995927032 1.4614627894115861 6.6551474421632095
P 6.442589835343279 4.920686905873668 7.158072184848264
P 7.964558264931276 8.910375940123783 5.2581957337097
P 8.062806466592377 3.3731820712165224 7.096729800772153
P 9.695756361382198 6.04326919596946 5.87934315389366
P 5.500708114504721 8.59473365440543 6.71115923293356
P 7.33497967628713 7.195892124387027 8.050474512283607
P 6.9948653630525355 1.8818205762724127 8.440090441608938
P 3.6026606886023194 0.9218395271129785 7.090981708008311
P 5.253486228634514 3.498044059270643 5.831803171892925
P 7.466720172527512 9.436729870118295 7.375389018571177
P 9.821687177151395 4.652884434600165 7.666926244894777
P 3.0098893349140603 4.32471830941187 7.814144831162466
P 3.0743502100472124 7.077854043525376 7.5324016611473334
P 6.155986321011834 3.939852711773585 9.17323259599722
P 3.7360398724549113 9.176991053502798 8.065668024313336
P 4.448119114044245 8.439304902075804 10.125941791071046
P 9.088983451774832 6.194465172120628 9.12445037506828
P 6.615644243561201 7.958600472403584 10.123186770966832
P 2.37194491694946 2.2317387096101737 8.37663756702405
P 0.48929278784333263 1.9368198078519585 7.257163027337433
P 4.8658653706887955 4.840347496136041 10.918337484763091
P 1.9268288317141558 5.948094518755575 9.074139247185775
P 3.4268127365202288 6.476502306092122 10.65457671025833
P 7.941141504349515 4.731863287924749 10.344784717406649
P 6.58052505682823 6.169323925138608 11.457415396269768
