54
Energy = -280.16212197 eV
P 4.291684321404925 5.184340117593083 12.165389905506181
P 4.693523995474617 6.93102386411987 0.8649022259770556
P 3.393842247419426 7.824110372766334 11.848250423419243
P 2.3103675766289395 5.921611561386163 11.533699346584514
P 4.84928503864159 3.415347680555136 0.8190064297822035
P 6.905356740637471 6.5320850550745 0.8578621133547149
P 6.877839933200253 4.189208620864946 0.923349311611319
P 7.485213360597455 6.867524539060417 2.967853080122454
P 4.097591616599092 7.317159944681533 2.9517127631475932
P 2.0630368841112627 1.9200952230446906 1.521090299143482
P 0.5247520358674826 5.6559879110119535 0.3698848394104217
P 4.999015372352234 9.35515620240364 3.200042874989229
P 0.4562956551246631 3.4822109131212056 1.3164509857164768
P 7.205674995638515 3.303598058904548 3.0116135044116232
P 9.34460493075494 2.5577328892163593 3.21440370472374
P 7.259307376540781 9.07673408254283 3.0100270972409557
P 0.9958720646311008 1.5887258289137385 3.4204849938890036
P 10.18352634490339 3.8052618590776626 4.765743520106337
P 5.6247319688878 6.04294994943264 3.8913961927915928
P 3.7078654237450204 2.8078604700557674 2.7772367707199606
P 6.778667397844582 1.1482830253956489 2.6752240589271725
P 0.8310418612690819 4.5361836258260055 3.2282184658197095
P 0.8076275766249167 6.635942929242838 2.309819674323977
P 4.694860360047147 9.277182223813735 5.395734360909056
P 5.5560028642716475 7.192756284738237 5.826109210590026
P 4.681139246367723 0.8472725175117394 3.5234906472573684
P 11.436819449519419 4.791608851619262 4.225344494893324
P 7.967724513595364 9.58198533040633 5.149406045213476
P 8.180504920280553 0.9955829426735959 4.426525390518476
P 7.745803687749924 7.450372130362558 5.769135581800175
P 2.922801421009478 6.064471084061021 8.412789706892857
P 5.321226593683846 0.870424685132548 5.626668858863896
P 8.32549525036222 4.484606822907129 5.587685114720612
P 6.27412403879429 10.615116579070351 5.973905155659935
P 4.97003663706117 3.8861376805020016 6.090054259823174
P 6.985544821999374 2.520414443871751 5.744808870004343
P 11.23782279850455 6.501288246523782 3.044470957247014
P 2.1321001319892168 3.1584124882001503 4.436354337073121
P 2.0739757408241495 4.488173633204121 9.58051990916788
P 3.9821212533415853 2.114654277772795 6.9288708499526015
P 3.6655587803507803 7.448314667712231 9.999046642565947
P 8.349924626549228 7.133181819542708 7.901650115939728
P 7.42479897511027 1.734651008837398 7.812404857370015
P 5.272859413279295 8.58122517530562 8.988850308058169
P 9.222355589904437 5.041017975432256 7.541182501420497
P 4.959950341568796 5.250063344213158 7.803761797416067
P 5.317547950855673 1.635288773171573 8.684599238592122
P 6.399451246073479 6.818579807904343 8.822839992656585
P 8.57522920126531 3.3624258193674597 8.918688439100215
P 3.6791560704279296 4.0801751938698185 11.012086096023035
P 5.187671458310792 3.6852382246275117 9.47228422148426
P 4.624057747916979 6.088431754746871 11.533699346584514
P 7.08388767574306 3.8390404977840946 10.544890778515109
P 6.805853059103723 6.054825786906645 10.847147811069044
