54
Energy = -276.82199196 eV
P 5.1904505220369455 3.2182460830137587 9.417935944693062
P 1.771771159840628 4.367128176514571 9.795262980992963
P 2.82663543037223 2.01503543882706 0.6110533579309441
P 4.489648915416036 6.648089443819417 0.09290922722176193
P 7.1585523701592235 3.9129336497173015 10.248252418052676
P 5.49805481722556 1.1423247644331747 10.26941000483972
P 0.7909742565051712 2.6339125106647003 1.1588369813001707
P 7.69173879028237 1.7184301776481703 0.31760350454448055
P 3.7552279117300142 4.124001399547862 0.566582401160371
P 0.9721946581071835 6.047708461553404 0.5209847145858876
P 0.40048054845918435 0.7362443947899303 2.9805170604746203
P 8.801480043913086 5.35726412538828 2.1706380288579474
P 5.605311098918648 6.941687672973679 2.002492085394442
P 4.117171501105196 0.6892798246332842 1.7994359630157852
P 2.647763665470945 7.39034587093628 0.9857681865277249
P 6.822708387643523 4.230342552438688 2.2014658158593634
P 6.839952633128827 0.6858576944092545 3.374544129729373
P 9.821486028213323 5.612350884432952 3.2685009800233944
P 7.846437232526229 7.425925007150653 2.2184899548404404
P 1.0170837360089322 3.9060190601849336 3.0944723344619396
P 8.00025028159955 2.3392501898348814 2.5113011218703347
P 9.552127667672607 2.5814855432829003 3.4918235448524446
P 2.869542608618597 6.827493489308542 3.147533309145085
P 4.714129100254694 1.645164918670004 3.7463881572723587
P 0.8280903271680545 7.376516712877444 3.806247344590088
P 2.0702051215796877 1.3467553608969598 4.280411248126907
P 5.573733265028324 8.856836906819698 3.136822459739394
P 7.42713305886148 2.9297741166285567 5.991535666505563
P 9.361589277951072 5.195748498602676 5.465024731387145
P 8.829319535381405 5.405128513989755 4.38455788446229
P 3.4199111540197693 8.902751053273464 3.7304391380889994
P 9.254971414144645 2.965599324708363 5.694951490754034
P 4.5529265851796294 10.070017670616403 5.087922921244922
P 0.9164130434080101 3.993229988112873 5.89377744253696
P 1.2875468762670914 7.705863475161818 6.097308257872262
P 9.254971414144647 3.351539670431367 4.799154780161031
P 6.688373509415207 8.128796598655146 5.985371829546384
P 3.2495640672438517 8.855555901449584 5.9702891785502725
P 6.788456053311217 6.903557702680496 4.1482075775781
P 7.593508877826002 0.749925442299678 5.460005485202421
P 4.629408294694878 7.120809445395681 6.387801932577962
P 2.4363500627680796 10.076914916735243 5.826543719417924
P 1.1575482307921676 4.681274473351348 8.012872666920336
P 4.152815684324333 2.39579458813751 7.852329563059626
P 2.1896218819694564 1.6842727737097665 7.105031142883673
P 2.418469771140965 6.354740001006174 7.357640360596484
P 7.4886925172724625 6.8946817468433474 7.682943130972337
P 5.378450562346415 6.940471940088085 8.50579372430224
P 7.88310765243804 2.382793386161701 8.098845479803694
P 5.881871597952198 0.22949590755464436 6.722966635857546
P 2.9016312135544267 3.7463024416563426 9.135790670028054
P 6.14794954026935 5.129343063934189 7.4672496237138635
P 2.7091884857173216 1.5506161744798388 9.324377512582247
P 6.862614159490623 3.863527645956067 9.131190794162013
