54
Energy = -280.14986989 eV
P 5.632533117935681 4.939136222680246 11.641272845195871
P 7.591498857335985 4.429450455171322 12.584163333193796
P 5.050042139699612 6.926775760928513 12.476112175602978
P 4.3092570844514775 3.3344108126151073 12.50223155281397
P 2.8242468919054553 6.691716111445716 12.576352992892595
P 2.397093004291495 4.462962316830192 0.1703383053740291
P 8.167355341726102 6.531150710639154 0.5818555189795763
P 6.390396317996819 7.536338021163882 1.5361484330311872
P 4.835374529939752 2.9948190002972463 2.017860543421543
P 6.937019337816185 2.8198567631674316 1.4194265519051834
P 4.224860079354059 4.8879153115834715 3.0201911687653014
P 1.7338230051054853 6.749744450021383 2.0152657697674456
P 2.0937366727836353 4.547908483640544 2.4193556455494885
P 2.7427361467827946 9.634262073658405 3.493437030449112
P 8.406719105622352 2.540072877734382 3.068052028808887
P 8.844411751624694 6.391415271573199 2.720130448760463
P 3.1576200576918496 7.498393729920147 3.5425081465046873
P 6.702589782272272 6.0566285739153525 3.1595622939303
P 9.708348754074754 4.384360070392646 3.2258018922378704
P 9.998622673765931 8.378773429323937 5.556121541484066
P 4.063661949305802 1.3928173265518708 6.469639277802515
P 2.691637979354654 10.284662396736097 5.4657180978817195
P 2.5976243765088536 2.928440915720796 5.810766108425899
P 7.273648113496788 4.917561111200793 5.581493716764038
P 7.7359559159296865 8.659895370277383 5.684936430161655
P 7.28872840891323 1.694280248457079 5.0380540758281285
P 5.15680035757541 1.9844477506451614 4.725378977613421
P 2.7870938108118812 6.548744550159671 5.628154468293072
P 2.0656733240381904 8.462580243120962 6.457671465193184
P 9.44311127125588 4.565778138172822 5.443784128741853
P 10.6829135956914 6.3349755898537055 5.926566412107652
P 1.8116507432389295 4.075516394460942 7.55757605951394
P 6.442488442936265 6.930896170599408 5.1985913952155
P 4.369870427863944 4.106742471294474 5.124215277482676
P 7.137538190876418 1.7264797327740453 7.408443872010224
P 0.9376645207694578 5.610054167540148 6.286311744825442
P 2.7312565729331517 8.732684502970391 8.520508068202926
P 7.960488501326542 8.232545103616365 7.872262343100586
P 5.561351614812329 3.2409465541971545 7.872613296616899
P 10.09695979923861 7.507681778211837 7.704009193932934
P 8.938930983569852 2.1445514270144717 8.449990360667696
P 3.518333537322647 5.224268085956133 8.55195056118755
P 8.754409787609712 4.261512737543734 9.00647942693664
P 2.1988868750377364 6.813157013939586 9.477503781443191
P 7.080320281470466 4.875918698705513 7.756377334159222
P 4.867524153183426 9.140828829021775 8.831099942667384
P 6.244802538892456 6.83124934159003 8.387949006004131
P 5.634531106118875 2.909197387759669 10.074526009981742
P 3.820197102435395 4.171299623004427 10.5285667702896
P 3.29897737490238 7.411111390820557 11.348594721882762
P 4.970087793913872 8.840129505271854 10.875579855479545
P 7.337726162408406 4.265311598303942 10.751797963425306
P 6.695724629968533 6.411372933940689 10.590416659509208
P 4.82339065038088 5.794516010129685 11.641272845195871
