54
Energy = -279.8829903 eV
P 6.823991171148496 4.060729249345593 11.96029799253834
P 4.202531846913103 6.220040337962742 11.668810353310784
P 5.853188698817653 5.748199456182621 0.62936024209633
P 3.2982281946086034 4.162343276328249 12.151249685961968
P 7.0257151749434374 7.760179844248233 0.2810401890283249
P 5.088127594829709 2.6563449786432787 12.113861978589874
P 7.958379752610933 3.1066057291278684 1.1844423160627742
P 9.451911034799009 4.768158260122031 1.0936369914273236
P 3.4254363685903564 7.956200472381382 0.6558153084204266
P 5.343995920677121 8.604251209815553 1.5700353778419462
P 4.253531545154265 4.336009597145602 1.667596975811438
P 3.7836818870834565 5.5995953044993225 3.3146562449234502
P 2.4418606626289376 7.146676848004087 2.5748540573318466
P 5.92371931471245 6.801287879496569 2.835096632610488
P 6.791158064466389 0.32915574239978296 3.538107647106684
P 4.985413749605542 2.2665328030495404 2.03875995041751
P 9.109180634028487 6.061260448012589 2.8055188463184346
P 11.415893839179077 4.382719191203325 2.022300101632065
P 6.5888213865162815 3.583379594356958 2.915170460210842
P 7.904534719183271 7.8631849442907615 2.323711362464116
P 4.839984081419695 12.436333592212652 4.455953274409387
P 4.233424723045628 2.028911302022501 5.095166732970748
P 4.897131802536738 8.883908807810935 4.94742070987695
P 2.9383035848798413 5.023763617941657 6.0749645860477
P 1.125073654056691 3.762743415798365 5.920129618074201
P 2.6989899921762333 8.471882981320205 4.438818202409089
P 1.534351757171723 2.2688039270249143 7.555755952643178
P 11.277637682375374 6.252124652697239 2.948380115726489
P 2.5568042257466232 0.9568385523897858 6.104465579439288
P 5.735849446797195 6.832401512006875 5.071661239853831
P 7.724859678017943 7.427062786290998 5.820950584594517
P 11.817129919634576 5.111343887594286 6.4794817041822945
P 1.7181310945606527 6.913119694051848 5.740225607121803
P 7.472612156710099 2.1554135687663405 4.4961793097600244
P 3.440300724944477 11.883645789229579 7.432351188375178
P 8.073714684370193 5.398737227695604 6.7590718030791095
P 4.917902309702362 9.374661116319917 7.1398972680387
P 5.051578871199049 11.259891091138407 6.315277782832095
P 7.127477940072396 8.98190755166175 7.374677536378771
P 5.999438546384247 4.5098309515107955 7.015714615374747
P 3.094008616042489 5.2036549020303555 8.285065941248972
P 6.137231445618043 2.344258134632578 6.290038131411409
P 2.091538584743739 7.944792676658317 7.726092705935752
P 11.83419263241932 6.127311974623293 8.26926110991892
P 3.3362687191772387 3.0556195412375113 8.670800044853404
P 4.2934349648844785 7.28713375879245 7.780439929133797
P 8.229527256449561 5.883356810800218 8.93765426448419
P 7.185888529015278 7.896179184715584 9.366696722131785
P 1.4111912799634183 6.340159669667569 9.15426216869586
P 6.700436652959209 4.245000042784589 9.18405767703125
P 2.642495473967654 3.2606391741404073 10.763416591325031
P 5.5742502523609225 5.497088716236343 10.594848696481245
P 5.042653315937826 7.530754383318535 9.878366642235891
P 3.804887181163464 4.7022100605070545 11.668810353310784
