54
Energy = -279.31895385 eV
P 4.699540047538805 5.997475226871221 1.607889811245485
P 5.482188699335614 7.278300627492244 3.1359768401474675
P 7.024920913409175 8.827051803669592 2.5617374176405168
P 2.567683331695055 8.997257561319271 2.4314470622462134
P 7.606872189709525 4.756891206042992 3.2715593320997853
P 9.804434142335493 4.787659050228136 3.9021265832607357
P 8.543640601156179 1.5898899158464233 4.614125382476899
P 2.997080888609629 5.5255023816378275 2.8937205432038877
P 6.808744717604725 2.6230679086936695 3.7569717499971977
P 8.327254929189781 7.946465538963715 4.196292896787521
P 6.823279256231573 6.3144211282777185 4.711491268983535
P 3.8032434499805845 10.564933527801706 3.290862260648187
P 5.597013162260436 9.503780844035106 4.180372330813254
P 10.021533528940848 6.909211462014249 3.135202728060237
P 2.9990430767997367 7.5373900912680725 3.935974368348052
P 11.60737469160991 8.01036808162601 4.3843389645499
P 3.996286704801951 8.749580233767395 5.988108094259484
P 8.483433046562643 2.946739651062938 6.230601235871231
P 5.513499284556716 1.9775206477790748 5.550662126302139
P 4.06492604689431 4.902071111607853 4.770070108764584
P 12.21248376854294 8.37747573501717 7.4714397775615025
P 6.273392298835812 11.144808237617134 5.609217539917315
P 3.4336901438324303 2.8793989741521337 5.396630573514717
P 10.376568046845627 7.989668450760303 6.225845190995449
P 2.6706113387185084 11.014533392857725 5.1681864188751865
P 9.229751503784444 5.090044796070244 6.0322801363599545
P 1.3394014046132947 7.194898017591079 5.432771041985149
P 12.118424865110207 6.604778027603842 6.099359242251333
P 2.9544661656771583 5.92381492762925 6.518977261592992
P 6.380261167002554 3.4670678534657835 6.919276000995999
P 1.8855941704356247 9.121018298607387 6.461389433096345
P 10.97194392181313 4.360662769449018 7.28628749336822
P 7.665930928894054 10.417587248863873 7.163325002737253
P 2.5489589256097465 3.939668063967122 7.343702778215011
P 9.719037149338961 2.5504736766352942 8.048022886268493
P 4.367639505894963 10.835599060760917 6.708400046736922
P 6.500843463065991 8.956065695095383 8.277604074915118
P 6.442297601106372 2.8353797051296734 9.14056736048976
P 8.071589512679969 7.440039811749841 8.155174342601907
P 3.5830706850369416 7.716001102649121 9.140964744868585
P 11.382951047875848 7.582036703704537 9.45694240818561
P 4.748921028731392 7.1084869794171635 7.317918228364805
P 9.472366192591382 8.785591569091029 9.280933920101777
P 8.296812714342423 4.03352486574236 8.838237914973286
P 2.1755416293138743 6.065195398673833 9.454143838594492
P 11.156466984354793 5.348391064164788 9.31728450746665
P 3.3012205494631615 4.1646450960796475 9.452814057339026
P 6.398410338186052 9.338007893323265 10.518069226297444
P 4.867662785565216 7.694501244985971 10.987458132873114
P 5.4129083316680795 4.854247375785528 9.164128740973347
P 7.848173170217814 6.55596551370366 10.267072080464901
P 9.335089682912 4.923411356230624 10.623244065541913
P 8.333363690835283 8.456799859361919 11.265149317898933
P 6.006088147727736 5.738558803903508 11.161576677716168
