54
Energy = -279.15453127 eV
P 8.705155694516352 1.3994728319126069 1.8692905635883865
P 4.942909798058184 10.73365260744636 1.0428314649937738
P 6.772082029464341 1.6381116010713332 1.2353661189173475
P 5.3325489407509785 1.4027168900689664 2.890268226028075
P 1.5084947359624856 6.696406422237716 0.0693484074681708
P 2.951684221214836 7.529627791343176 1.459356028059131
P 3.6450508957036676 9.282953522470244 0.36489950251163944
P 4.781966806979069 11.507214257599879 3.105610369642412
P 7.561321226007196 7.02623954829204 2.2548203662777997
P 4.913717659602458 3.5916006584968643 3.2100964674874124
P 3.3377051689946873 10.087726982939655 4.00225218160051
P 0.6194055857677764 5.632301861908301 1.6332231100100698
P 8.756015953078242 1.0725433646071527 4.039783817358658
P 6.588551749915651 0.6760197761428638 4.56463723915704
P 8.004179679009573 4.382267044650566 3.8355208156097973
P 1.466846216553943 7.008460251131375 3.1001287919106275
P 4.949733567160794 8.509290423728421 3.8140754237216083
P 8.636157525907592 8.985419259562073 2.3679884261292194
P 2.7824680379371047 3.655999675491185 3.964136566691881
P 6.100157871539242 4.234147829590632 4.967318931703661
P 6.32787405794294 10.193101431431241 4.333814329590788
P 3.5655494439715505 10.630454250074006 6.163379080928149
P 9.524446073304476 3.045680359055204 4.741613788153903
P 2.8111510089375678 5.867869732524325 4.45938458910485
P 5.906380248973613 2.230427762670111 5.963391275161776
P 9.72638556148411 7.031016899681275 2.6259406342203637
P 8.398408827427675 9.863962556337786 4.391100674314153
P 8.335477842750288 6.5706272538523836 4.324413201972755
P 4.937466626664571 7.465576956361154 5.776631630566208
P 5.8061537842222215 10.77528169415227 6.414768153810424
P 2.8801081466726997 3.653452329345063 6.200353094317738
P 3.0811929204789754 8.491961452647088 6.499706842186704
P 9.834369485722085 3.584099569814662 8.589509641013876
P 9.542794559339905 2.1361677385118125 6.806651511822018
P 6.393589787452066 8.673144090379148 6.9229713769606445
P 2.173804174590031 1.9515562704297886 7.311557969013515
P 1.5437105196313243 5.445391913110071 6.2972278299537745
P 9.739626755597486 5.511634010874577 7.435553916362665
P 7.4156162330900885 1.7497026648449607 7.504418496239335
P 7.615193273482337 3.605315280824469 8.67277395136762
P 4.410859990158956 4.810905102788104 8.236545246559839
P 7.493491848873064 5.573925909335941 7.649810812852409
P 2.4620889527354644 5.909759701926256 8.378070130825058
P 3.561810374299435 2.793265028597802 8.721405393907244
P 3.229958896910167 8.075069217357745 8.661938344251125
P 5.42406556498008 7.683979086382766 8.647658479829452
P 10.034445279926455 6.896771130767871 9.296567458705383
P 5.116539904667042 1.6725408308783671 9.924090493409146
P 3.4440458968126433 2.9435323626511734 10.90819006918115
P 6.446389610758982 3.3450688297051845 10.57407820287761
P 4.7099696328203535 4.83200053263277 10.556739189440318
P 7.933871086437868 6.530047673673995 9.789610076136226
P 9.391370380369903 5.533481187299934 10.92838575572294
P 6.45070489872635 7.8961216027254935 10.525860554709366
