54
Energy = -279.73904984 eV
P 4.937181434768043 6.985698055545324 1.0907094966312192
P 7.804990254474331 6.069879208563491 1.0810005397109685
P 2.6217302830704576 7.422419093158 1.3017901307429038
P 5.463791544408852 8.764076361200068 2.403306174338441
P 3.2223548182708197 4.377789161717699 2.636277693007052
P 6.80600047579697 4.263320089060478 1.8502464087337531
P 5.163320306585776 5.490348108810673 2.7371848251163358
P 3.468612283757662 9.477346099795273 1.744932873715821
P 1.9723998714370117 6.173159664019724 3.08254663755312
P 8.368062173707253 6.821415313800754 3.0029666173660727
P 9.158257311143148 8.795151473998901 2.9905264012390878
P 2.6444606919592584 10.737754084676128 3.454165642712409
P 9.575597672887733 5.1772899685249945 3.8667770259134677
P 7.794514819935711 3.698270574273593 3.854249316656685
P 5.9216169536675896 1.3338437610648615 4.607169564416426
P 3.0111948776262203 3.7255574211584674 4.779459639303489
P 5.129994259870105 7.8928168946072095 4.465609279706122
P 1.337254779612601 9.135299757651152 4.16877208181811
P 2.8440584190792166 7.5443783580597765 4.619538016590074
P 7.356090166592969 6.699276473259381 5.3616363489857415
P 3.857306172279038 1.6507827092359961 5.289493777202189
P 8.78685582664822 8.931477047552866 5.0953101777412755
P 4.068111233433211 11.18909389300278 5.207222546478513
P 9.298136252753787 5.809347100211401 6.036343316650717
P 8.834741275599386 2.43432554221812 6.624659962148483
P 5.860231170450549 9.814809596087583 5.312000023122649
P 0.824920965470822 10.084188869833504 6.085103702957395
P 6.616193662571106 4.540484404830456 5.5703261549149365
P 9.36632933369556 0.4571766662539046 7.44203052227222
P 2.818810921191847 10.61321627155607 6.948260755072389
P 4.432856920783957 5.069431483737869 5.724809783008517
P 8.808380794542739 10.932887024748966 5.908147123254465
P 2.3200309774663883 6.904318972401711 6.656002816353465
P 10.248177239623002 7.837271124828786 6.347280041396602
P 6.631464097931116 1.7221127931018203 6.6164497019754425
P 4.569414734852881 2.0584148205646535 7.415175385126613
P 6.946261730390967 7.383001972205756 7.483271500673475
P 8.814925627742541 3.2135557281989056 8.785118118663414
P 5.913880521738877 9.362951438828409 7.500684700012432
P 3.8018587260101944 4.11825914741779 7.630882219254461
P 9.52076131383854 1.3523754393283376 9.75556446112371
P 0.7639586209014415 8.28328875985391 7.42314696583444
P 7.224559184799051 11.189093893002779 7.867582735208394
P 3.0836513061598425 8.568408163776459 7.887396881711004
P 8.166459726116218 10.303341590509618 7.83971146225933
P 8.95158945178518 8.150251172109126 8.152618133015984
P 4.471313151612353 5.399113038262275 9.249667513118165
P 6.67735412254244 2.821782206976658 9.406512194754251
P 6.551599651014046 5.505731570094292 8.71014435681065
P 9.559267790887786 4.7708548164685975 10.255387615292241
P 7.361635820269917 0.7433987198322365 10.015467823525007
P 9.02606294357242 3.2185804985780515 11.715081510396793
P 7.569590383556247 5.728271947187059 10.70842392056163
P 6.828667860713824 3.7140460314906667 11.412700295448346
