54
Energy = -279.08461596 eV
P 7.220913050489278 3.1325160162624384 1.019384276514391
P 4.953470061282067 4.5211117074867175 0.48330957328714963
P 3.4324493576252357 5.782789057962475 12.02352800448498
P 5.450126430680779 6.57264700205229 12.614403979247125
P 8.574848919745664 4.461730007848139 1.880138156708919
P 2.2766101007584134 5.850846078685935 1.2896223665072726
P 2.8665802560688274 7.918161990502779 1.82467323474271
P 2.697445188416932 2.764224205116201 1.6849791365733777
P 6.294181484943688 2.2270720700514244 2.8062259222311767
P 4.234378583275073 1.2778879971662531 2.4398070022791996
P 5.077976940138548 8.076217466121859 1.5269018969565404
P 6.240196057130754 7.403537222525801 3.273579172813062
P 3.749187054860084 4.625442304492476 2.4225308964991
P 0.9511157473394888 2.648599956856439 3.199070261598602
P 11.25059499733677 6.466457401971839 2.7862551442835377
P 7.875905957545563 5.106635792422336 3.9076996612669026
P 7.351618739666612 0.559372319829693 3.5633061685605973
P 0.4517787242007934 8.197390993519024 3.6326469302429265
P 6.1480405565327185 3.497142770951198 4.575709458153177
P 2.612615610073922 8.312351951638863 3.986872615499613
P 3.5981764227801882 1.4728190063665059 4.556830100985952
P 7.942766083997559 8.188086224395835 2.2469872527846833
P 12.016301873220737 6.967901552698685 4.849840113612065
P 9.238112050818568 7.037729723460332 3.487277530000494
P 12.016301873220737 6.788642625877258 4.5943298750128765
P 11.443389111619721 4.862865313830031 4.368194188227887
P 1.8644503215967714 4.379580135243506 4.35298732023956
P 3.5804379001038265 6.9586874935261065 5.575990165117042
P 1.288855133860416 1.902157988820185 6.461980819985751
P 4.9676438704860635 0.35914065698378045 5.899314922408891
P 5.699421256627723 9.928255043519266 7.036144808665691
P 3.7780564177621465 8.972623750972465 6.57938069598903
P 9.480196487816867 4.449064993866727 5.385741824195373
P 1.4909444802451857 0.8424037475948507 4.41385329152808
P 0.41010851444359736 5.27917046421476 5.842389311813594
P 2.9911116341195143 3.2287456009939888 5.852322076873693
P 10.020645519440606 7.868093526689001 5.396455259045049
P 6.893293646322719 1.5474578970201536 5.494980472418881
P 7.3027331612279776 6.831523395615796 6.718147737972193
P 4.873304419216095 4.671848350199548 7.289058221090149
P 4.305552320064823 0.8796553004502946 7.955710455845488
P 9.471300270868019 6.238280026027485 6.773572132133659
P 6.249276258283652 5.788632502685616 8.628297754080757
P 1.817952716133445 6.58671497248367 6.97890903355217
P 7.416401513923755 8.690204418105765 7.807068115601121
P 4.261773747189995 9.145533536258869 8.711823344228025
P 5.293408678635836 2.8576348798517133 8.517080349234673
P 5.871099060064644 7.766989673124708 9.442914120494837
P 2.1708513736944264 0.653825857118595 8.006531263808379
P 2.7854652775228077 4.849072768582236 8.047305338399044
P 6.004200563852331 4.889646208296138 10.80074705848935
P 2.900345439967163 5.134224638758906 10.215565682131388
P 4.532405580873241 6.508239378660472 11.043491895439878
P 4.3498634672359815 3.419240256431773 10.453667918650767
