54
Energy = -277.71326988 eV
P 3.2231122987378598 4.30803369972529 1.3915691453958932
P 6.522500097806596 3.973221033851674 2.019800409534715
P 5.098461477748347 5.712126134182377 1.8394530222810779
P 8.599716262642934 6.776561371642517 1.4211566808721925
P 6.5319760008272745 7.477888209195602 0.9448582671210906
P 8.228402225155266 5.129476503352875 2.9189879182034804
P 3.729937282441531 2.330261581097912 2.365138836686084
P 2.7244907429550564 3.94420066818829 3.465270088669752
P 5.849018312731518 8.699405616245992 2.6586483736204753
P 5.600520788617813 2.800518850942129 3.6317432913634065
P 7.52676666955897 10.026612186470215 3.1203413222956238
P 4.400380770932047 4.219518137290903 4.998658380754272
P 3.4938998829523213 10.31862982741355 4.717518621136607
P 9.348974107152799 8.361531372147601 2.7771856544560634
P 4.394412893738412 6.191612058792543 3.853528402203753
P 6.066186205520091 7.450293285341081 4.482038335019245
P 2.821373592312573 8.421233165199627 5.5527346065956635
P 0.7645024808825505 3.7600838975395585 4.628014301545032
P 1.4882391621917501 2.418984685344789 6.154416017889501
P 9.996627950190328 3.9926318043032234 3.2222859739153478
P 0.7510233729225774 7.873708028076555 4.846912538299658
P 10.940810460565006 5.563363929758741 4.419238375692021
P 9.576031154873952 7.345519803546722 4.724698108438065
P 7.6260326232544715 8.614940288720842 7.194254526686245
P 5.149081809853127 5.796040510047576 7.300486872100537
P 0.40687940052662613 5.740491729319085 5.646664738118543
P 6.972620228190522 11.063353323186083 4.966260243596028
P 7.765803002021499 6.078160974221616 4.858150420895258
P 5.20973166789853 10.219920389844834 5.956013454140996
P 4.512033773574131 2.5401286370446132 6.8599651892356475
P 2.662272482569021 3.0454573404049206 7.907381117675227
P 7.4872187407360755 3.368522753846066 6.503237834905318
P 10.617355878365002 4.880004632640026 6.604083389112782
P 5.39266249162547 8.060921383657382 6.98807398229006
P 2.14534923238521 6.211295090825206 6.904718930823306
P 9.62453060985085 2.9448411175847364 7.1059029921061105
P 1.1761263646547753 8.279765145555968 7.029050472418516
P 10.731234207592852 6.5085564266721745 8.109857530300696
P 6.454872128712075 2.0946221694426477 8.021161583908748
P 7.180443859707456 5.221243726297936 7.9923251686319645
P 7.3521419580093506 10.426420903322274 8.433996752696414
P 12.486586045837335 5.112451527990053 7.749914499630566
P 5.165122655667833 10.811354647186 8.26102740774314
P 8.023984221170782 8.49603774733387 9.376352417967313
P 2.0999016326098583 5.099672698190306 8.801006605158952
P 4.18541609994042 5.601971566643287 9.31035738563372
P 6.429433972291243 3.7563774997098007 9.523831982988286
P 4.196134372470447 8.823093363433188 8.682039284985981
P 9.988159829009636 3.152771542636511 9.317359171865728
P 11.247304814796676 4.956766446826704 9.592599938562612
P 6.8099772636211515 6.748307883099353 9.991083821851426
P 8.245475586258399 3.7582237680562414 10.75718178693749
P 4.691062353128023 7.4542901307170295 10.431433331096928
P 8.088852765092525 5.839745050773488 11.471196758826716
