55
Energy = -283.76668058 eV
P 4.776222086558296 9.483582871378614 9.506801183693948
P 7.1226493773527775 8.516031424783343 11.086757497106523
P 5.27900788232084 9.547019303124678 11.748511390237327
P 4.801295788865359 11.314693489221764 6.2644736134118
P 5.271849821476135 7.334841041431582 11.472692884495988
P 5.910350975361944 12.198972075689062 8.00997942510974
P 9.42743679258672 8.386715485057616 6.48421396918306
P 9.112431399433076 3.422468527246114 10.039621853955698
P 7.972456329952502 2.3811134383929504 8.431579956402814
P 3.458918366968647 3.5032301968521447 6.294619313497555
P 9.8626873405413 7.144550177221434 9.322270349633925
P 11.065872760025753 4.098404797686168 7.463920546523336
P 3.800875185857427 9.758980026359055 4.183814278959598
P 4.315881267403571 6.578960156236446 4.719997444285805
P 2.0172470338120077 8.808268599351841 5.156871542284056
P 4.144177312051641 6.927794812230397 7.654805788689606
P 2.763705409232783 5.136933088098912 7.640821677181289
P 7.025116435732174 9.937393686280465 4.03017264974865
P 5.638211153721085 9.339940869787254 5.700338581496863
P 6.660652908952814 8.684910721296584 2.174482389245563
P 5.197301575565272 2.561548085005903 7.3080432835129185
P 10.195083476475508 2.2669322462560575 8.426129777650827
P 7.386301369491476 10.558785492736398 7.769709298806194
P 11.411707873884708 7.507847954280346 5.991602460082559
P 8.736776607118825 8.79334796064974 1.3660206504246493
P 4.158359045593554 4.3994067175932745 10.45039976811354
P 7.0442342745070885 3.954558114334063 7.105809671017627
P 3.940513749440189 11.133953778325594 8.405575879214116
P 8.984677951567809 6.178749369948086 3.848376190840983
P 5.578759799482182 1.861365844433445 10.879518360954489
P 3.5385446011661306 11.879514770596838 4.678629373429759
P 6.748058260676512 8.75742473881982 8.778660217105015
P 6.284751512317441 6.530233627119201 1.642218064390825
P 10.165107785268125 7.350223079003135 2.3325185378510764
P 10.556720464290905 4.5450124182738625 3.8060639897221904
P 11.766658900886885 7.488757940722434 8.21986303662562
P 10.007874212622847 2.952434045355528 5.200348396528979
P 7.915968746603303 5.107587020563823 2.2454248445387575
P 2.2246893347377945 8.127365166441304 7.291958786435675
P 7.395984307157689 3.178843043397758 3.2087119783152063
P 4.700472864679965 4.406970023126251 4.6677655052199825
P 6.128714740126374 3.95667292655247 11.43462960866108
P 11.310858274166803 9.391992454335226 7.1395010570490705
P 10.165060459893175 9.516102738370897 2.935945983581313
P 4.1414098113077715 2.491160841105572 9.255167234819087
P 1.191284039918325 6.250338437266077 6.492968468919062
P 4.246746027930306 6.310661279936079 2.4661106759556373
P 2.095888696781099 6.680971860839916 4.437122560590151
P 9.054765296631807 9.911358392290003 4.842018204850451
P 3.675388539405628 7.610900802673142 9.795993169779303
P 9.589054715027723 2.726125348774327 2.9232766298819346
P 3.9267283057095885 4.135986037618865 2.6447595726495376
P 7.8017943762117 2.69468689213214 5.378996771844569
P 4.2906128064440185 3.0858727184872787 12.272273875514973
P 9.949095378720594 5.1244968549246686 8.904135589996937
