55
Energy = -281.54761048 eV
P 7.094789288929254 7.752710335152101 0.10195475494036281
P 3.4191578355114167 7.768110408985602 0.7264235646699069
P 5.288882464880455 6.419413261107027 0.47158018291332915
P 7.768935373538008 2.919147681372424 2.1030394574215134
P 6.677296706816663 8.910412127644424 2.0472800256294708
P 4.909048258227761 7.536261174262391 2.3339994068989474
P 7.159906690136675 4.90081531933856 1.6381422878161045
P 3.9747463234635103 4.750134519685993 2.3138655115833604
P 2.3032010010525306 5.869023736956813 1.286882754847016
P 6.056903899088349 2.8912307304119342 3.4910937437616245
P 0.9607225824489755 6.2987106913305 2.994268009340971
P 8.519389108506438 6.121927429429769 0.5794226161903357
P 8.199525901410272 7.949604322260121 3.3399318557977886
P 5.061999688599878 1.0549732054519871 2.7148842330996317
P 10.120693481308392 3.193313634455876 4.972444276736302
P 3.023802721274635 8.870702258179774 4.961685285878726
P 7.288020803449152 6.02431468615535 4.020293815378199
P 2.6669880911631645 3.387637423289468 3.4583964933244276
P 4.3525608124721336 6.12416326421975 4.044920933385708
P 2.279508982031921 6.731005106948699 4.759415882929888
P 9.862460265789865 1.0836724062442133 5.407621643822983
P 0.6298829080949947 4.173124472443043 3.406875510285425
P 3.0276214083036757 1.4104760681729087 2.517862882566946
P 6.719596650573841 2.240667143624373 5.525261243723101
P 9.974625547961548 6.334705388415419 6.552497388804935
P 9.203297782945278 4.322796015529834 6.540253698296315
P 8.111488241995756 9.367053383767692 5.026825563473764
P 1.6110947747956645 3.340660514421803 6.470693533350706
P 8.270543851807227 7.929189437728289 6.699141782261435
P 7.757452478225493 0.2651141842378627 5.547743668879147
P 4.642730110885373 1.6384412644216386 6.128288910723625
P 7.017619423472543 4.21832140747739 7.098535242807078
P 4.891645874744537 8.157356899885928 6.083487664909612
P 6.692233949417931 6.588884362487894 6.007126920544864
P 1.6029320660562008 9.402347509017922 6.555164157403022
P 10.164979192932586 0.6601519624335714 7.524143663144585
P 3.5929849358017347 3.591776426814944 5.546307133153546
P 6.190296126776006 9.794964931205369 6.636755584393375
P 9.897289669934207 5.286486107865301 8.529426925909627
P 2.3954875995661955 11.335830993929216 7.394112902720837
P 2.010650026884397 3.890284057750947 8.436780378144817
P 2.154900632879297 8.27079479064903 8.42657815274236
P 3.8428591443039304 7.061045944822715 7.759069477195657
P 6.969811301652732 2.4807873892196004 8.65522656792188
P 4.692283341962258 11.479377502764715 7.174520191268605
P 8.227350364675633 11.479377502764716 7.693396695358744
P 4.824511877001949 1.9987899273533252 8.406077697633949
P 4.167579877746001 4.140913027730365 8.222409068106417
P 7.67982969621494 5.503262208031716 8.952140013221692
P 7.118216293559384 7.478431868597219 9.520865342968891
P 2.8154269897988193 10.282302152882593 9.343641650135943
P 4.7694966397332 4.905956770706484 10.237580563444876
P 6.846612273836922 3.98687299203961 10.355022081449054
P 4.987975017502521 7.1234193304883755 9.711726771523141
P 4.992625453784751 10.363759547944944 9.029386041093305
