55
Energy = -282.60978339 eV
P 4.491935380714086 7.6672278478643054 1.9756272239889003
P 4.016156071927778 6.710930174280605 0.1161513701526178
P 5.59880023208736 5.377735106485313 0.803072338944931
P 7.851530245105116 1.204078494397247 1.5224574119863383
P 6.598110196366197 7.141647794552052 1.8654264224465462
P 1.4163201964003544 4.133247778617404 2.4890285535391525
P 6.1874917715063935 0.17407672735845128 2.2224814285805934
P 9.808682482522457 7.622018516609368 2.748821146109452
P 4.2476593211469655 9.671469609337263 2.826284249191839
P 0.5137143338022973 2.3796477937724725 3.488148629678575
P 11.33349478265716 6.173198470461939 3.9993699679319104
P 2.54694477106181 1.3939075019588978 3.4335246711518295
P 9.02535924169455 1.960928091088533 3.215256442936522
P 6.256604951606889 6.877313740897908 4.2057569884990995
P 10.720160542292733 5.670398614186345 3.097891913926624
P 0.622268402310777 8.042602095929505 4.551794716321055
P 5.829200030472614 1.388653926187057 3.9622027360891323
P 5.166604750649974 4.542868649146912 2.9519511641526908
P 8.597664458605605 7.702382714936557 4.505597860919952
P 9.078569455275858 4.179173010000421 3.81356045102352
P 3.253147509537291 3.514694604760767 3.4467580442210815
P 7.81403444446255 9.771343439050858 4.8716462209840365
P 4.078593927639171 6.283436426289577 3.7531713289896182
P 5.6150159826224275 9.082655217020458 4.377208889933756
P 2.6744668384529118 0.5396541718057943 5.482469703906923
P 0.19649901719588933 3.0343449716483755 5.728947124997802
P 11.33349478265716 5.758700877302881 5.2622264150832585
P 7.871408169304289 1.4584612083634005 5.087894423344908
P 7.135621257825061 3.457841733589556 5.853473557784462
P 1.049923833277256 5.063581266934069 5.439736572351818
P 2.171585164001164 7.4306161874537855 6.013110249478341
P 10.83091130199756 3.568481915759817 4.9913542991878606
P 7.599736181772966 9.226401004898145 7.037182491401818
P 3.8934283768564883 6.1244342927184405 8.285521467376382
P 4.921662138676737 0.4645987654772991 5.797159718732061
P 10.129329506440595 2.282693320180165 6.6011879122827235
P 2.212823889630439 2.529476132552407 6.4699831911223935
P 4.452545316338437 10.216685603043464 5.958910819324327
P 0.6864482844289082 6.2561229700264525 7.3161371589477575
P 3.585341723260673 4.0486024217408065 5.632879587438892
P 6.682424996509298 5.6252379737749285 7.769528636728287
P 6.062937367599566 7.536059620436644 6.934818527570845
P 9.739118596956429 7.008005519758354 6.311888305455368
P 2.6537928955597896 9.334340876103953 7.090955552168264
P 5.1209604770164665 2.5972009396115756 6.5374314922275705
P 5.855116442271807 10.56200955913557 7.684007061708512
P 1.9608928799996868 5.186104405497076 8.898907300050583
P 3.2696835725380398 8.207189321314763 8.928594403198305
P 8.54578496132299 3.4079700523452603 7.594880447700409
P 2.4498672215207433 2.8902838063593537 8.635778217370568
P 8.903158140578563 5.592285622161223 7.896841464494036
P 5.669063163461445 5.915216672884768 9.812411748435656
P 4.6493811462945365 2.775897882120643 8.644713822026938
P 5.4391246507015545 8.633853470916987 8.791703205411299
P 6.335471379193066 7.867051173532929 10.531215035630789
