55
Energy = -283.50219559 eV
P 4.596672805300435 8.91234695584223 0.5829525727496188
P 5.604240534489169 10.54325506531506 1.6159416222232739
P 4.023812415306039 5.545164423203755 2.1112277572567346
P 4.242993198685201 7.77219540176007 2.376535695978384
P 7.8721502241254955 10.255112914967988 1.1796838191404513
P 7.76047991244148 8.298243524951175 2.156372285201415
P 6.331943205282357 5.115239725119072 2.2250670549185134
P 2.270568852309463 0.5725162455775177 4.414087800101236
P 2.601028812885366 8.84675336972703 3.22831575604883
P 3.1387230381563307 4.728622963375805 4.0210877958474365
P 4.493346269649261 0.5162027961784734 4.211473598660792
P 6.425942327733361 3.008939862190344 2.910359714642392
P 7.89444771415527 6.028516088124026 3.651362249179078
P 5.430613495577428 10.31243015489368 3.839936956873544
P 9.227157015591443 4.751520472092205 2.501762560799442
P 6.009854444354248 8.163418359203693 3.730631010870616
P 4.953265006563764 7.368424898745571 5.635262701949462
P 1.6004740852171806 6.051604617595719 4.972340948979706
P 8.933959010564479 9.859307028186196 3.12461755350062
P 8.502194817946489 3.113030880969133 3.7620876791813864
P 5.451249093086463 2.3591396824543764 4.850879108908864
P 2.806683911857792 7.875906532188102 5.146766291112468
P 4.877844933468206 5.188831142752447 5.2775010892367655
P 10.245132348107054 4.761983713076595 5.979585598782297
P 1.833976935722087 1.8997330172702027 6.142227550344187
P 9.159187605016346 7.955601866487748 5.515758206140841
P 7.463853535807207 11.044599092608587 4.352264183987706
P 10.755302120931749 6.8659471985089295 6.550564678909106
P 8.050679629024698 4.66003880381049 5.4514942598312786
P 7.5333938779815455 10.65051143045874 6.555626924267363
P 3.933107815155947 2.4101246411323864 6.734222232883136
P 9.572485364656906 9.774461361578526 6.757738861859391
P 7.379984610015385 6.665262590981838 6.995879541873421
P 2.302449984539059 11.084414169136624 6.668999082026927
P 1.80730478394077 5.227156741210499 7.038791857109168
P 6.773645091634803 8.822538967636131 7.717829591569917
P 10.266871276206194 3.9531475616917198 8.11456841566816
P 1.9595758164834978 8.937629293843925 6.91200183463472
P 4.485203826422178 0.029189249202216473 6.38522202052622
P 9.216240469909732 6.923125165532069 8.205264202594376
P 9.040629658412712 2.187079104839129 8.03467604865134
P 3.47275264371209 10.399474955866543 7.503437326437217
P 3.9981788571046057 4.686872865081475 7.211679230442917
P 8.788806343449606 9.068821116434712 8.795129769322351
P 1.7271654935683 7.146225802249246 8.266540476340936
P 7.093961982575435 3.096989661839827 7.894528821064399
P 9.051750114043966 5.204235387820739 9.589407074327204
P 5.904262597822363 1.751667838577698 9.325531804046655
P 4.952902791218071 9.686153476166723 8.84361368922552
P 3.510859469498798 0.03917063309521672 9.151443629766312
P 6.935500620228685 5.015989589152643 8.97929336347058
P 5.559930511054744 11.044599092608586 8.381389067050439
P 3.447239575744831 6.414917758625418 9.45648929563056
P 3.7608486655239277 2.22794167138856 8.991051447673089
P 4.924167823201681 7.764701282072134 9.928493653642098
