55
Energy = -283.33593206 eV
P 2.6631836698166085 3.9384219543572074 0.756859066126181
P 6.467288924001981 7.383426523705246 11.738007867350664
P 3.1655417772315806 5.985140434720488 1.4040415462642595
P 4.863976381816724 8.348630895499507 0.6803253897036395
P 4.8721925163863835 3.830599375291638 0.10168449684432332
P 2.6171009214385026 2.7435271329255833 2.6568215274504463
P 4.808885302823359 10.496988456940857 1.9909217557468657
P 4.067885195723543 1.0866960349826162 2.0632615018154783
P 6.4096931223535245 5.519970589454612 0.6438877521604398
P 1.391118236120299 7.155155423108804 1.8196596187211904
P 5.702175640955741 2.644664740622433 1.7568495513348537
P 7.635434438667868 9.007462889555818 3.0788660485668204
P 10.780404211361747 2.9488510075172174 3.9052830981663407
P 4.013538156208492 9.178749621037738 3.5818283571092495
P 4.1727708783764 5.606018252272583 3.3695458871862156
P 8.809005377385466 2.316363408982414 3.7531463064933237
P 6.844979003405342 11.068801602023681 2.9251423691702465
P 0.21764987509496755 3.1826813587279394 6.148224897277263
P 5.7079920534034185 8.011036792346838 2.633688299946951
P 0.8397650179395972 4.836190536457996 4.81658572247543
P 4.527680150687302 3.454012655417599 3.5006672118268822
P 6.312045492489285 5.899834304635431 2.855635147476103
P 11.384936208835308 3.1855414302183007 6.061409514445271
P 4.941172000355799 0.8089488659049355 4.120401830408652
P 9.157678130241473 5.7989543176768645 5.973792892303375
P 8.117810632561836 2.8737636317756667 5.728351950351025
P 2.254050766050002 9.010543015418474 2.198995369478498
P 11.384936208835308 5.162846592815497 6.203459117172932
P 8.093003196265805 7.699994017346206 6.633399571201503
P 9.717974170518437 2.0211051097291075 6.950491987483348
P 11.215969482549566 5.364916393151619 6.74678699719133
P 6.614791437543073 9.920740519391392 4.836087868008543
P 4.9540374804486405 0.40151914865066013 7.148767911890726
P 8.479738608212871 9.843229712256992 6.128761176431276
P 3.4435280426122707 0.5497618432995302 5.55397738067379
P 6.204645688116225 2.3102211080699258 6.707834922099985
P 2.5359737450673587 6.039013618605566 6.171294309508369
P 2.963687445030224 7.966069756108533 7.627249400603732
P 9.488762205495409 5.337139428724489 8.134403086521806
P 4.007632517994887 4.308413348832332 6.4732867990164085
P 5.824213491313133 5.3816350297722515 7.222577136782225
P 1.0402901041794195 5.685487844819556 7.767427841329184
P 6.28097513878152 8.68906495522385 9.16520662486204
P 9.209908644756728 3.1963534127956765 8.728441358009206
P 1.063049511227011 3.545799837117884 8.300713293122799
P 6.994582737742173 2.5279183334750135 8.791033682047987
P 4.111479014332679 1.384417463817845 8.901063727793375
P 8.431507630242157 8.24077917279551 8.789010276206396
P 1.9069942191555946 7.02008568441604 9.353196789709816
P 7.564027657660527 10.253228466406135 8.145449399593009
P 4.91279938251635 7.1184480377240575 8.325153218180123
P 3.269447003664641 3.3114972478004807 8.32108383190819
P 4.022168462201182 6.4260472596485325 10.226235488651195
P 6.262499913021225 4.5837347230363505 9.267035199146896
P 4.256374703297897 4.224280413337126 10.117638553169042
