55
Energy = -283.3944408 eV
P 7.682193702586567 6.354073775154122 1.4129817320660258
P 5.065118740988091 1.6904410126550717 1.6089031262924338
P 5.884993684103274 6.712034191235254 2.7388720043561827
P 7.195626465324218 2.3383311446400197 1.3790321696572252
P 2.788532138377828 4.5529711986429335 2.3916214283664394
P 4.823641352212603 5.116637121526048 1.5139243128697808
P 6.923078520734837 10.021735841481775 2.938537646912551
P 9.300392120980916 7.5889294708429995 2.3362547946544305
P 5.404072066797839 8.736156502685535 1.840341895881011
P 8.0806492848066 1.0520043076012815 3.0625023772229105
P 5.073948115328288 0.3592600013533206 3.449484198594102
P 2.5597834027943587 6.314732335428281 3.682690418004019
P 3.5255083970096655 9.455991138672124 2.6221663432425104
P 8.483019712915251 8.835850041027888 3.9849909052643957
P 7.567357689706539 5.3924915624488925 4.604476183335522
P 5.820686397635759 3.4744470052939436 2.668579842785994
P 3.1353557972822563 1.039549804718281 4.436642279843697
P 2.554763797831058 3.1925686132853754 4.195061116841484
P 6.5762976090251115 1.5135932238446597 4.603850351337151
P 9.102917775465073 5.472557793007112 2.9404133276826885
P 9.896701099565226 1.9145909639660663 3.9808864991245523
P 5.934006536733202 10.830643325375814 4.735673088851157
P 4.090814902938971 11.393341605936733 3.6353236868126957
P 0.43682589645646747 6.483574780862891 4.197842341125535
P 3.262615844541117 3.8550411984633635 6.272157341506841
P 4.753193486898228 9.090994235800643 5.716332565159555
P 3.761829750262914 5.90130901785697 5.516003968624912
P 7.420030850614461 7.462073708029585 5.367140498108837
P 2.9565337253673643 10.303312425288933 5.236265420148086
P 7.284317506382114 11.650095759708154 5.839543729171515
P 1.48842643965792 2.7655459512426437 6.832051505218562
P 5.540737662989016 11.830643572054429 7.2666623234753525
P 5.237205846432918 9.776790165414667 7.845088219189954
P 10.176155249657125 5.843396198213744 6.836662684529651
P 4.239152989378561 1.5674426871841278 6.368211815182825
P 2.001320214754513 11.650095759708154 6.655357051142943
P 0.4686689648601351 7.200421075111704 6.115394472025137
P 8.923756986868689 7.674640353961541 6.996002804493062
P 2.605915082009377 7.447634489557442 6.563080476002432
P 5.929402662936001 5.500051073423964 7.764523702755607
P 8.424996056086076 4.489839322877768 6.435409166858016
P 9.586540115852422 2.5998327895259683 5.9656988629076215
P 6.69124501114133 1.4931673614914884 8.52107471374434
P 8.530347765838854 1.0484936957741495 7.244781172465443
P 10.392793913912955 5.338502291397561 8.997052214473273
P 2.917517290156275 1.7229590413185334 8.210398409370908
P 7.51645285188262 6.870835957365499 8.501735270948625
P 3.695123640054706 3.728228384370634 8.665331039535364
P 3.4593625633216076 9.481190760479896 9.109230488540273
P 1.7993984042155537 10.839134793996504 8.537135900370084
P 2.731621648324656 7.395321675916914 8.796540284699978
P 8.758587562652975 5.992849441043461 10.083430067903222
P 5.9207994637304475 3.5813204591081313 9.048511900012786
P 4.679568444706299 6.5145042994890305 9.455963374144181
P 6.042993510366192 8.343786925259462 9.379073199621946
