55
Energy = -283.27236797 eV
P 10.582484785190735 4.377724971564425 0.9573554325959365
P 8.460475647012663 5.373239106455912 1.0759459767556905
P 6.874226402176697 7.908347042079332 2.381788692375075
P 8.022665941578175 3.1528954087411187 0.592151473215383
P 9.839153946059803 2.36996116208012 1.6091738425656907
P 6.290292159401429 2.1630232838476595 1.5539787872397925
P 7.632297172015845 5.979058227518907 3.049157545226049
P 5.224428614356108 4.413198162062418 1.6711297500118494
P 4.591429064303721 7.684709226914701 2.631634288068998
P 12.043789273601607 4.845454395948606 2.558237245983749
P 3.095780267735437 4.288107728698932 1.6562713960213113
P 2.490243392721069 3.42132438071884 3.6463630147376636
P 6.682671778201348 9.787668983292882 3.8393739747816054
P 9.514318394022055 3.2711256578506887 3.5945317612292986
P 3.775239105283273 6.369495531407275 1.0999771228469861
P 8.773703179935262 5.798361709425829 5.0196267622419946
P 6.7815545403526585 2.385027583466432 3.692425834785542
P 9.078152905669546 7.913585686069179 5.631626811436172
P 4.774715178469667 9.801493643361534 4.918336885929366
P 5.788716834533897 4.700619021679573 3.9577001547954906
P 7.854221172572184 9.744551223838776 5.779485684224247
P 4.174988045523251 3.520979464515507 5.0258983264271215
P 2.5201810416589097 6.793035983499537 5.005477131331752
P 1.1918246710475506 5.089132904394143 4.474414600097305
P 8.603615473629754 1.5520652622479614 4.701363748420478
P 5.099700079281419 1.4983439193467603 4.84187768893066
P 4.720121613536631 6.660043494508876 4.558816516387184
P 11.583202401966018 3.651029409746486 4.182230839818008
P 2.2552079800686458 5.166508430083291 6.437131073677015
P 5.879697733750089 9.407825786807757 6.737696107123541
P 6.310767512474646 1.4366148143807669 6.786388153827399
P 1.2337150936176233 8.874471136140828 7.195153480087035
P 7.999002494475184 2.8362165341946692 6.47105485998355
P 2.4750395650104178 10.523104344225795 7.316299522963029
P 4.225367165750733 4.2029444510057985 8.27767681316783
P 4.879358740432631 2.0784485694166177 8.38536813737603
P 10.290351286625256 7.296126101970679 7.329531161915666
P 7.020738294394001 4.75033544753261 5.94377603998682
P 6.157456156058226 7.328022902195426 7.660534592484293
P 5.722411312909009 11.01754755198973 8.275414877925245
P 4.087104884378267 7.370210112762873 8.51949331661846
P 0.8915367212380777 5.544173388208461 8.186635168908525
P 3.611592161925705 10.80177095375762 9.17996368347782
P 0.8362140259000203 7.6600994339624915 8.957840354260748
P 9.414723571541755 7.530383702022433 9.297869670302013
P 2.369147516746827 4.505965232350246 9.599645314479792
P 8.85507870187648 5.518503456175949 10.299339283395948
P 5.679961232202061 3.4929319558857164 9.906719392815766
P 7.0439530348597925 5.118640456458799 9.070529529074813
P 4.0683658974054095 8.876790130951228 10.149318088031784
P 7.307023817876768 8.186585013248333 9.363333309364954
P 3.64114616815052 6.143636471728903 10.383555897446731
P 7.273958577253627 10.304959099991914 9.636719290633762
P 2.2038658383350636 7.80230680036432 10.76952756375624
P 6.92462590772169 6.4328796217197315 10.878738503250228
