55
Energy = -283.89397845 eV
P 6.025292278208632 6.297356987255366 11.504834820486241
P 7.075457016468311 4.427494527728779 11.693591992533303
P 4.032955674087496 3.601880568591149 0.8671621332034871
P 6.632932635076929 6.865100828170678 1.346425721013399
P 5.335138621160855 8.570081090783004 1.9797891450897882
P 3.2748044856786755 1.5920319071598399 1.7112334759511019
P 6.200780490068221 3.4836512096241723 1.4337685682173806
P 3.6303984675390235 7.035604542057614 1.881583000871984
P 9.172503426123377 5.004929369376718 0.4139486721371423
P 8.8678028315526 7.09817351498127 1.0724590668080847
P 4.394814811362482 2.150068041025022 3.5657692148628612
P 1.7182770927794484 7.633007786192005 2.6495495539614713
P 7.706008579925723 1.8394432539865844 4.010643944954275
P 1.4350174178756274 2.747690696805114 2.4200124544731816
P 6.471575536311481 5.188251698333627 2.875304390114127
P 3.296371510762549 4.034799542409407 3.0066973695890042
P 5.263945779075278 8.42993253057096 4.21964318523125
P 4.507616300139405 5.874691444323301 3.6150162864391984
P 1.88532323273362 8.591143345797287 4.580118390304802
P 10.04917254124988 3.9453238439369023 2.2577073984421183
P 9.743549883307383 7.300167327891137 3.0731837501967645
P 1.1049036206554532 2.222900473544483 4.56440311529369
P 2.9966763697231853 1.038877446034129 4.873930447720952
P 9.593358131192302 2.7000414745502597 4.096112335830335
P 1.9767384503805094 4.287276534107029 5.191016277768744
P 10.42362296386164 5.465874992987117 3.7288577360528152
P 5.793672407561385 10.036438032766393 6.996460819525905
P 3.621829866564841 10.028800179423438 4.455544498404349
P 0.5532023872156714 5.4359999317530985 6.380095408534275
P 6.935903765948734 9.162245673271396 5.345090839609686
P 8.248780107699243 6.275068095684155 7.135723083990505
P 3.4034757641505937 7.607486477755894 5.94336814158102
P 7.894440420379731 1.038597155631861 6.108056581663432
P 8.591566657778376 3.0342247423807955 6.701165886486745
P 6.4241040939525815 3.7476949332824248 6.180124219270386
P 3.783369662471833 3.8357087219825847 6.461643176073219
P 6.127064688398535 5.923357918462372 6.690786276269779
P 3.589422405398082 9.729505938869366 6.658582928229903
P 3.578142297568565 1.6819119658170698 6.922682649452622
P 2.133649742913062 6.448003476012165 7.481897429454329
P 8.207026927666918 8.151156585456668 8.469956532110716
P 8.85301128845569 5.126006314621729 8.951058447955042
P 5.770553936312007 0.9723721421408779 7.2592798747798275
P 3.178110963346783 4.700552715431409 8.389785046532204
P 5.01166885886661 5.950025437281938 8.743154862214363
P 6.020631663959872 8.32495507680502 8.445263637105818
P 8.098033799024627 3.016972604020602 8.934353366622085
P 5.964784151537308 2.9525854958676914 8.238943440322245
P 1.7734158030463825 7.866384212281588 9.121822116456704
P 8.449618073293328 6.897317933665996 10.348731253068552
P 3.581334573384577 7.220010910968042 10.089294711393798
P 6.526596560811905 7.132671748332933 11.504834820486241
P 5.5362352556892205 5.204576347802799 10.890312704144502
P 3.5006697430719265 5.613466196041447 11.501083299932617
P 5.316775466951627 8.742237538687489 10.523800388321167
