55
Energy = -284.27328382 eV
P 2.3551799982889707 3.0208426998988744 10.65960246564904
P 1.8111459108380095 1.111135878537274 11.595449333729809
P 6.755113150680273 3.0764913135609357 1.5957761148022906
P 1.9846233014947576 4.685443733307814 0.34489062324643815
P 7.116690183931528 6.620659943996412 1.0107358124302648
P 7.974303849620935 1.5276780376313082 2.426469342830267
P 4.000738869596509 1.7589026353258523 11.507094174548472
P 7.469306608738815 5.012860574979725 2.441319440140061
P 9.522893088087752 4.662107415120156 3.1221575921540103
P 4.93734204575343 6.417405432623324 1.1207204598587446
P 4.983148312094328 3.2293587946380127 2.977088451281753
P 1.5656431337084773 3.8769655631122886 2.1814825698366818
P 7.580003044499726 8.395427162649279 2.356400142787736
P 1.6474172102258828 1.6833564490751896 2.11786208542119
P 5.7123831040024315 2.6040292998323444 5.038218840793246
P 3.880472563867704 1.5205588291808232 2.0274568584581907
P 9.157714854876115 3.4455618900940883 5.061671365014904
P 9.411215981992642 6.7416770533619195 4.033599920786318
P 4.021717292662789 10.99915986948424 4.1578630733315185
P 2.436045134662521 9.379662008625925 4.033285245617121
P 6.328177548313436 5.599726845865665 4.2767249268179945
P 9.775162638474558 8.407220319487756 2.7360200626392976
P 4.456667025889733 5.596418212087244 3.0629082209777128
P 7.307989116930178 7.579863194249539 4.423663952510783
P 1.7839144049731126 6.82228392419537 5.787187685673047
P 1.746636108313379 9.056240587549556 6.11429091650395
P 7.766000124995834 1.7953283983899464 4.584749060978957
P 4.536586055792355 11.530541579325902 6.255717244539427
P 4.599645402708435 8.849031172242158 4.432184664434695
P 4.188484397746058 9.470317735174309 6.581858176913851
P 4.587628484627144 0.6852765492540881 5.118922889673574
P 10.545501614240255 8.952566775881186 5.842925369773814
P 3.7310056069601965 6.754842752424698 6.776946178639809
P 5.659194065386089 11.530541579325902 6.98459438650251
P 10.88561808075582 6.765871335085749 5.662420007616822
P 0.6442772730451221 5.620143752442885 7.397770700995873
P 8.061351743758214 4.626688237362235 6.535055679030082
P 1.8456890452564079 3.819223589112851 6.901292322639564
P 3.508151709980675 0.2617734216716342 7.063529042891174
P 6.526008314823984 7.1032670582035395 7.73217984750295
P 5.63856664196451 9.08479990241063 8.371004942099887
P 9.21944977740112 9.2954606778528 7.382613881346348
P 2.819225361962446 7.598324606783077 8.642806972040423
P 6.769540139458029 1.4471667514659867 8.063868178751767
P 3.9826255475155232 4.586044539506804 6.779577622859192
P 9.776864374739686 5.752748950762602 7.352000695090106
P 1.474678342313278 6.099136667762697 9.497010646800948
P 3.434993886626608 1.3342535606143895 9.00950105572052
P 1.7547863239344033 2.857523633099065 8.917641620325567
P 8.697687680357484 7.423615051272256 8.366562420421658
P 4.508492090228915 7.905217078042614 9.972958470117954
P 5.889019709951448 6.102490379952084 9.653807955394123
P 2.7619432541312143 4.37953820619653 10.164844995267247
P 5.409166204045681 2.3297473996535856 9.44121277011784
P 4.594139902505457 4.4319191486411 8.901885719363495
