55
Energy = -285.08305748 eV
P 4.4402224241229495 7.948189271407359 0.4609664921643551
P 5.32021912390647 4.281794832464049 1.2926702251556588
P 4.880143280812878 9.75569741440721 1.7854540074712513
P 5.875225420517167 6.470306436985769 1.5082785620332955
P 3.1267697082536166 7.257612490278385 2.046844953137819
P 9.521129940218538 4.126490782678159 2.199291149558572
P 1.5265592815231632 8.668195037183418 2.4878878115134344
P 1.9305168621531599 5.463109560330868 1.6899315894977012
P 2.9033550843371216 10.408949189517633 2.317616148595091
P 10.855650397064421 5.738369199440661 3.034244953762506
P 3.3513005278230064 3.824480039195695 2.266570611353337
P 9.587369559935455 2.3239059642309816 3.53503143472566
P 7.3197402433332694 2.025190688471494 3.2932955077453143
P 4.836112422375555 6.766855507131082 3.4706354620885516
P 5.840480557972299 8.683890610005559 3.5959226513856866
P 8.163934287441544 4.989637018966025 3.666346008777068
P 1.2830281635064098 7.694366690768584 4.5581551274668675
P 9.041959423485277 7.029329383625417 3.354557910541064
P 1.353428348650292 5.461659850029577 3.901043353005593
P 2.652388432815545 9.01768079016426 5.663989630062093
P 10.174112057624257 3.0624917304281762 5.625190900335028
P 3.349997255378325 4.508985276904558 4.44391525542094
P 11.547554362226508 4.730217224805424 4.9752248964317385
P 7.301575337345546 1.4123616607914136 5.435503435025953
P 2.2554671733420357 2.676014595979001 5.224593105315147
P 4.8220000245922385 9.645743521538641 5.315446545654079
P 6.210750035396675 4.000589297042579 3.35471617747381
P 5.477172100692434 0.460280041589013 6.369208294730312
P 11.246173010582895 6.609121068807045 6.098197859172971
P 6.7372743154295565 3.159572999844379 6.622307623914975
P 1.0468361457240463 3.868224845582936 6.625718869546488
P 3.4945974288336554 1.5479118800945373 6.694026159157401
P 9.161918714104345 7.53629529012163 5.656258923418414
P 4.3886744705818455 5.079457293915845 7.837836645063416
P 8.60932430538697 4.387228892912637 6.52060771497573
P 2.3208461692504736 5.835443618980679 7.554204053205838
P 7.4105234071089034 9.851195229766377 7.214869366673312
P 5.927729717685712 8.220139022258982 6.661693818631372
P 6.5408215745037 1.4416920121526013 8.15129452690228
P 9.096823286793251 9.707279802109134 5.8590406290595665
P 2.5364957400803654 8.130478832990729 7.710700852286378
P 10.888415915240294 6.157047294085503 8.282658595317388
P 9.053612559416608 7.401754725859423 7.951258531061275
P 3.7625012912163527 2.978151194339261 8.324680323231735
P 9.346294199344404 4.453961512652241 8.64902836303712
P 1.5195739897653118 3.062987743365269 8.62684604719079
P 1.2878058828298478 5.18990359885391 9.407136437043945
P 4.552545900013702 8.80109668733044 8.323915436780062
P 5.08704089759777 2.0021497548822142 9.675551655855932
P 8.349622429694938 9.031106022078896 9.187670713639566
P 4.662300784222172 5.429704749099165 10.036997405413842
P 7.260881585057414 7.337858541513719 10.2782327540244
P 7.566546402890906 5.905390829274807 8.546287620066531
P 5.035673249150417 7.658250220862405 10.18083744701222
P 2.7072443018009857 5.330461741055784 10.995868939042756
