6
Energy = -29.47454225 eV
P 7.9163187259693215 5.121633468136998 5.382150584914618
P 8.149706666285491 6.436253780911225 7.005806663583193
P 6.306050835817711 8.143989874877501 7.003874763913855
P 5.0115250687547235 7.806210326587049 5.382150584914618
P 4.778137128438555 6.491590013812821 7.005806663583193
P 6.6217929589062114 4.783853919846546 7.003874763913855
