6
Energy = -29.5038388 eV
P 6.996548742752971 4.298583214205066 4.098617288513291
P 5.736852960069922 5.733695165012021 5.235124056292608
P 7.244137762453239 4.318788568616882 6.1077114465316935
P 3.9197556999972747 4.428555446701933 5.494216470368316
P 3.036925948011745 4.61273601789524 3.4599125989285318
P 2.3161603575849283 5.869350636320684 4.872664848246521
