6
Energy = -29.29477218 eV
P 6.270466857085257 7.8324860375428695 6.487311890398411
P 7.054157592051823 6.665917614387043 4.798861906622256
P 4.738626344219203 6.326834270080786 7.017954848281121
P 5.035557955755133 5.700199638187587 4.8218228303017705
P 5.852239403125328 4.440412276075713 7.316299765706075
P 6.847481498992698 4.5043391449942405 5.351646121996083
