6
Energy = -29.42559184 eV
P 6.664330119766621 5.350230984422806 5.591954342080617
P 5.2612844130760275 7.30326690077727 5.661836387877574
P 8.201528504531343 6.910155588953196 6.543037795844628
P 6.809013648851807 8.580892081560231 6.496755724843714
P 5.04057758433487 5.6358115832166655 7.0932205777586015
P 7.210012943224865 5.35177126370223 7.752563302337377
