6
Energy = -29.98827024 eV
P 6.366204356421787 6.8636587000797515 6.849689914886677
P 7.112970080587847 4.922832797954096 7.224101179389066
P 7.317754720966308 5.591180246246132 5.227964398919019
P 5.148915868660049 4.659498719131167 4.681401742564609
P 4.391684701455493 6.600712840323598 4.31838091885313
P 4.192313845365683 5.926239256798174 6.310592062448773
