6
Energy = -28.9583857 eV
P 8.214117042028185 9.417598046288537 9.036862217200456
P 9.806598618177551 10.771157948299606 8.97197043025382
P 11.426812861629074 10.119624934820235 10.18618773728792
P 10.994936780452 8.302053341270517 11.126105202576662
P 9.055201759001545 7.991353235436496 10.348607293407172
P 7.922935387018261 6.331377676852195 10.917722847591468
