6
Energy = -28.06279111 eV
P 8.638963447822823 9.765055508100065 6.724213224411123
P 7.905732597043212 6.818515916424795 7.276311393060111
P 7.0839320068028515 4.723143871130676 7.639239678289471
P 6.243614227363534 7.986611328214266 8.090473754880662
P 6.604390513414988 5.633533531349033 5.898870832500715
P 7.232316930077508 9.907161105943725 8.191775511447952
