6
Energy = -29.44876988 eV
P 1.2497265799782007 2.9483294219800493 1.4860974056128535
P 3.297369478625587 2.3950389392858074 1.2327778858153466
P 3.279899528827003 3.1022593807774266 3.2422541422442728
P 4.4638559722743425 2.2274480365594185 4.823875969161078
P 1.2401170054245068 3.6561051916003104 3.503983880167305
P 4.933823168060746 4.135610762987634 4.17580245018966
