7
Energy = -34.69923247 eV
P 5.390839189874471 7.649656222407334 8.322658610370535
P 6.526226835577333 7.42853497276163 4.866645775543627
P 6.13176104250234 5.210738192010892 4.81638067743155
P 8.119071630354211 5.952020674480212 5.396687917333492
P 6.656264017919424 6.003128402222087 8.586984799724872
P 5.084391198430718 8.203260297465851 6.330019719640531
P 6.928431123875056 4.6995157589659176 6.840490213348746
