7
Energy = -34.88077978 eV
P 4.694061311889753 6.133961914475371 3.2326117003137327
P 6.528776968156055 5.321993717421699 3.991778729545595
P 3.9114139325575317 4.5378930066369225 4.435600217565862
P 6.794260961223409 5.680024571258215 6.201289485616603
P 4.181017678809651 4.8930947139157555 6.646619130917551
P 5.796062799991081 3.732233463411639 5.485020981477673
P 5.153089622071802 6.759481887579803 7.0657630292623965
