7
Energy = -34.44999422 eV
P 6.6894156168706 4.457615897200354 5.554734676415088
P 7.523371057161092 5.1766851283170725 7.500218158766729
P 6.403277310161388 6.525364431575437 4.748315529484237
P 5.431219769173561 7.403948210169274 6.5648060165284035
P 6.4326243714162334 6.864291792582849 8.338281933855567
P 3.644138522034925 8.275009051518705 6.440655723068372
P 8.374486953330921 5.879812006729906 5.511131863841577
