7
Energy = -33.23409048 eV
P 3.7715716438843803 4.015462699194221 4.662518040877511
P 4.559095640671837 5.632658876576847 6.013016552223498
P 7.252240706455636 6.7900315056873914 7.557039180102068
P 7.500077384579431 7.37784705655116 5.423889504273155
P 5.4318104350890435 3.610163670811645 5.754939971225056
P 5.831330310865438 6.640393146580949 4.48336484856228
P 8.139936245571937 8.341938943779649 8.447010134663923
