7
Energy = -32.75939462 eV
P 5.156962271789748 5.0842927247873835 9.505011650200254
P 6.212178211655624 5.317141706613298 6.4634749042743636
P 4.367487128325026 4.924190865664948 7.673847203855829
P 7.995280815361873 7.846034742050559 5.335049651281856
P 5.411249529503052 5.87859958441692 4.506035122185701
P 7.259416466242617 6.7268085586002035 3.732153685154457
P 6.692285091253232 7.38167400184136 7.001773358247903
