7
Energy = -33.61234522 eV
P 7.110468337767203 5.475480605159796 7.623299604536597
P 5.918571577875488 4.318607182174234 6.109281525674079
P 5.206877524933911 5.759817778540695 4.618597199972115
P 8.55608808847879 7.563316206303198 5.2399010977874125
P 4.902535795826686 5.738060625495652 7.5247342137318025
P 7.2194260335607 7.594171709715232 6.893330696386637
P 5.143771730796003 7.468736945027727 6.015268122738468
