7
Energy = -32.9525205 eV
P 4.351115064904064 6.865074323163333 4.652995597098008
P 5.4159676292986125 6.189223511554984 8.155425664038468
P 7.574000132727467 5.418033271137441 5.766716210745329
P 7.958491458376779 7.364708140709359 6.65347357881925
P 7.591947458085099 5.671031749785566 8.010753661639866
P 5.354511074734794 5.491518015112515 6.094867580007453
P 4.182255493888248 5.4756391443765 3.211888407163231
