8
Energy = -40.0574978 eV
P 5.065364132124374 8.34418214754426 6.546859609588298
P 7.167224086707391 8.008736194310243 5.854407552812544
P 5.642440408353311 5.477080759385107 7.685240270396963
P 3.971845400037543 6.423375159444655 6.602854272817067
P 8.636509599312133 5.140700140064471 6.021062614692694
P 6.702848296510519 7.4655206688648015 7.914054416113218
P 7.3017910331411695 6.162823518719884 4.609503495062848
P 6.54327999968735 4.532330583482959 5.8875676377361685
