8
Energy = -40.61274305 eV
P 7.484846610078908 8.836483303281632 8.233525044965832
P 7.7169544813399416 6.828416001084997 8.85291724415983
P 6.561901669452658 9.167212811969186 6.360255404256978
P 6.868082808727773 5.825893597295706 7.204028837905509
P 6.164355539224149 7.180050838138562 5.774073520175674
P 6.481200793346484 3.836096002319051 6.62582910967798
P 5.2351018998773435 6.169945822011011 4.1715785398135585
P 5.494576760889369 4.16292218683648 4.784812861981011
