8
Energy = -37.89758706 eV
P 6.954042898072984 5.696337595348982 7.932360301635567
P 8.062294088716754 7.713081730146794 5.916017858027486
P 4.925131483793171 6.628311976101803 5.31723549926224
P 4.612300765828943 5.92804832540798 3.4702901562146304
P 6.036212140407857 4.469057867566746 9.152054122887371
P 6.920477408971211 5.690937483000303 5.729560379444149
P 8.331361378966083 7.544196202874255 8.132405845039326
P 6.853310414205035 8.860205523190693 7.301904376288249
