8
Energy = -37.13920035 eV
P 6.517211488683505 7.015298643753506 4.806887002115075
P 6.307148571900361 2.3786591997598685 6.654678740169977
P 6.332625026623867 4.511357373495087 6.7403520708791875
P 4.37348248673936 7.2359067671742086 5.632585003001796
P 4.169915825740637 5.381549957653429 6.793457074489647
P 4.80976137845149 7.23713386367072 7.756952369643359
P 7.700306617257953 8.44849118478123 4.1468868047943435
P 7.026604412445136 4.932151955089329 4.732131069794793
