8
Energy = -41.13460743 eV
P 6.787228517991009 5.903465217422166 5.880304962251748
P 8.76614044687282 6.977819306381189 5.751141028575426
P 5.510822967894273 7.130618219205458 7.152841581837901
P 5.527296821697323 3.9787284793130864 6.578372701294784
P 5.248669663066281 5.141454022914746 8.414793757721872
P 7.2910523224374035 7.158488618377772 4.0943155443169825
P 7.312458491699396 8.594116984721694 5.73689661319329
P 3.91100364526289 5.469982028585165 6.74600668772902
