8
Energy = -40.54371155 eV
P 4.563439521616602 4.132877167401895 8.272661978153211
P 7.09215555450539 6.09808761934405 7.1501613606922065
P 4.859212990234865 5.969656309176639 7.017343970212855
P 7.348166168936899 8.343661184856877 7.339472803223034
P 4.646884789573589 3.875676616484495 6.271319365560657
P 6.907258899630144 8.73117967367094 5.171454057526558
P 7.633870638697246 6.612648240203686 5.005437923535261
P 8.959910497136143 8.247112249192169 5.7830476014268415
