8
Energy = -40.72889436 eV
P 8.287569844642357 7.534837455426636 6.350134378880673
P 6.829832235962961 8.869156889488494 7.302409249065681
P 8.222316494510743 5.364170806391103 6.767278367916561
P 4.93557112411846 8.146738808408761 7.5897830354366285
P 7.5923245887128274 6.139645157632816 4.7743782747119665
P 5.495047542181181 5.307084455424529 5.1295600792991305
P 4.524127726978556 6.086210808640402 6.959065263096425
P 6.119452927771034 4.558398103465503 7.133633836471175
