8
Energy = -40.76527766 eV
P 8.577523532455283 6.56878536635173 5.592150956370982
P 7.8759994782031795 7.544069216202894 7.437408577253281
P 7.012982167677537 8.115553296921497 5.510445684345275
P 7.643069349080131 4.542034988633361 5.412232847506809
P 5.794579927923288 4.694117564714943 6.288106097046412
P 5.932744818216606 6.278043015361704 7.982512779594397
P 4.129610552334585 7.3996439269038055 7.815908580960669
P 5.039411601510465 6.86367405231039 5.967155904322506
