8
Energy = -38.45400619 eV
P 5.1565514109609545 8.694819612347894 5.251068008408853
P 6.689910540205135 8.92809438426197 3.982379829536077
P 7.784468039976797 6.744949721633996 5.886827315301412
P 8.50684132116027 4.967403697638252 6.665221398465377
P 6.791204231816267 3.7355818460541714 7.071962844205055
P 5.678606196100082 4.7241794862366495 8.643334413926315
P 5.604348947855458 6.580683716590956 5.868904188640164
P 4.927258260116491 6.50654504248045 7.945356778238821
