8
Energy = -40.63276881 eV
P 5.072179418978318 7.271461635933479 5.853654325831021
P 6.836526260544103 7.82667547295412 9.335289890260713
P 5.870795785079481 6.406574381029112 7.991924189754924
P 5.0954521603374445 5.294691172936272 4.858026674378413
P 6.47566864853742 6.8751887468266055 4.206021335222382
P 7.322948784312713 4.994838675711574 5.175047432705074
P 7.554682954332151 7.797473156308816 7.342331391365169
P 7.784350009919941 5.545700780341207 7.250308782523746
