8
Energy = -40.45457389 eV
P 8.756934698650777 5.525030045873683 7.397582450957385
P 8.415072000245686 7.211301290468782 5.943476557980937
P 8.00969329733016 5.080341601492325 5.366925845448867
P 6.7785590958691655 6.581962644522993 7.252982943629209
P 5.781666517673788 5.095703228564677 6.024939538208682
P 4.504699412342869 6.6161003883703735 5.065522108658731
P 5.540119091109618 7.958659946179503 8.325421245124494
P 4.2425605040549765 7.960205471804953 6.6524539272691
