8
Energy = -40.81517138 eV
P 6.085512598796809 8.75032551691232 7.796098812976088
P 5.542612621616675 5.481461400819116 6.770507523038877
P 4.773450248572266 7.45373098380575 6.757352656531053
P 7.708203974091637 7.544790441132987 8.712114611719867
P 7.353030909999256 5.425379583687202 8.05177759932108
P 8.309889683651699 8.660616718521338 6.889876469613068
P 8.449058596162207 7.297822750928551 5.2772704704393325
P 7.771428099294589 5.384358040411748 5.871687333433723
