8
Energy = -36.17513623 eV
P 3.401117790961834 6.520582845172206 6.268596581970186
P 7.000483979499299 4.805371134823786 4.714527290347226
P 7.700586792270322 8.216813065822645 3.6433045112997804
P 4.935079106441249 2.617528433712496 6.766342151980974
P 6.4932788126557215 7.692454916020486 6.95952357602191
P 5.07060185849819 6.1652202655039225 7.574573200699428
P 5.739126015672402 4.409791166419046 6.350475499368446
P 7.005329728442726 6.93054872062863 5.028175653510604
