8
Energy = -41.56222314 eV
P 7.331610256624547 4.986889750372655 5.252656174257058
P 8.13215629411299 5.454037545408937 7.377071213839144
P 8.297719122679387 6.901673958014079 5.733874603611903
P 5.230857736476952 5.244804299404848 6.044619067105328
P 5.995609411410127 5.685997093182005 8.071912603746096
P 6.696911954838165 8.42464683713621 6.013296664874909
P 4.762719830701951 7.428663487782178 5.700726143039959
P 5.568600182505566 7.889471818048303 7.822028318874701
