8
Energy = -39.90223036 eV
P 5.006007732614264 6.314999729794854 7.094552379356692
P 6.046087597957538 7.635993756985491 8.613693639502541
P 6.981281212566772 8.35048159783274 5.656707561492784
P 9.589496081582476 4.47810785232927 7.288636026698388
P 5.0141049666666015 8.54121920167062 6.8433064901679925
P 8.326920554787078 5.902672672727768 6.889192667687133
P 6.5628443742099085 6.133300556529233 5.490587445705774
P 8.027610090648254 8.014992810384527 7.634217008183811
