8
Energy = -40.4779851 eV
P 7.665708619583352 7.988638996369705 5.453293353909296
P 6.706861842027069 8.498362776270167 7.409899352868777
P 5.51620523676678 7.821039428058177 5.725827070006966
P 7.6423046665943275 6.5710389684960875 8.389315115449136
P 5.189779775898029 5.617720862700886 6.036358961504496
P 8.622065398214628 6.067023416038855 6.443011620791482
P 6.970884153887682 4.877532592912906 7.2052702526669625
P 3.699824708976033 4.57227736110087 5.3506586747507905
