9
Energy = -46.4891311 eV
P 6.391516426226809 5.987454453028542 4.647683121501246
P 7.096554565444945 7.986625573413837 5.320034258490605
P 7.062158368994623 5.747354588784805 7.965561415789645
P 4.398092399376358 5.807854843424015 5.680963641690822
P 8.963996282129289 6.726449480734885 5.383421152890367
P 4.867370448061991 5.214831881084043 7.761282437306458
P 7.763986720669133 4.940515000722141 6.052664477453734
P 6.600969117522425 7.888171356932635 7.4522848567193885
P 4.402190731655326 7.3786406372955975 7.242945051407676
