9
Energy = -45.15391356 eV
P 6.491271091895354 8.64230996673766 7.6424038024246075
P 6.76986143607075 4.552034674839941 6.741161901580556
P 8.021921763235676 6.07885779170686 5.735616635317899
P 5.8597718667672885 3.7936344740798003 4.872052689241504
P 4.040185764900244 4.7072827957987355 5.30106033414501
P 8.453247070595186 7.6380182801216945 7.212014326645231
P 4.811684082047834 5.543079241183935 7.2022985909274695
P 6.899464808581969 7.9684043620949305 5.3686594087863835
P 4.980656141861941 7.612878528021376 6.4343431233046156
