9
Energy = -45.91504702 eV
P 8.523490319391328 6.7158734931859145 7.8065827183358065
P 8.687282891545564 6.111805192402861 5.5533713949137455
P 7.419391727863652 4.2932305365381875 5.9411197517974275
P 7.259488426148101 4.892534065785011 8.19136401316472
P 6.647333967696336 5.978905637399339 4.79632418112465
P 6.394760462851949 6.891185572705131 8.24075679313975
P 5.465934538603382 7.165869758294807 6.248299127047415
P 4.7440350843201085 9.070836788774553 5.685706559120766
P 3.3749507176967444 7.396427091031106 6.05314359747237
