9
Energy = -46.2924386 eV
P 6.366074585361035 3.8571102231988883 6.890931970703999
P 6.153404843181266 5.303655927928019 5.207103164881992
P 7.3752030766190675 4.816078349998208 8.395339282009054
P 4.597081062472389 6.554916058906342 6.251779797746614
P 5.676786542466152 7.593122391356643 7.852302699534856
P 7.807047359742461 6.885684206555638 7.678429884571388
P 5.3297648346950695 8.647580370645436 5.902309810927235
P 7.981588375617382 6.467631426555642 5.532754919725609
P 7.209014567185171 8.37018629219542 4.785013717239623
