9
Energy = -45.03877732 eV
P 4.870973901448535 7.647122907582623 6.753057386457516
P 5.845092048004432 9.080371552401305 5.33526051622098
P 7.129543527771806 5.876817989924959 4.760236172072434
P 5.606826890532217 3.729298983534223 8.96902726467169
P 5.173158693881941 5.687874486387486 5.804747752272957
P 6.395353460633325 4.684432594744894 7.385283803874992
P 7.746806750384202 7.940642420473515 5.268397043612855
P 6.865785676671345 8.506992645176732 7.224121924756286
P 8.186075689384715 4.637271093748423 6.2925892092866205
