9
Energy = -46.0846152 eV
P 8.238421279290213 8.531134321345261 7.656857749386177
P 8.561076750585588 6.974871555912955 6.105678124348764
P 8.096609396394193 6.375980536017771 8.200590052486566
P 6.293797024360081 7.681371749574315 8.316804344714008
P 4.946979051304083 4.088393704814807 5.604367831679331
P 6.48769557469041 4.886685946608748 4.421296821407442
P 5.119836696106588 7.42691169094174 6.432433059058991
P 6.665314411035562 7.003775959642573 4.917939245913816
P 4.104442944752359 5.545047663661155 6.858205899524728
