9
Energy = -45.741473 eV
P 8.393855637081673 7.637037023449064 6.722553902794757
P 8.617938230386335 5.377496613200127 6.549242979850156
P 7.093436370022648 4.21246635533779 7.553969444982451
P 7.897887067091795 6.6220371482854965 4.779706625533007
P 6.425306645143343 7.796818215416567 7.710058058955133
P 4.911921143154347 8.13714354088681 6.043811865897413
P 5.715238042510327 6.324421368345954 4.926192217954015
P 5.769999823598408 5.762884930658844 7.080073217265488
P 3.688367098630708 6.643644862039188 7.148341744387543
