9
Energy = -45.8413842 eV
P 7.384697348559961 9.591855704204038 6.426802872609731
P 5.815712086423574 8.6136209588041 5.181903645952901
P 8.02716814560329 7.481432929166969 6.901594798737802
P 7.968000472966285 8.257100939597747 4.790083936757896
P 6.91197287975073 3.7623998627073716 7.097924064375208
P 5.901208128572252 6.813584237571169 6.826372943824415
P 5.945490420693359 5.130176718167153 8.556241842326203
P 5.826927342181596 4.979933946398868 5.547898410560902
P 4.724282626426305 3.875354154559809 7.176636936032564
