9
Energy = -44.36058578 eV
P 4.932448803130376 6.612274487562481 4.928258790653751
P 7.0758418208803215 6.748397865453212 9.814586371600454
P 7.9664972875345965 4.645510130148957 6.709818488353181
P 6.8491802772248525 8.741770017970849 9.215195133619781
P 5.090672685045299 7.213265943703926 6.950381354176718
P 6.87622951880378 6.911175440727193 4.054031294728957
P 7.088089767385799 8.386262550856193 7.018677606458255
P 7.07649873586307 6.326925231002568 7.684021614472688
P 8.29419343010017 5.556427485255656 4.833914809022999
