9
Energy = -41.60954528 eV
P 6.983361064266386 7.504602321349339 5.802566315747934
P 6.319939131435163 3.4194899518965576 5.811769129005631
P 3.6734559672739193 7.296024723575073 7.401368964159121
P 6.557403281869998 5.647909148929456 8.848430834372866
P 5.363199432233455 4.485293562364797 4.253014962686976
P 5.765889616687081 7.631776414561091 2.531720678240127
P 5.62314201066789 6.812785291878173 7.3327223508431025
P 5.939053862516562 6.532138776803263 4.240877531906298
P 7.180423492033615 4.0205920905608 7.6386449610571745
