11
Energy = -34.00139141 eV
Pb 8.491210997268311 7.224378501316346 6.122501302550023
Pb 4.006671112278448 4.891012015879468 8.34242341644855
Pb 5.814987913319596 7.49107955811445 7.867045588127695
Pb 4.876185532533908 2.071929531842342 6.928387608220555
Pb 8.386067897430257 8.321416008856747 3.198868381241251
Pb 6.818365344029766 4.4631535945764975 6.496731280997282
Pb 3.9407557113684875 6.235244928131139 5.2304932501012305
Pb 4.974189802396804 3.2857087745089095 3.89884153268236
Pb 6.751821392418408 5.825447569030856 3.409734818737647
Pb 2.35696519447425 3.6208545529428835 5.819830998059045
Pb 5.859776841124001 8.846772089701979 4.962138640864716
