14
Energy = -45.42187161 eV
Pb 5.162406061113064 7.418746778499816 4.3896730039332486
Pb 4.159613897903212 7.5740706753753635 7.450960837282174
Pb 5.498529330866392 4.865629047996893 6.1887198763671725
Pb 8.198155656826149 6.3704291343881865 5.023379651899204
Pb 11.49283362124536 9.56717939148909 8.109757105925274
Pb 5.422904849782451 5.334885224512673 9.328525100771605
Pb 8.171507578779389 4.381787807706109 7.719138847335742
Pb 6.787031425027065 9.306041217291076 6.206974194352462
Pb 6.382737769726698 8.83423727102724 9.451388791426474
Pb 8.672538675604526 11.198928484353171 7.967483575257147
Pb 8.208910408987915 6.221369381365787 10.502314348888477
Pb 9.969402079161755 9.490709942560375 5.407356984465314
Pb 9.391809183683753 9.34620051004508 10.54698473310763
Pb 9.125612020027631 7.530516220945383 7.822360001684281
