19
Energy = -61.21269499 eV
Pb 7.347977255315984 6.324728244503605 5.839702503556838
Pb 10.352133433624003 6.115955734410092 6.620152372429461
Pb 7.83208992658402 11.630087735256383 11.016134667132095
Pb 10.08689662625056 11.719740081190198 7.688275018261099
Pb 11.124918500034044 5.455932037220178 9.577902046130902
Pb 10.153714686207316 12.358651923220016 13.154100510957704
Pb 11.96375458823045 7.785580431463223 11.559086974330617
Pb 11.962639327722172 8.518335516732906 8.239597867306461
Pb 7.529417971990067 13.53680847519499 8.548066892033143
Pb 9.32511032881309 9.367500232552137 12.749778261447435
Pb 9.313517789086374 9.116977080005771 5.7028366609641
Pb 5.997800941990028 8.991899377371329 5.243935405687712
Pb 7.913234625473814 5.2225710312957805 8.924125955733366
Pb 9.040039355884977 6.290150590336083 11.97351773993778
Pb 11.611437475682894 10.887898188252974 10.627258718762306
Pb 10.202754697998387 13.763500631522458 10.303904368177644
Pb 6.933714324250962 10.671199772566437 7.624296702168289
Pb 8.99733043103983 8.428754491511672 9.367877255728768
Pb 5.867962098767023 7.759332901505958 8.394148421182758
