17
Energy = -54.19616995 eV
Pb 9.373570035766624 9.805577882104146 6.436257250018403
Pb 5.947073752946168 9.572908098952658 6.929063141443259
Pb 7.610180768619921 12.101992815477924 7.937537760544664
Pb 6.2852261414036485 4.3629131921422175 7.850953232804579
Pb 9.298434560562518 4.233303778082306 7.405578741757199
Pb 11.099345166996766 7.547476666553313 10.946954178226942
Pb 10.191553261117235 12.427380416393468 13.240720336240626
Pb 9.17776425853563 9.416198732978394 12.705695001641883
Pb 7.38155303418695 6.823309945192755 6.0755610362305745
Pb 12.209141139860128 9.607945697865473 8.382900337566314
Pb 10.385544825693623 7.070128459238887 7.778282919823007
Pb 8.287706976138026 12.129656928103778 10.97106975937421
Pb 10.670857728904242 12.435973354654214 8.604913553498148
Pb 11.796928461058387 10.703385609352214 11.294418488548676
Pb 8.122802502823545 9.045702000838212 9.492258860063327
Pb 8.29988799525632 5.7899176276592845 10.103902150584036
Pb 5.479451450395142 7.143882667912689 8.930224411522026
