15
Energy = -47.83033896 eV
Pb 4.398029077205767 8.568567972178919 6.503126447742107
Pb 4.579786630268829 1.9244752856859264 6.473463395535278
Pb 4.093604223525719 5.216960127708199 6.766235841189096
Pb 7.334248191335618 3.3940795029029935 5.4477628315154085
Pb 7.463707344496363 6.77103143434402 5.062721089266682
Pb 2.638866768567884 3.6381845991361748 4.205727930141407
Pb 2.639860781718158 6.792471308579862 4.200551614512949
Pb 6.356066650245633 3.5073859914249232 8.54048539901629
Pb 6.287410819529412 6.907564329017888 8.699933079279587
Pb 5.230686233202742 5.254160377269113 2.9928222995102556
Pb 5.105086502551759 8.678868687216289 3.404043436615225
Pb 5.248096085179215 2.0607749507523945 3.3911786619749296
Pb 8.905909402908318 5.316815400955677 7.849191558199557
Pb 8.917269310746056 8.345123638683614 7.431953894320596
Pb 7.111512161072378 9.933675674843574 5.340942102498294
