18
Energy = -57.47700622 eV
Pb 9.129355585020557 5.996993735102487 10.552573829959098
Pb 13.290160012945908 9.288408250896774 9.853359551788765
Pb 13.772316455136833 6.79912388193597 7.811979530114328
Pb 12.180179111867112 9.180545418298065 6.630175170692192
Pb 4.238268845412398 8.786395252455346 9.075276074476145
Pb 4.715211625298049 11.77930732711366 7.576724357435102
Pb 10.566800696369844 8.520479791841337 12.02519434263586
Pb 7.094063441912699 7.016197330153619 8.312046048349629
Pb 8.706281953190969 11.076649972063095 11.140859142680588
Pb 8.840396242343363 8.562987760395325 6.155824892084286
Pb 12.318432416933657 6.259652778816806 10.499318109711758
Pb 10.644039336534789 6.049671987635746 7.548130698974125
Pb 5.709165405076456 9.341431975818137 6.029629626627045
Pb 6.816434313675424 8.350013738603188 11.376609326275771
Pb 7.8956552679119385 11.306723431648692 7.880149235735278
Pb 5.607523201554804 11.200040016438974 10.528319605008265
Pb 4.5376512408675165 6.585127695915619 6.79417152135487
Pb 10.21388170133085 9.274579059612508 9.004705981602239
