16
Energy = -52.38772905 eV
Pb 8.403462657777471 4.488373039087001 8.17435080012854
Pb 7.117361137420942 5.92566945930532 5.597920539390302
Pb 10.265400095123155 6.62121969900502 6.251694861981033
Pb 10.490611775114584 6.118420032228432 10.109027927384288
Pb 7.578442459950289 8.958138254344615 4.771740233558093
Pb 8.210465306683735 8.143751538685997 8.214865292802061
Pb 5.407266088381076 5.779405375054524 8.381857665860876
Pb 7.403945452597636 5.850405914831834 10.968579346045521
Pb 5.339389897443562 8.316444736191846 10.363197101770586
Pb 5.28004801894061 8.968064803385241 7.127788361382017
Pb 11.778943187962435 8.519572947328928 8.475756965138153
Pb 10.428443213731162 10.02797964739891 5.983301537445743
Pb 9.020227743531217 8.839030047532175 11.25737605299568
Pb 7.604598981746339 11.467071973856251 6.783031031888898
Pb 10.005043228798595 11.226840823636854 8.99294864690136
Pb 6.945234343740518 11.030847040025234 9.958340757263695
