18
Energy = -58.66760309 eV
Pb 5.414707851707078 6.0747871056982 2.694710004393878
Pb 5.439385457493326 9.252324047373182 3.0262867053400933
Pb 8.024324537478156 7.704489989219969 4.0660533803797945
Pb 2.8468713004065727 7.5124166630849 3.9544730340951033
Pb 7.291582754550381 4.347484380709416 4.669942213536797
Pb 3.409906269180798 10.37720671028409 5.180722754807786
Pb 9.961956484654236 5.757975944506759 6.018893669456418
Pb 6.363461942524024 9.678520000934844 6.162163101484083
Pb 3.981123247872491 4.985082890653075 5.535848935894243
Pb 6.636738683183703 6.584209566303174 6.965601578782671
Pb 9.213572392106368 8.450442246116697 7.712835622402283
Pb 9.225507387647285 3.045961479232983 7.617645026153828
Pb 5.998189293911598 3.0861755449274866 7.444623088322492
Pb 3.71553713891498 7.886514017244034 7.1213548603316
Pb 10.039566391343303 5.6709814904867155 9.26750898181338
Pb 7.276710781620475 7.225462110214856 10.071678067981173
Pb 4.654388080580649 5.394235646622437 9.318548219482715
Pb 7.506470004823756 3.9657301663866518 10.171110755340548
