15
Energy = -48.4818259 eV
Pb 4.292611695011304 6.364689185309912 4.175022056060269
Pb 2.520591424417531 8.495416033164261 5.676352694057281
Pb 10.000970639942912 5.841972448987117 7.545664683211731
Pb 5.097524998838589 4.117162046830106 6.60463684008763
Pb 7.2376089649512 5.2047724913586 9.228212396638572
Pb 4.47086894194103 7.055866519939557 7.636754894864382
Pb 7.378717688050827 8.368295791465302 8.290510437932296
Pb 7.00652645013558 7.615589826088715 2.8576879853321184
Pb 9.688373254025711 3.0918212179865314 8.962174824448466
Pb 7.3776490642091 6.392442827177082 5.702466217702394
Pb 7.679788671573185 9.59741293720695 5.327996920845457
Pb 8.306837787768792 3.349178806238654 6.111194627102215
Pb 4.9352471221706775 10.226501645914984 6.938692477919509
Pb 4.787472564393082 9.608888381525233 3.7684498333224328
Pb 6.719210732571832 2.1699898408089537 8.674183110476601
