11
Energy = -34.11051754 eV
Pb 8.046445204168078 11.47479550667349 8.985684826694246
Pb 5.5517053234436755 9.373918237459248 8.35348027476069
Pb 10.982186103458877 9.680950866278101 9.260853448846033
Pb 6.584298475001868 6.3758168377239 8.929783953751397
Pb 9.901450716894843 6.411579899118443 9.027330956045425
Pb 8.178301279510547 8.636556542473906 7.024969177570921
Pb 7.759123518856996 8.514755830539448 10.732033033006202
Pb 9.338510420627916 10.790366298987406 11.969606395374313
Pb 10.908761490733514 7.982985505785927 11.773655647034664
Pb 10.391707837364942 11.133968855506602 6.662528359717434
Pb 11.06770614204539 7.998226659293464 6.355542516509282
