13
Energy = -41.03723809 eV
Pb 5.127784314985604 8.213421187043249 8.569447257927047
Pb 7.963268172227005 7.512205273645068 7.149827214060196
Pb 7.193582950936781 5.52022019039196 9.495288075411082
Pb 7.028642975208544 10.503664717646572 7.252925171152202
Pb 4.065889126878993 5.215353000891721 9.233066817736733
Pb 8.98113185503495 4.509759693847618 7.006555409062066
Pb 8.733110517528614 9.537384396118222 4.881540922094463
Pb 3.3865005632328646 6.399928969148861 6.38278069471605
Pb 5.64738737773793 3.717408808238837 7.025358503903057
Pb 8.320157116280479 6.400918303889041 4.114810874333968
Pb 5.543639238413485 8.415257074456184 5.032974317870831
Pb 5.148267329987113 5.389403213276969 3.9283151934840532
Pb 7.443874061712774 3.299124081959791 4.535336926175239
