17
Energy = -55.22556535 eV
Pb 8.494186946549044 7.42368246467398 4.599017133456652
Pb 8.611637918915598 4.545599544069974 6.39659036439404
Pb 4.889731896646353 7.333566217967977 4.4392222927860825
Pb 6.90876989960052 4.740643522883907 3.5621425907212187
Pb 3.767541279760152 4.1061160160160055 3.889129971805596
Pb 6.703035356010063 9.717442772744956 6.3241039317479
Pb 8.049379477185596 7.2368284595493595 8.043911747335736
Pb 2.0623044092910043 6.1212489991130346 5.725656195830602
Pb 5.970811423820859 2.5075573411050986 5.727579631139061
Pb 2.8677384331370726 3.107638743014909 6.812829693701526
Pb 11.077872733518552 6.690192203354145 6.618143255641623
Pb 2.5350836910393753 5.5042086360135425 8.84012632593981
Pb 8.322320506961233 10.193188074995168 9.143928626974995
Pb 9.982491965408087 9.702249938872205 6.434605634225846
Pb 4.116833970072734 8.003520493725935 7.567152534167858
Pb 10.842940243652345 8.36442152326635 9.251974034778806
Pb 5.297319848431478 5.2018950486335225 7.1238860353533475
