19
Energy = -62.03583795 eV
Pb 7.694776947383971 4.936048711215406 10.58122108848322
Pb 9.937486509270794 3.9173156974858108 8.491193815114125
Pb 10.306505729207974 6.840185669078113 10.069028462440446
Pb 9.325904347520737 4.510283442616648 5.287862621836599
Pb 7.421349889792774 8.260315025000793 10.582084212085437
Pb 6.785386386053512 3.8238943244672385 7.585132625493025
Pb 11.465675170085586 6.457431538894044 7.055131646975571
Pb 4.971676359988396 6.415083762984049 9.530229245415608
Pb 7.996352020216449 6.6364747278893175 7.500155409734714
Pb 2.6929293223314246 7.998265658475667 7.699146192918122
Pb 9.372260320981454 9.314112937599845 7.824554389831426
Pb 5.639078439986802 9.510871586482905 8.154514055441316
Pb 5.062319683817311 6.731865443072194 5.855413618049831
Pb 2.2098624054430482 7.522592687237382 4.642015310386617
Pb 9.926354561578968 7.755643773914381 4.637744477681425
Pb 3.877146214482114 10.095517436205892 5.466005763236218
Pb 7.10441389857031 9.462214171617514 5.0079110960261595
Pb 7.389248681998541 6.492492266567245 3.360742335865214
Pb 4.715691427538509 8.277292753194565 2.8858828311261053
