13
Energy = -42.4564052 eV
Pb 6.265639577558332 6.265022338638665 6.26586789702708
Pb 6.258064336878529 7.9703884513606775 9.030963166937198
Pb 6.264629229437428 4.545879548204616 9.024780486249329
Pb 6.2567243517314965 7.974544742059037 3.499075167316935
Pb 6.262281596857447 4.5544342938659295 3.4966508129688654
Pb 7.96869358463202 9.031999182948189 6.256645775265599
Pb 7.979217640908453 3.4952715470647475 6.261124146220983
Pb 4.548640068070583 9.030265766601817 6.2658572569391255
Pb 4.556001251442499 3.4956801356519573 6.262824143828742
Pb 9.03369739335724 6.260932789577438 7.9705733754359
Pb 9.026211022309008 6.260680989399385 4.547678800155859
Pb 3.497770837204379 6.261581332196019 7.972917022492776
Pb 3.493989899492729 6.264879534653625 4.55660273904254
