18
Energy = -58.23599569 eV
Pb 5.552139132260205 7.471626484951612 3.504750850408044
Pb 4.851214370684363 4.272143452731894 3.7134693719887832
Pb 8.014046591292434 5.257368981548476 4.11656929004727
Pb 8.682251239620957 8.582998125659024 3.462008115169109
Pb 2.7414372094620627 6.487252707864138 4.716332351169188
Pb 9.67404485875123 9.784765193317881 6.169242186926143
Pb 3.9938505682891194 9.210746711562399 5.784460023190591
Pb 6.512909452912162 2.8803860217618595 6.006207747731472
Pb 10.69325396388822 6.8605873233772074 5.256714859335357
Pb 2.4487299701058545 7.19869085041248 7.824059042094046
Pb 10.284737319839348 7.596849780248936 8.338642378209613
Pb 3.8181303731947844 4.345411171169605 7.063419075520218
Pb 9.030602102659397 4.642482309454245 7.249011606859425
Pb 5.127845194326385 8.766004242539905 8.766757105178838
Pb 7.317516151519446 7.633691619510088 6.393154121416674
Pb 6.395230743457992 3.530423955548543 9.077473086203096
Pb 4.378636356090712 5.920358540583044 10.031344767513351
Pb 7.483424401643628 6.558212527757265 9.526384021036776
