15
Energy = -48.33135422 eV
Pb 5.270334879070748 9.79537054757266 5.706688542866855
Pb 7.594144559651878 11.191067922651875 7.55082592060802
Pb 8.320985288153231 9.97694519129832 4.5803386076556105
Pb 10.48036237911023 9.780963463584275 6.925574334226172
Pb 6.703581489033172 7.272715615377613 3.9731409283549333
Pb 5.456733305321767 8.6479989868915 8.888953011174937
Pb 4.428418958329005 6.609512569010296 6.121133224768841
Pb 7.717713854316786 7.739471753339039 6.888216063043633
Pb 7.670639620713614 4.662663973289536 6.2404868111343115
Pb 8.904897309549698 8.858818595071746 9.576364026816721
Pb 5.378555430684209 5.111481077331231 8.759344250091441
Pb 10.551887379147034 6.435663845056642 7.649325271740623
Pb 6.932423422346432 6.599036354056365 11.074499036332751
Pb 10.17327797494579 6.2603225409528935 10.827168183601406
Pb 8.380101157997066 4.275187132311531 9.246897456819925
