10
Energy = -29.60544084 eV
Pb 4.6912772244555025 6.14914233725306 6.329259191998598
Pb 6.059868219519293 8.640960167999472 7.874422685020128
Pb 5.405181130017075 4.222270435466816 8.82850025530619
Pb 4.313204008149155 7.99917837225796 3.702062283897435
Pb 5.602199139667146 5.292887939050604 2.9918243473388695
Pb 7.085887143394547 8.416455247950339 4.978232596398444
Pb 6.2773333776121785 2.9622166789607665 6.15592338650224
Pb 3.6574317237691596 3.579464367248463 4.6569308101597615
Pb 7.7603785512464025 6.085692881555608 8.140414154109044
Pb 7.902550242951165 5.407042032420435 5.097740448814587
