15
Energy = -48.65971316 eV
Pb 5.117796861509081 5.879873620450662 3.119991625016255
Pb 6.3014647551101985 8.804885713753452 4.120803449515309
Pb 10.623224448555085 6.4496041969350095 5.758832552919349
Pb 3.2875826077555796 7.764096149332481 5.085911342883532
Pb 7.715470028697043 6.224750518764543 5.051726259910659
Pb 8.986724895557252 9.226200511683555 6.199968922725584
Pb 3.2777744610752775 4.559489241920829 5.4045478595581065
Pb 6.217470956450639 3.3917746266571713 4.95281186824395
Pb 5.7425721551387525 8.357534349605464 7.136084234308454
Pb 4.987948367920937 3.5606153290557336 7.930115206636637
Pb 8.278006915454684 4.223836540173438 7.472996292274388
Pb 9.48312153210441 7.006217237250241 8.620883295234906
Pb 3.3931740507489048 6.3634163682032545 8.041820226222855
Pb 7.654492624584786 9.494928151739424 9.16211025791184
Pb 6.433175339337894 6.192777444475273 9.441396606638564
