14
Energy = -44.70456023 eV
Pb 11.284958999516054 6.6191404355786325 7.529597174940718
Pb 9.225144739918973 6.0916529184853365 5.135897976329019
Pb 6.766718317686887 8.248491385521138 5.312454778021947
Pb 9.778744462099642 5.9285555756352135 10.471448397269858
Pb 10.377032367766933 11.393769368211546 7.798710629447081
Pb 7.437512670094105 11.004735709341677 6.735097723194714
Pb 8.046235271654686 6.792718961402177 7.874064843442336
Pb 9.978137881404168 9.107198116409634 5.653103689218808
Pb 5.647742771503618 8.99507661707686 8.48514054279064
Pb 8.226943187967128 10.804102244902419 9.991645972674116
Pb 11.0468945534463 8.891488317579448 9.800381016213835
Pb 6.602781052583037 6.559595375061879 10.7473959881253
Pb 8.900272647912095 8.390649857485617 12.259950586936268
Pb 5.95716729789147 9.47921803823799 11.675481326819538
