14
Energy = -44.13447202 eV
Pb 5.878531541539725 5.883836464398989 3.1059588144823627
Pb 9.011072219718603 5.832129656774878 4.388318713234636
Pb 2.666965753488365 5.832517559945667 4.465590047875111
Pb 7.363755491459932 8.572288651339019 4.504923606666566
Pb 4.180101300219435 8.640732398018875 4.3031453446321155
Pb 7.417496219064273 3.020857867692529 4.196160687869785
Pb 4.240754141710044 3.171301718302439 4.508886821979229
Pb 5.573280254685143 8.11869925257415 7.176955175932167
Pb 8.786452611680696 7.4923477726067675 7.220705091340004
Pb 2.4669670070965593 7.674626558345126 6.986978217921853
Pb 7.833688389462301 4.441300760241905 6.999367766466112
Pb 3.923251044684479 4.778929094209173 7.474104511751418
Pb 5.791880714430684 2.095863641496755 6.993070795186102
Pb 6.3935376991377995 5.9723033083987 9.203568793040692
