13
Energy = -41.73893475 eV
Pb 8.936282116196658 7.4904009610493025 4.79993638898801
Pb 9.403174409438417 5.04296625933653 6.8901663135484865
Pb 6.717970232075886 6.8898877264978395 7.130141695432337
Pb 6.515066167717902 9.600307286628624 5.316325350444097
Pb 11.199526197556391 7.716672812370751 7.1217695766377
Pb 9.524021555941092 10.359926335457244 6.209194163019244
Pb 4.444404806028681 6.204763805871944 9.320450311261412
Pb 4.4610931496905035 8.998995095597635 7.933306656199405
Pb 7.182819091697149 4.7147856493570455 9.421811927351486
Pb 9.679464364350771 9.560055459838509 9.433590834620068
Pb 7.033819178640537 10.905173576630586 8.219318668183108
Pb 9.907531377902567 6.377622025069783 9.7828579047817
Pb 6.912115103840636 8.124661888760393 10.362057513038922
