10
Energy = -31.14020913 eV
Pb 10.215804302481805 8.817153925138628 7.478383669477478
Pb 8.249361733131844 7.103785734551235 9.5733790225097
Pb 7.898142596375639 10.257730537934465 9.109734763058558
Pb 11.022429630267917 6.009429567782186 8.752266846889983
Pb 5.275806031611347 8.333109502059353 9.184194980162088
Pb 9.002312465398 5.949745008316863 6.283733093415706
Pb 7.130221333551389 8.863404414952807 6.388172811390361
Pb 6.011915270521139 5.535037334093582 7.651605931619226
Pb 4.12389898788332 7.810309423402324 6.233278971219474
Pb 6.3349483442391845 6.384489781261718 4.567680301678671
