16
Energy = -50.72794743 eV
Pb 10.49986135891973 10.596890790590058 6.692622685453
Pb 7.711102251891848 10.609448330746577 4.5327689094665295
Pb 11.287107472279244 7.504217998346907 7.269056757180466
Pb 8.512580624144736 8.070029938658445 6.012292558676691
Pb 7.688872451490465 11.575641744050037 7.553710122099439
Pb 9.883752397850373 9.402598659882212 9.636472794596253
Pb 8.84113483394582 4.9999676171485925 7.114775268503985
Pb 10.534912344996256 6.038017714467966 9.976863458934787
Pb 6.241008856017394 6.070570129986874 5.0599202352878345
Pb 6.443354650338015 9.746270728469375 9.831874052030763
Pb 7.7285331557061925 4.489203626177413 10.154163797771071
Pb 8.204336135950909 7.477666045793613 11.520687240902967
Pb 5.589369674949966 4.1451597889278 7.710889536317444
Pb 5.419687141445196 9.335767245243998 6.294560964773851
Pb 6.1256078852808225 6.932210760872759 8.848819729113169
Pb 3.7110505361860096 6.6617260630428 6.636142749727939
