16
Energy = -51.19131304 eV
Pb 11.480560477451972 9.737290428902753 7.556195244574681
Pb 6.916748066770768 8.468213296526454 5.670995038567358
Pb 8.417165969413903 8.612673940910748 8.657005267478624
Pb 5.5470848769032655 10.32683479091211 8.040288905239994
Pb 11.309060756570572 7.124958214490388 9.707712941756787
Pb 6.7918826432781385 5.820466440311589 7.767521764519692
Pb 5.438277327058078 7.804691706434015 10.062810294933854
Pb 7.976557904004852 6.00671322023242 10.911468371638236
Pb 8.272275044966992 11.413124502567403 6.665736315820342
Pb 9.650391540078118 4.619555749091243 8.639961446037148
Pb 9.865590627652068 9.403885670206433 4.837437700825683
Pb 10.083860687736118 6.721980589333677 6.396617799147523
Pb 7.782320821902175 11.866294535801945 9.797712584849668
Pb 8.926789712078687 11.716479077621603 12.601141001296886
Pb 7.737936067059263 8.972730832752568 12.0558533199598
Pb 10.761916035280617 10.184624725893114 10.67144451777402
