18
Energy = -57.67766592 eV
Pb 7.204314592508874 8.3811473319654 10.134572419688494
Pb 11.207915758051465 7.218175332600155 7.170961648057707
Pb 6.702915910275077 4.921493034324542 6.882561080801614
Pb 4.7225219420650655 7.801490631760007 5.656140766062238
Pb 13.40640881094719 9.22844113525179 8.552277391853455
Pb 6.422669156341543 10.405082336646142 7.687637397121551
Pb 8.9535896390963 5.79582830989016 9.115269407167318
Pb 4.5806361178735555 4.640661392691557 4.603537749878155
Pb 3.46797714925075 5.35945615666866 7.467505755894321
Pb 12.812649356967873 12.412141886810364 8.109071308999885
Pb 10.769401793415769 8.298246648235885 10.258894750447947
Pb 11.92370929568248 11.142664315619827 10.739873265742153
Pb 4.182782958181136 8.373302705142665 8.759823669068993
Pb 8.161303402185768 8.063264835885436 6.6902246936017535
Pb 8.684501008955154 11.164800749369086 10.00764951627177
Pb 10.556924172501896 10.436055005767976 7.525012113796881
Pb 7.092305596754644 6.4880646273271765 4.089053779404897
Pb 5.606015654030811 5.6589014551934795 9.873492985779727
