11
Energy = -34.83220136 eV
Pb 6.45282616709729 6.674958085904197 2.958887775980233
Pb 3.6519014471819014 7.540331311544035 3.8139063555985975
Pb 6.020276192982708 8.867126365820878 5.551347286899415
Pb 7.917508650146834 6.0792903198645245 5.541499890081985
Pb 4.747839716194676 4.933529562007875 5.359134019061978
Pb 10.025421641469567 5.317752132851564 7.679816412939741
Pb 7.19660765028108 3.756966650843395 7.736145312859536
Pb 3.1310398017073275 7.556953882903832 6.824593775851271
Pb 8.617931533564642 8.225136727764005 7.9068088031370305
Pb 5.7347428313056135 6.664671752869501 8.083458405455703
Pb 8.00390436806721 5.883283207625613 10.044401962133794
