14
Energy = -44.40825204 eV
Pb 10.867262743717578 4.472389832170461 9.459189240016476
Pb 11.365614849509527 5.547086218687741 6.538082342378469
Pb 10.049002948127876 7.46530061658291 8.845789528463657
Pb 7.943405788250515 5.441645178515333 10.282055648102164
Pb 8.44325380009717 4.7307662018891135 7.224263794495692
Pb 8.765113364901687 10.269220303525557 7.822761894835555
Pb 9.14219274001425 7.8040783408626755 5.465263104988254
Pb 7.182359991605106 8.831994319451466 10.394402173871102
Pb 6.6064358502202865 7.467203178067127 7.54509938372178
Pb 6.1309533196867205 7.253290951531068 4.417760914285638
Pb 4.1724722624379655 8.271409233521249 9.3699768887586
Pb 5.585104303069244 10.873889614605044 8.198801022111482
Pb 6.721150690939331 10.315280564444702 5.213709062193299
Pb 3.928572063380868 8.997758031237924 6.124388693501403
