16
Energy = -51.33464022 eV
Pb 12.301741699554404 8.641945026854774 9.217350052849484
Pb 7.880803067666706 12.728649259041427 7.341233893543868
Pb 7.949199182092148 5.409650563492122 8.607083610536009
Pb 6.544679168715295 7.568972590019482 6.87565083997491
Pb 10.505650879357038 13.36478049295627 9.59900388497591
Pb 7.946576626006271 11.893006540267832 10.560727388113309
Pb 10.86185440588081 5.751151731745419 9.740334952889125
Pb 10.161580039166529 7.402023288417076 6.828594190553485
Pb 8.725321010274158 8.563679515847927 9.551781702090924
Pb 8.520629824181917 9.504641123931437 12.771590134474948
Pb 10.522306874745443 10.917059121131803 7.631155287759956
Pb 5.968855609370083 10.403375217244756 8.30821976953526
Pb 11.096236016713913 10.908017744323862 11.415718489176745
Pb 8.409218276195736 6.324741630700152 11.839366292874036
Pb 11.298636358694118 7.786471877715899 12.183563053763018
Pb 7.964245834881337 10.038636101952722 5.729127272199612
