13
Energy = -39.87516547 eV
Pb 8.952724387189951 8.772381051939341 5.100050806397099
Pb 10.87419166293022 6.571160798778195 9.558624477819444
Pb 5.677300159686519 4.637079692393921 10.867519916619122
Pb 8.755708453016588 11.089711114837744 7.727113171035593
Pb 6.080863368607661 8.803042339412736 7.1901058161597575
Pb 6.332636722805431 10.490345125315445 9.725516553859597
Pb 6.687571700885759 6.51450713635806 5.260280187224334
Pb 11.387862087153252 8.849849823031388 7.562496854986254
Pb 5.7130046443087235 5.2572588836932574 7.995806937878174
Pb 10.948921482148787 11.043611218510991 5.593868169869955
Pb 8.67565231773236 8.554197501256894 10.007163982274221
Pb 5.482006041753098 7.559710098736096 10.574483842007453
Pb 8.914852689479378 6.194130880918185 7.320071027679865
