11
Energy = -33.83258737 eV
Pb 8.786645757592286 9.370270771730143 10.033308100709391
Pb 6.695308348133861 6.7399676448220625 10.501884630654365
Pb 5.579018564301381 9.559300333044616 9.14249447213437
Pb 9.74722177709616 6.165369512684364 9.465573106990417
Pb 10.693756437214804 8.596599934106615 7.41231761259195
Pb 7.665056954981415 7.736175585357091 7.6197737930156455
Pb 5.525618992042409 9.19587028734562 5.841565025941424
Pb 4.725221098413608 6.5571114448018495 7.86045161356072
Pb 8.672381758154398 8.608431668056458 4.778567897296303
Pb 9.588731808335949 5.646651469625439 6.208139163264763
Pb 6.512195708771726 6.081095126739047 5.141227875442214
