17
Energy = -53.61799948 eV
Pb 12.337970853553077 7.436076587074943 10.532260058737991
Pb 7.2498314912039845 10.450814062046408 12.299079256862736
Pb 10.675606510171807 8.83754743882321 8.29013908409049
Pb 10.088733239185204 11.55898004429672 6.8845178849285
Pb 8.753022184868826 11.232085650310266 9.72847256552367
Pb 9.448006214926464 8.343085466887024 11.656584330775084
Pb 5.420501798819018 11.030254567484292 9.60898755807948
Pb 11.877685551528879 6.084546061354393 7.431243871749057
Pb 6.906176360737434 11.884842945938816 6.92158903507605
Pb 6.119513567509581 8.024353993859718 10.689788751591891
Pb 11.98779896372284 4.41564988851218 10.216860923570291
Pb 8.550725260043725 9.355133910926249 5.255134473650363
Pb 8.819320112694992 6.4195849012851065 6.36651129625269
Pb 9.363274989903783 5.717350047672639 9.69704896060085
Pb 5.840984277794986 8.5334442703569 7.379386371997726
Pb 5.591349960719374 10.049930398308454 4.771416185458082
Pb 6.555908692024823 5.700331626767256 8.415044283369847
