14
Energy = -45.01857547 eV
Pb 3.9837765440871076 3.593887098661435 9.694576256910413
Pb 5.432105677518965 6.581469779635319 9.1905433606046
Pb 9.473707970345657 8.804635100002093 5.716531632133627
Pb 6.495069781924455 6.920024180814594 4.543132892923283
Pb 6.9380479622025435 3.570707423878513 8.699868563308403
Pb 7.499934087447379 3.746721698090695 5.589934108684418
Pb 6.898787429724141 10.169469026376845 4.364264521133229
Pb 2.4248804169575227 5.900179598779457 8.306130415254687
Pb 3.97757417614616 7.770468668295856 6.315446269036949
Pb 6.690953671572745 9.17816341804251 7.396224191306537
Pb 8.477420700594234 6.272598631258314 7.588657228034091
Pb 4.523205114404162 4.3364894938691965 6.576077413904646
Pb 9.543564019235792 5.827134663046539 4.402847224273279
Pb 8.640972447837942 8.328051219247307 2.615765922490502
