10
Energy = -31.60440465 eV
Pb 7.442806468016177 6.774253580271929 6.788841883240013
Pb 7.737876566905195 3.631376326582752 5.77138788862621
Pb 5.703698302742316 9.363344777067493 7.164703196549622
Pb 6.323767635811471 8.395443289184737 4.121250204131308
Pb 5.616173632924002 5.215502547096694 3.8537429338883498
Pb 4.690842014686886 4.1622515279293735 6.830064646878438
Pb 3.802435113853667 7.1564133701254455 5.7942939891800584
Pb 8.689070558480875 6.167775206044658 3.9695204362993293
Pb 4.851045355644176 6.721012732034602 8.859799516331941
Pb 7.166632219430367 4.436974391238206 8.870742810613738
