10
Energy = -30.56089218 eV
Pb 9.130176099567064 6.276739731726558 6.411814587729299
Pb 6.974983851299534 7.201337769773174 3.8392157939214377
Pb 10.50751827986088 6.029857047261157 9.594662854307693
Pb 8.289698596635539 8.034636402256396 11.38337555047411
Pb 7.440745734978549 5.9248690125850265 9.305968700001547
Pb 9.48082931951001 8.775873762896058 8.639770508883771
Pb 4.7414367211098405 9.214094000365575 5.596186770621782
Pb 5.770194744176981 6.483170705251054 6.582348294714328
Pb 7.803167042539645 9.325669119810575 5.915272586885881
Pb 6.1246693364847165 8.983628708234084 8.80405524614733
