11
Energy = -34.9379749 eV
Pb 6.9159860054094695 7.613528920150488 3.7663415229541286
Pb 2.806067111099111 5.558800736427427 5.735391878661828
Pb 5.650647697844166 4.923453208730365 4.90536877659783
Pb 8.861714532431023 5.658314310181245 5.966799148435821
Pb 9.809173451075733 8.252861972614053 4.634509439611927
Pb 7.894476207679173 8.596268321371392 7.014674958748977
Pb 4.656922376541473 7.947226353754429 5.9820984479856385
Pb 7.132936172485983 3.4144885801394445 7.221161631200376
Pb 4.616908558078386 5.232907006631018 8.292138768902436
Pb 7.644327874832894 5.9840974865887535 9.000305371902693
Pb 5.510840012523164 8.318053103411387 8.981210054998627
