17
Energy = -54.2890702 eV
Pb 9.944066385503316 3.736101891276757 9.30341950782289
Pb 7.563423931400275 9.151608789669583 9.366531414973368
Pb 8.412812358538492 11.583891513516187 11.296646940953028
Pb 4.282482261819461 9.887730010503438 8.574680895157478
Pb 11.544743612396115 6.20542880172039 10.143704186248637
Pb 11.443107621946318 11.294797150920235 10.499031703201718
Pb 11.592147035601025 8.975523836975311 8.462922927670462
Pb 6.441063852470823 9.91646636707602 6.252427790686488
Pb 9.577583695222193 9.029350697126217 5.930957270804733
Pb 10.080151647028819 8.608498524031479 11.595874803738099
Pb 10.139154338859653 5.924244076871226 7.034715184492569
Pb 7.401362935135133 6.776190146104015 5.435274860066199
Pb 8.148511556739429 6.055015997122583 10.505383119284827
Pb 6.290537036763346 12.150423840773392 9.056570100677586
Pb 7.23127634102855 4.464201595579617 7.6791859984006905
Pb 5.498342235320993 7.054529321913235 8.132004032882088
Pb 9.33448116212408 11.585059250780697 7.928911517040747
