11
Energy = -35.14119544 eV
Pb 7.032848509523533 6.59340287307826 2.691110924926385
Pb 8.286933506877173 4.024462814376479 3.86522505205392
Pb 8.959249729964187 6.934673903524371 5.1689116432445505
Pb 5.7323927459252815 5.213760591383421 5.344956621080863
Pb 6.0803274560471365 8.616735783949915 5.204997980105753
Pb 3.8250776365034973 7.134234908068849 7.168670639544472
Pb 5.368843446469077 4.571844820911938 8.5116455895726
Pb 5.310859738523875 9.683480633028056 8.295065846152644
Pb 8.463050334396168 4.286064250555622 7.027493891580123
Pb 7.397572462780383 7.188894554352247 8.036078807705929
Pb 5.042844432989818 7.252444866771116 10.185843004032755
