19
Energy = -61.1116031 eV
Pb 8.441454336564579 12.782154135322894 6.849078454069719
Pb 10.593804141492162 8.413782651526077 4.6564705218081714
Pb 7.460320752854233 7.800881152468272 12.805471045058315
Pb 5.934061458860595 9.202600484568537 10.258518166257604
Pb 11.97715222554654 10.011489204376788 10.433578707689016
Pb 8.887913976787239 10.65535702783647 11.791401941241489
Pb 10.654014226651395 8.179091689874731 12.903113796716548
Pb 9.3052698789309 5.3268936163516285 11.971006066844401
Pb 10.745870904014561 7.289056706229875 9.840458475960606
Pb 10.144171699060195 9.966403935112465 7.403884847199351
Pb 10.293316861038107 12.464542559003444 9.402397866487876
Pb 7.284698288234734 7.980165515659997 4.756587156999648
Pb 9.130770528843586 4.836231897066653 8.699978799201045
Pb 8.53551941974748 10.793435510309513 4.346378804879807
Pb 6.267862455732675 10.3328305125971 7.003356067442155
Pb 7.96121722339618 7.778594871968417 8.026992615890455
Pb 6.499844342846528 5.991018425411549 10.312350039801718
Pb 9.243777375086905 5.780652251304328 5.612087469516638
Pb 7.0407540491560106 12.20659297911692 9.661919547418304
