11
Energy = -32.77968422 eV
Pb 3.802438645934856 4.44900598908159 4.2786036055394066
Pb 5.133264101129286 8.276283290106841 7.407761738982674
Pb 6.927180344763998 4.183401100181231 3.07133198427658
Pb 5.392890920684836 4.622605700782285 7.5502421736679475
Pb 6.320908793015455 7.079583303339466 4.153183743519325
Pb 7.672778475992677 6.478867348542343 8.670574505555015
Pb 6.2867599986576375 2.4918712956701756 5.407861182722283
Pb 3.287269356509769 7.746165519577597 4.653802473393928
Pb 8.626026957941786 4.8547267223839565 5.890600472076948
Pb 2.648589393311132 6.0566359068429 6.993343903702532
Pb 8.311042406589985 8.170003641737196 6.331843611094782
