10
Energy = -31.2933134 eV
Pb 8.497614327411473 12.273550655378854 9.203520476210892
Pb 7.685579097097279 9.930918064671355 10.872147546073855
Pb 7.744418418747009 10.080304608689763 7.314393952077007
Pb 7.279173447724367 7.160247469576914 11.929737747405389
Pb 7.00734258531535 7.006705016568899 8.954815692099517
Pb 7.370097899230964 7.414209527626264 6.0110790421687215
Pb 10.778914105200931 10.337693939452482 9.142737837557902
Pb 10.04647918750514 7.274110857538654 10.801345165125241
Pb 10.097255542113302 7.4053169488438115 7.240001779548958
Pb 12.423528498444472 7.833975779085177 9.072689756492574
