16
Energy = -51.87271725 eV
Pb 6.994602522718703 7.702258786522945 3.103377764882618
Pb 8.133908099180697 4.782381228942327 3.4364720980300394
Pb 4.950134312355377 5.005197217520108 3.061684490041973
Pb 3.9687992727674524 7.830601317302911 4.317675722046138
Pb 6.1583173316686395 9.813624632551685 5.778941272619
Pb 6.040716929485592 2.912856472086606 5.205495705512162
Pb 7.208780118650192 6.5841766004599735 6.040891651735212
Pb 4.1882223948288875 5.308024701784712 6.524212724987068
Pb 6.755250038087787 4.402511160242883 8.364634528598007
Pb 3.4137245450793405 8.393867482569346 7.4016212257416125
Pb 9.058318108157279 3.4441249978999817 6.178027590869996
Pb 8.836878443880048 9.013666423612843 7.585496348464864
Pb 9.713840216716473 5.967975027648132 7.997485664390101
Pb 6.030948967620248 9.258816746477422 8.941996520930205
Pb 4.689024333175561 6.470989190840419 9.736345136808556
Pb 7.858534365628319 7.108928013538447 10.325641554342901
