18
Energy = -56.7623171 eV
Pb 10.295217630576179 9.993247127366027 4.610688241340294
Pb 5.505773481968095 6.4209426694415885 11.321445482065867
Pb 10.54447713450871 6.34111971309862 9.62034700695234
Pb 8.447334848614103 7.788868323840426 11.49930840415346
Pb 10.769279542586464 9.931134788937905 9.924327359369613
Pb 12.172724444929868 10.798013178558527 7.133827017403963
Pb 7.439117317877538 5.74791903360887 8.921062178114285
Pb 4.3101123693328764 5.556066791681373 8.278271822903648
Pb 9.27206560556514 10.598985288561648 12.504624818936415
Pb 12.469896125744397 7.990869408920809 5.59139855650293
Pb 9.61175967743578 8.054790667943674 7.120870188465794
Pb 7.403951475934322 10.79375358798187 10.112177464732282
Pb 7.12572086054193 9.279120454772096 5.541177282730645
Pb 3.117017637307674 7.898075246651843 9.892719733016262
Pb 13.083248797168459 8.089978379632726 8.678622746981281
Pb 8.92085294126866 11.380319917475063 7.31799995856215
Pb 6.581562479438039 6.243017524944643 5.976233965531979
Pb 5.62975108234221 8.655893260638937 8.333650005332549
