17
Energy = -54.98599829 eV
Pb 6.498511092739972 10.655381882359563 7.071946105023551
Pb 11.159414207515638 7.3062376385221635 8.93649462884266
Pb 11.528560786148718 9.73644127303777 6.527788895210804
Pb 12.9392566886417 10.108337706102663 9.69700178825117
Pb 8.202664260442036 7.759135194471038 7.288312764785144
Pb 8.429550748261672 9.484806048513065 4.816040852705852
Pb 6.02704193602271 8.849445072362961 9.848483943682151
Pb 10.132370500048836 5.835458097765887 11.539245240217314
Pb 8.292619214896925 12.939524624741567 9.126182691420553
Pb 7.509984038423064 5.983826569877878 9.638437022744117
Pb 10.926610578593866 8.89753673230589 12.042299054862712
Pb 11.06841679314229 12.110095864421211 11.382163083872626
Pb 7.983328745342111 10.894754687099297 11.956575760250573
Pb 9.151264855042198 12.275953592495709 6.094477934057181
Pb 9.35551898359374 9.966764869023613 9.255674475155596
Pb 7.739794709616225 7.769562160491821 12.326168610434733
Pb 11.513653172460067 12.543091488846741 8.209965235616423
