18
Energy = -58.04269854 eV
Pb 11.304961878403939 6.8737122221145555 8.368510085918954
Pb 9.406815788399607 6.163590397164236 10.677154399868046
Pb 8.570237940388338 4.589344678994697 7.449982335762923
Pb 10.568363297685279 6.075492451573893 5.439937225821572
Pb 10.721171643692328 9.443863228424814 6.323914449762796
Pb 9.545223451104437 9.560867672318675 9.808296329337924
Pb 6.625423323493224 7.9064986186070225 11.28734547409962
Pb 6.747385428016362 4.634263530775522 10.078490825953521
Pb 7.852721541645039 7.844141490048928 7.871981298450567
Pb 7.284415406045989 6.586021359494207 4.713060563591697
Pb 8.131521245120354 11.378712971277714 7.154489283585904
Pb 6.225745906439104 10.665076350622423 9.454905444588146
Pb 4.042157349838544 5.898253891417021 10.616791181220751
Pb 10.067095982254992 8.170144761874806 3.3037988437894295
Pb 4.027324628749559 8.485371454974553 9.032791430837584
Pb 5.15442710087753 5.7831523721156834 7.300027647075537
Pb 7.8504652393562155 9.928017350602762 4.401333150166552
Pb 5.293160554393142 9.227444777954695 6.1916444072139605
