16
Energy = -52.03443383 eV
Pb 5.756280286294662 4.986097491171232 2.9156565970267927
Pb 8.328379810444895 7.045884778319772 3.0225041514376714
Pb 5.384673922920624 8.037969412953263 3.844494186030463
Pb 8.646201819254907 3.9599174026481094 3.9375006777212236
Pb 3.8424692698762484 5.478529631715047 5.481845963620437
Pb 8.128046842684073 8.90507851417295 5.66981003292444
Pb 10.117872204367936 6.2962868974306065 5.646396060259578
Pb 5.957728028006169 2.9659690765377267 5.470849275793839
Pb 5.49540329450424 7.728966542036904 7.001927438022054
Pb 8.643115560559055 3.788443899772591 7.127885899053943
Pb 5.6727962191123495 4.6703822972857765 8.300876458731363
Pb 3.943941178906219 9.58720651337139 8.944694825833984
Pb 2.980868813818074 6.627532751521536 8.76496158550905
Pb 8.362910638860185 6.811325608403557 8.415459339096868
Pb 7.049957116786508 9.838197981087724 8.967289123264713
Pb 5.68935499360269 7.272211201571233 10.487848385672416
