17
Energy = -54.02597996 eV
Pb 9.29375368109279 11.453305568159678 10.20299331828193
Pb 10.422886815875083 10.741529802485122 7.270423722403821
Pb 7.369529493331904 9.588223307886937 8.363221319856084
Pb 10.979510575792625 8.740700145562643 9.88769201153226
Pb 6.503717397340609 6.91233053807378 12.779697049490407
Pb 7.559408496690089 11.252345970447394 5.7142631005116735
Pb 8.244033776404141 9.028003631323923 11.617912331490066
Pb 9.894226605479481 9.30874827346787 4.427891270883236
Pb 10.319503463393524 5.569463507400294 9.484082719214861
Pb 6.856696238014723 8.793915717139196 3.7030327503196045
Pb 8.651193255990949 6.285213595378481 4.355325955012307
Pb 5.2586043760272805 7.840394015469591 10.091598280855004
Pb 7.281440062607751 5.144487529289784 10.345131338752054
Pb 6.377739126176675 7.269864713569893 6.418614729488637
Pb 9.626408302710667 7.413360650798952 7.149141793632431
Pb 4.9249369159762875 5.241901828083078 8.276095308326333
Pb 7.9407539660891215 4.471855599909516 7.321364390996406
