19
Energy = -61.14027738 eV
Pb 9.602993445294047 4.470327721550492 7.094892692977161
Pb 6.330520534650891 4.57687368673444 7.501126965216676
Pb 7.931549766998954 5.988306597842448 4.683790541278435
Pb 11.068772466459064 6.655773815421136 5.226700015356359
Pb 5.46938306577714 6.844797201760439 10.185566312754661
Pb 8.370834508532498 5.261353950273393 9.974068552542956
Pb 3.538631037525881 6.674536063784922 7.550186603131322
Pb 4.830361596752721 5.845953002220012 4.9276005534578315
Pb 11.507369384524084 6.846554129013034 8.553853297768981
Pb 10.377585629645534 9.964348179663148 9.60136856915068
Pb 7.005637753852098 10.478769502521303 9.040728102733185
Pb 9.141203739055802 11.480445373758055 6.971929671194755
Pb 11.560309789841627 9.488161103014127 6.630141420674248
Pb 5.448803153622807 9.758977156566925 11.586571667096045
Pb 8.244050470556543 8.218826752499304 11.360255515187784
Pb 3.88640252827962 9.491756891451722 8.767056962869058
Pb 5.864724939736885 8.777957545188277 6.081025725604259
Pb 8.588750162920848 7.793347457262555 7.6226326503795505
Pb 9.088359125437705 9.2391769689391 4.496747280091072
