14
Energy = -45.051691 eV
Pb 8.579451189372795 6.3643620718146705 4.0224164929226625
Pb 5.979517973655123 7.800593782662267 4.949997107455301
Pb 3.324689057891753 7.033506162565678 3.5289501485691166
Pb 5.557943422200892 4.677670474050745 4.36484415023325
Pb 8.335730392425479 3.619373604183521 5.803308622717128
Pb 3.3630807189481478 9.400056510947062 5.509985927428536
Pb 8.634555677039428 8.908472919868563 6.133499553561351
Pb 3.6786993287828733 6.280325564653553 6.830336963001453
Pb 5.505343819721488 3.6269702738976584 7.490417670996203
Pb 10.123790571729788 6.139924727828637 6.844714124384615
Pb 8.298476526946011 4.4600698103057566 8.908904544451191
Pb 5.643258079232212 8.952739558665073 7.921338279335095
Pb 8.417927205999963 7.665260690266837 9.167539601375495
Pb 5.5575360360534996 6.070673848289711 9.523746813568756
