12
Energy = -37.55203433 eV
Pb 8.85721449253308 6.442066618207219 10.839088610421898
Pb 8.02407351746901 9.632468614049959 11.747806534194615
Pb 6.46210003076819 5.043685821804587 9.296269083864246
Pb 6.2639703278038885 8.253569803874239 9.62801267818512
Pb 10.743103629040142 8.88255988913286 10.181587689130206
Pb 8.744359394445176 6.444530722585718 7.642827400864207
Pb 9.264093569383055 7.730909762511875 4.941621527585031
Pb 10.773230160267158 9.437215252925178 6.866627823727525
Pb 8.401321865428901 11.147153662923857 9.036314567492767
Pb 5.4555426006313725 6.849644666617484 6.974541378733566
Pb 7.1849275003742825 9.509222097017513 6.493560960263363
Pb 11.333967725004333 11.682235466312308 8.723738158161316
