17
Energy = -55.27091687 eV
Pb 5.535582622327955 6.4684229893357665 2.232089024943028
Pb 4.121558226785102 4.128544838270146 3.974225095884871
Pb 7.452246740695535 8.422876574523924 3.958539653084383
Pb 4.411814645818803 9.327066743813715 3.1827741276676096
Pb 6.4320310241497545 5.793526722058445 5.297639461426084
Pb 2.4616243387343837 6.763485414184576 3.3229318212387557
Pb 3.1553461366468865 5.994887688823478 6.391392688854593
Pb 5.382176987206729 8.905793489727307 6.271500179649044
Pb 8.428914538323074 7.082292837213161 8.156025093706184
Pb 9.583824196350758 4.759258093110264 6.197097853524571
Pb 6.987881524947175 3.9568361759161434 7.970229968366227
Pb 11.571653178472081 6.520433912329483 8.096706081590414
Pb 7.376253367927398 5.496394559865524 10.89532654531976
Pb 2.3222903329864506 8.942699577682161 5.649033581152888
Pb 5.226485411902713 6.773995850381255 8.648235875661962
Pb 9.869288357505189 4.145395165622462 9.393859599229941
Pb 10.181028369218703 7.018089367140721 10.862393348698854
