18
Energy = -58.28426102 eV
Pb 8.218927586154969 10.206277319417724 2.9258974690720674
Pb 9.758599715484213 8.091891822387552 4.9403225679940315
Pb 5.55231068474844 11.066216972889423 4.0950982251504735
Pb 7.860250864860898 10.374576104834981 6.2500531262914025
Pb 6.507536043660582 7.819540801083696 4.173917084206496
Pb 8.409540023803368 5.07313769165743 5.459327124741397
Pb 9.306653887643611 8.330220428879656 10.055936359128216
Pb 10.657313948112488 6.595981462315882 7.640066158585929
Pb 7.365456817871892 7.2565684306858405 7.79058263642464
Pb 6.59008698253507 7.342602374748185 11.466186321802814
Pb 4.687994441393403 9.19374248980811 6.452180316988587
Pb 10.018878824724135 3.586467317067628 7.837139309246355
Pb 6.632964889444784 10.000506634210218 9.382766750921055
Pb 6.9015988185177735 3.2149679764197434 7.845465999719947
Pb 8.577765845082974 5.0139307781141165 10.412610489513172
Pb 4.114446019456302 7.77202077082683 9.29907511089824
Pb 5.03257287460753 5.546884370197479 6.648524282209032
Pb 5.204579888654015 4.830041865015422 9.948041992879759
