19
Energy = -62.03461773 eV
Pb 7.051077879175663 8.161050135522448 2.451002052041842
Pb 5.476369814048256 5.3565762746853745 3.4366081811856306
Pb 4.266559705818191 8.559061705741476 3.9913297933739966
Pb 8.813980182773971 5.6445772667265945 3.3926970213687144
Pb 6.897595906502127 10.454658590793754 4.70420650629985
Pb 9.600234046915784 8.711304232192198 4.308432938437479
Pb 4.558225368673547 3.397605369047161 5.910320438562525
Pb 3.5031528152292646 6.487028496252144 6.334734139774364
Pb 7.872285677126938 3.597331827604994 5.889933667643844
Pb 6.86159363479467 6.8984188319252615 5.92925188740194
Pb 8.515740565833083 9.334366033915696 7.312145950059127
Pb 10.003783221237112 6.279552045276664 6.51938644840347
Pb 6.130269482651582 2.491661832181333 8.5028857224981
Pb 8.532447381889071 4.725845622698981 8.892129096421273
Pb 5.126872711166681 9.36860316573466 7.333533842450278
Pb 3.986971836930291 7.262601221831237 9.469302822429357
Pb 3.2607329241626326 4.170507168479851 8.741750914927138
Pb 7.2387586733019065 7.690541959490478 9.842857927760594
Pb 5.803348171769232 4.908708219899689 10.53749064896017
