16
Energy = -50.37984526 eV
Pb 11.82449847004482 9.895690321369372 11.341672995086935
Pb 11.206982558949099 7.147791796478333 10.10478836223051
Pb 10.538892794585358 10.346500152588558 5.637333460479943
Pb 11.054388044010791 7.394429216247786 6.912263637681914
Pb 10.293770621047582 10.200174425581798 8.700257466218169
Pb 9.330484968994833 7.785969988525983 4.26688725065929
Pb 8.990940131724678 8.820536933823325 12.031058842518638
Pb 9.090888396112208 5.69002285137999 11.827203569979368
Pb 7.2864101775861325 10.174471485285325 9.678194597952064
Pb 8.123906511940937 5.997947936273088 6.849794128797868
Pb 7.122395515504518 6.866264957839546 9.860524942194038
Pb 7.436395544114077 9.654006118955836 6.1503070427979
Pb 6.23292456730544 7.058667128694403 4.497437779002776
Pb 4.471428487192144 8.567655930309979 10.149680206216107
Pb 4.848036728328384 10.62862577415027 7.78926001827591
Pb 5.094612632382503 7.36874165702861 7.319172063193378
