10
Energy = -32.01870139 eV
Pb 3.841876127297169 4.293065074641968 4.198759812150501
Pb 6.234111334285156 3.423285297145512 6.097686385117407
Pb 3.7670527492698365 5.340798328447812 7.198721813058532
Pb 6.719300740605485 5.490313691961756 3.5647526572398522
Pb 8.733415183682537 5.456070474802112 6.071098704343612
Pb 6.641199604849524 5.346576161502875 8.634375542022902
Pb 4.250527041526582 7.406147109828931 4.657972027818495
Pb 5.238953398477307 8.166324369485121 7.624660367248704
Pb 7.319841257842923 8.270027782548745 5.052839195170309
Pb 8.381687654187994 7.935356801659806 8.027099233267652
