13
Energy = -40.87864303 eV
Pb 11.561289949088595 4.8161445999978065 8.429103106341477
Pb 10.457976428261864 6.67884135631804 6.289914196878377
Pb 9.939442527891801 7.076900748686148 9.734768760855575
Pb 8.748219529156795 8.786814174144139 4.7123728480545335
Pb 8.601259399563915 4.360656791915032 7.9464897923104045
Pb 8.667303242601506 9.254519790902089 7.812667831720005
Pb 5.889652476049428 9.912979661105442 9.206983567072623
Pb 6.775298477066796 6.8811463288430055 9.512657975341726
Pb 5.9677088153687645 9.832346087456669 5.685350498588244
Pb 6.980212814980599 6.42376599865392 5.537792289736226
Pb 5.5091548914153465 4.7266473988382085 7.623514820959002
Pb 3.5175803222069773 10.505666752331146 7.340752663079304
Pb 4.111631663574655 7.518756539387315 7.35533647334215
