19
Energy = -62.06366916 eV
Pb 7.532401464396748 5.467230432996234 2.229012975694508
Pb 4.372563200195223 4.485386471748569 2.092559252076106
Pb 5.063121392754054 7.646075772154995 2.5833967720763513
Pb 6.630458449601911 2.766694477411125 3.7689877252603488
Pb 7.886440801016637 7.993966537012903 4.488610412022784
Pb 9.031227968175621 4.833263448522672 5.191237157744347
Pb 5.987299123243506 5.491806731339996 5.277854732131183
Pb 4.747809025602492 8.434087657279148 5.8075562691548095
Pb 2.6414870882321395 6.249156584083048 4.286029681044713
Pb 3.6490302511048482 3.263412808003853 5.060415591968147
Pb 7.35403816646571 4.409289197484247 8.146452175415845
Pb 7.643536427176118 9.818028203544158 7.391551859098616
Pb 9.442658944278227 7.088354859796297 7.593232824105966
Pb 3.8240353507476934 5.629714909595737 7.451472067632121
Pb 6.331825329148151 7.293744841556041 8.885472497287152
Pb 6.232375687388405 10.14433469951685 10.326807778749885
Pb 9.01333188507431 5.812702616902338 10.595390122132672
Pb 9.222684699740356 9.03211460557663 10.276247951888392
Pb 6.893674745657966 7.640635145476089 12.047712154516995
