17
Energy = -54.17181259 eV
Pb 6.622112975261253 10.749665825113878 10.306163879701067
Pb 4.362669947862829 8.008998912772425 10.93252839945803
Pb 7.571297986226746 7.858026204814316 11.416954180814274
Pb 9.500048599541726 9.526836051244299 9.030050307511434
Pb 7.4292798678545875 11.273971220423636 7.28197428596263
Pb 3.733300896930459 5.76833452189213 8.138799671037502
Pb 6.089098358058792 5.321788361089432 10.319985803080758
Pb 6.124611106697803 8.097534675323706 8.334446953061297
Pb 10.188199727640766 10.560870625938998 5.896742927464215
Pb 9.13568299124021 6.103683553302015 8.88092076399216
Pb 8.064756930879208 7.978207518895098 5.934762484839112
Pb 4.783045381656909 6.679413856273918 5.292430542219662
Pb 11.367654450433893 7.660522213894096 6.74021312880662
Pb 6.6804509912123 4.65802746375712 6.940343635858434
Pb 10.242383556524182 7.671917962619929 3.6862796124713313
Pb 9.897003580926935 5.107758421505118 5.6583918948712455
Pb 7.319711059301876 5.562281113699097 3.747504416173962
