12
Energy = -38.40805761 eV
Pb 9.819812973704108 9.351088614419044 8.525935538851837
Pb 9.402527069061396 7.774893664453143 11.278268197040237
Pb 10.080652866701563 7.238793721815464 5.984812853761753
Pb 6.757614854829409 8.552745682779618 9.916230696933718
Pb 7.338795526407462 8.959403023781277 6.717253487947529
Pb 9.208899779479664 6.114792785045053 8.811041031085438
Pb 7.893202757818668 4.7181934123271745 6.247066177871172
Pb 7.557213728693755 7.064410268592916 3.9884364515731066
Pb 5.941777063058315 5.5003870698717705 8.718095459953421
Pb 5.003660770631898 8.990725662646634 4.80440861603752
Pb 4.311071398232635 8.087602408108319 7.859035299543195
Pb 4.937673741751506 5.901256749928626 5.508965805695323
