19
Energy = -61.53430453 eV
Pb 8.9127910774579 7.814967817505995 4.463434607939796
Pb 5.905409569329861 8.204308704807314 5.845619851798808
Pb 7.667431490114073 10.83052690598756 5.242830140031994
Pb 10.572056701653661 10.177070437717937 6.499552909958499
Pb 6.515015286210684 5.311673052363584 4.674551257554716
Pb 3.801456344349877 5.988323524110839 6.192585565961274
Pb 11.41308809454037 7.009417462127104 6.323915558476982
Pb 8.728934774062328 5.2036645585232275 6.83509762091742
Pb 5.214509052791019 11.015599926048653 7.335670393420849
Pb 8.289248283841738 8.330596773483762 8.462160655509102
Pb 5.719928681370108 5.252206458842867 8.492825609761573
Pb 4.231284841641531 8.234155238624773 8.801708728173187
Pb 11.144016817796299 5.356449892832603 9.04989972880119
Pb 8.33460855732284 11.673339287047009 8.288965404048017
Pb 11.602343886765853 8.62712296285608 9.143271339448928
Pb 8.26449405832076 4.713931444563952 10.231811208742041
Pb 6.295727877395497 10.342392663029331 10.311420705487821
Pb 6.439564758171423 7.27065437388612 11.227723211258615
Pb 9.678225742235677 7.373734411012351 11.307091398080379
