13
Energy = -40.75866075 eV
Pb 3.7238936786972054 4.6212249244948405 3.003184079634513
Pb 3.4802357809097084 7.746094413286783 2.7603798933035195
Pb 3.831110006638049 4.034737592185969 6.084198826398182
Pb 4.595458092480736 7.210191495786243 5.533464723042326
Pb 3.7264238662614306 3.097245694410375 8.892806722816939
Pb 3.6821008056916487 6.352495719841471 8.42985568710397
Pb 6.524402293109199 3.5252065573809945 2.094124202784824
Pb 6.340710687850431 6.591476642747006 2.3160666935174503
Pb 6.976671108021656 4.3082232651027015 5.022145811009556
Pb 7.818730020031815 7.6035415242487066 4.9674925107811765
Pb 6.391722325599836 4.4319690744176645 8.561325315629743
Pb 6.686859519144917 7.7088866230298665 7.990530949838162
Pb 8.93934293535483 5.4863672910813825 7.062085703930649
