18
Energy = -58.40647593 eV
Pb 5.381275856847502 7.363356459862287 3.00916289478668
Pb 7.465075011715351 5.136695328436286 3.2294806785872794
Pb 9.560719690367774 2.970881541220709 3.95255843932935
Pb 4.374310126106742 4.5583051777333194 5.015951623965003
Pb 8.301259042887668 8.420483981912346 4.438830860192557
Pb 3.0908416094484417 7.66683287710351 5.400088697443911
Pb 5.379183839174369 9.930397641620141 4.789560876881277
Pb 7.172933592213135 3.0349582061274445 5.771538603149165
Pb 9.657349880302945 5.460827998479036 5.8442461411744935
Pb 7.477592152027751 10.103426706958606 7.224123065335365
Pb 6.281728382632346 6.884119507811932 6.569455381758181
Pb 4.073728557925953 9.702783275463286 7.7289041683435045
Pb 8.513233355898112 4.0434875097359 8.580892555839231
Pb 3.691085620235596 6.454021819687151 8.545171760195824
Pb 5.187300372148253 3.5261493546465474 8.13185980522465
Pb 8.862598367127262 7.349893384825326 8.582927579580863
Pb 6.070373222469469 8.734993348122835 9.882420864095263
Pb 6.459411320472098 5.6583858802546825 10.30282600411875
