17
Energy = -55.05519664 eV
Pb 6.493196683108775 8.52808118600641 11.6646338018134
Pb 11.091376205367425 8.98613015425246 6.018010821193447
Pb 7.980760563572734 11.444917778609502 11.44012171270262
Pb 9.226249140698586 8.926199542904511 13.297058853782472
Pb 6.566707492679277 9.719289182611538 8.60503487344226
Pb 11.729748357151724 7.851943209587919 11.36073109289615
Pb 6.370656875491239 6.560968976645089 9.176888339127565
Pb 8.872761834135567 4.7303384235240555 8.302720859725278
Pb 7.866795944412086 12.705323668655396 8.053373245142982
Pb 8.292302668557905 7.374566486400295 6.630404467609911
Pb 9.828806756319745 9.789811993019967 9.190044079506754
Pb 11.220732517183505 10.972916807411956 12.061100970273854
Pb 10.771028675346285 12.044125357425049 6.827461947995104
Pb 11.115921480339503 6.872572873357925 8.407322914527846
Pb 8.927216981642113 6.3524005229732605 11.151058270062396
Pb 8.167617527411533 10.586683668814876 5.718817458744699
Pb 10.498271496975565 13.11837170432996 9.87598414746237
