19
Energy = -62.15406665
Pb 9.909627863325442 11.167575461359553 14.106157160888099
Pb 12.378415279779748 11.122640174980768 12.864040445122313
Pb 10.540898233762425 8.723665023835252 13.058023701197902
Pb 10.211703378235713 13.350026510427973 11.690540309656747
Pb 7.6303233755613995 12.021660955067262 12.014484518662144
Pb 7.8583305240068455 9.427273964360532 13.081536048432827
Pb 8.622338304934393 7.443891082327993 10.59887121053372
Pb 9.338017261816194 11.036687460177106 9.986240261077038
Pb 11.465000380039905 10.087203922029126 10.178803717874446
Pb 11.419658006599366 6.86323446105391 10.516687487700974
Pb 13.024435545976496 12.529432626825793 10.124840669214864
Pb 6.55150702168958 10.011981994773208 10.23739836957276
Pb 10.211703378235716 6.830848069739971 8.278906018912545
Pb 10.614051418597477 13.587118600910541 8.818812322707615
Pb 10.431618316099938 9.17373474697321 6.236086431402438
Pb 9.671693233177129 11.585053606265545 6.841888429115935
Pb 12.379547360719332 11.033717340557327 7.640325254816741
Pb 12.66871345647571 8.250155214171107 8.344229690244083
Pb 8.082310758607361 9.232859286522972 7.923153245788674
