16
Energy = -51.15380829 eV
Pb 8.98635222226436 4.551661282335756 7.303014375675043
Pb 11.155815619719547 6.316711169242004 8.95158902806457
Pb 5.93705704912953 5.71223515062105 7.548398578209759
Pb 8.206543117886314 7.153413226629585 9.258464883426608
Pb 4.027469936070804 9.454964880865614 10.908827975732828
Pb 11.183869653062496 6.1865433109123895 5.72954875066624
Pb 12.553247570344555 8.623110241478464 7.092360013511865
Pb 5.381194886859913 6.636522276994569 10.64895223844891
Pb 7.146420577456584 9.424341683261487 11.387155876288467
Pb 6.737868831238329 8.697648739431896 6.583138174790608
Pb 8.117298099887917 6.464579525213922 4.751627327967349
Pb 8.678834366040372 10.140628306683057 8.561722388591438
Pb 5.62294558284402 11.03217406525926 8.800946401474233
Pb 11.107258011292126 11.308557932945165 7.192330574488565
Pb 3.855020525469717 8.185055596478033 8.03341344806737
Pb 9.764830575082899 9.156895381510314 5.204798958112295
