11
Energy = -35.35853321 eV
Pb 9.045656403638178 7.018881803570241 4.715378224996025
Pb 5.962612113346024 6.1613101726638915 5.267060986395623
Pb 8.052247138527857 4.0052454339462615 4.45643449701013
Pb 6.4639618988757555 9.360844124710397 5.18764746099627
Pb 3.535304432391637 8.111478057144813 5.299357816331876
Pb 6.158099071794435 3.3990323672241565 6.942545648321294
Pb 8.24637255712228 8.193387591311748 7.600974542261505
Pb 3.5850321006032164 5.751492935748866 7.434266917457644
Pb 9.042673110739903 5.0264641432064145 7.393050946295065
Pb 6.348458696660455 5.808110552811731 9.067465384905029
Pb 5.0595824763007196 8.663752817661939 8.135817575029725
