13
Energy = -40.9283318 eV
Pb 4.616874416596809 8.98436981536833 6.619620243389502
Pb 4.687350829493844 5.704356279756806 6.869222028088406
Pb 7.956441904719969 4.400401352047653 5.658126865499141
Pb 3.2305920699183432 3.9204780152843384 4.540705923357341
Pb 7.004608718265717 4.357384596513608 8.806785458708482
Pb 6.506244613425594 7.626651625407868 8.79777817526713
Pb 5.60415316760281 5.798548960531547 3.28341738684014
Pb 5.390851647389819 8.874492209654305 3.426460007279705
Pb 5.497254503980992 2.529132156259739 6.710752261400601
Pb 7.49930006347493 7.786638558979143 5.653558225488552
Pb 2.8743327947091637 7.127341734198253 4.4606682340275965
Pb 6.0659911244791616 2.7772214329466665 3.5111549803605735
Pb 9.312923861737255 6.359902978846018 7.908670226705499
