18
Energy = -58.75151172 eV
Pb 8.832265378872494 7.2110028457815964 3.273735791004093
Pb 6.0861234503754345 8.865932100455131 2.877066188538672
Pb 6.125882457449965 5.72053912593764 2.208319393246213
Pb 4.457540708139442 4.158926000654975 4.457843728482075
Pb 3.661714287138722 7.1625985877468645 4.065902023327528
Pb 8.1011864379728 9.824720893594874 5.1106412508475785
Pb 8.892362101116703 6.797111685011643 6.4107686177551
Pb 4.850847790375346 9.688910470577378 5.774140003073423
Pb 7.786940149471976 4.250079576533842 4.681913940663192
Pb 5.623573809584363 6.389536115164556 6.535392193727353
Pb 8.957649041377104 3.6813417849676626 7.729306733810572
Pb 7.333657612003878 9.014780942978652 8.241827571088276
Pb 4.107936184629074 8.288819135213533 8.708231864817888
Pb 5.726048820445424 3.009840104828372 7.3193546091759965
Pb 9.16214164826759 6.414315800656874 9.53401250552641
Pb 6.259286977088655 7.2008864887633885 10.818153605271155
Pb 4.091034021008228 5.183089580492219 9.135682568857929
Pb 6.943809124683801 4.13756876064134 10.117707410787403
