14
Energy = -44.79879389 eV
Pb 3.7042031513341223 10.170452686492686 8.160149824080214
Pb 6.78570661815037 7.0814691413526205 4.763318071874892
Pb 4.841549578812156 7.6767328445049 9.65826147928071
Pb 8.912920900559326 4.84534845620881 5.5142213200569525
Pb 6.4008305746110565 9.72486684904694 6.706855878310867
Pb 4.122708001725791 7.388216484881478 6.481730949971829
Pb 9.722938569793316 7.9610836873928 6.055308205396611
Pb 9.719113885597313 5.0425831853280805 8.678762625136464
Pb 11.251182097258063 7.9174391383205 8.949525355830689
Pb 11.872851512682338 5.785524276487639 6.539956579291014
Pb 6.547798024832045 5.5278130726350065 7.7411999123699005
Pb 9.243733103774751 10.310147366327284 8.32935621021669
Pb 6.473457898363914 10.502435099133915 9.875619319632747
Pb 8.157246859396704 7.649394311820029 10.083527284063614
