10
Energy = -31.13596308 eV
Pb 4.966681746950084 6.82645506886379 4.301988629317132
Pb 5.9723658381072635 3.851802161186173 4.761099146619096
Pb 7.3165511534358245 9.124588952848807 5.174826535673215
Pb 7.923435364792963 5.976981432653039 5.863888868482623
Pb 5.448683650689755 7.3906611214855475 7.50117351472204
Pb 7.312172548187844 9.726452308186866 8.28991689978427
Pb 3.5795994341255364 5.064956741557148 6.69788917148235
Pb 9.872523213988444 8.093290617842511 6.985915739618151
Pb 8.135126361166131 6.680580161547293 9.236994710415322
Pb 6.301108735445604 4.092479480718027 8.014554830775381
