18
Energy = -57.82709731 eV
Pb 13.25951181752752 11.946613378459737 9.957742707078845
Pb 10.556446274461674 11.807636670785723 8.534341861204458
Pb 13.078331553548798 6.662663425764198 10.96467226653773
Pb 7.2947552775221505 9.478280345101638 4.562169780477962
Pb 8.144960739742126 12.101643297997171 6.594134681986695
Pb 10.762158400431748 11.116817022407186 11.736069423270102
Pb 6.59494461892161 8.055832528822329 9.541001669647223
Pb 8.424022888492342 5.750206264682933 7.956853257674869
Pb 5.6595377815959536 10.27653407940342 7.249683663702905
Pb 7.477118228385594 11.324883636451624 9.843665061530974
Pb 12.53787916216966 9.042346230159383 8.73326981275596
Pb 13.85994794904592 9.50096556929065 11.795229198251388
Pb 11.145886550873263 8.09217878970026 13.144975636278941
Pb 10.06052191898019 7.388217981395867 10.237003841723357
Pb 5.835264675964205 7.195039339844007 6.393156150208471
Pb 9.01224812511995 8.94874143344514 7.365521602389185
Pb 8.752743068419331 6.74256712516262 4.9742381994790765
Pb 8.284859632646334 9.17402937512657 12.221486065145125
