15
Energy = -48.16846104 eV
Pb 6.806184935327225 7.429058972925039 4.196724294489948
Pb 9.895024878858994 7.659604040451391 4.352696020908736
Pb 9.035298275867266 10.26516187442368 5.898528940976731
Pb 5.096640371531719 5.5299081774958285 6.07830342803321
Pb 8.845902884397024 5.243399594234579 6.226627142557057
Pb 4.594810047923383 8.823577129577293 6.402897914540145
Pb 11.189429829665452 7.895915690929907 7.246259420355163
Pb 7.430791322421225 7.757623426944485 7.551570793229696
Pb 6.613728368069505 10.861277484962047 7.990848157885473
Pb 6.6921224932817776 4.1664406869723685 8.448793606702932
Pb 9.699538458410288 10.056180082952578 9.014395941004667
Pb 4.473499471953621 6.79710747508214 8.944299598375762
Pb 9.447874123392992 6.339071145801487 9.550556069952444
Pb 7.285955750318509 8.962916834227777 10.759119322286697
Pb 6.633119786892353 5.952678381330561 11.07830034701282
