16
Energy = -51.15992094 eV
Pb 10.809576198974186 8.402156371693973 5.100000450642594
Pb 10.067801663390195 6.587993314601629 7.83405017361705
Pb 8.518806672741485 9.652731673983208 7.98803171915618
Pb 10.023170174130804 5.268902233248812 4.667517209112509
Pb 8.19127834381822 10.224165538228949 4.838174466662792
Pb 8.52256968408948 7.535744840422987 2.971751916142872
Pb 8.841490536809019 8.323082042584153 10.898958342171513
Pb 7.489798888317624 7.3303705385428275 6.002026390310942
Pb 6.637010175491138 6.632062899212287 9.453845991377088
Pb 6.098281628647361 10.059851638965432 10.403137535868112
Pb 7.888231412740672 4.245629718330743 7.020825633677393
Pb 6.770190063757546 4.958615762595547 4.0755739584432735
Pb 5.0156248126291665 8.997841065120802 7.552866345770004
Pb 6.035886529217087 7.573461221764579 12.434270431761101
Pb 3.7259900665475008 7.795664770656884 10.450477629927937
Pb 4.795573213149061 5.748791315690507 7.174783388424953
