17
Energy = -55.21260091 eV
Pb 10.595931514394763 5.809737595463188 4.517939616012143
Pb 4.332369751251445 7.69515776792893 5.799168922430128
Pb 8.141641432155799 4.010210447655756 3.633542787314495
Pb 1.3014964085431628 7.514140036799862 4.802619685691212
Pb 7.628221097112777 7.103226812991204 4.241115398072861
Pb 12.167599899067104 4.184134094230601 6.72234713465625
Pb 9.95920587172083 8.648415414888635 5.775761913105996
Pb 2.369003150968596 10.202348388851659 6.127891509291605
Pb 6.260858470354687 4.81804750610907 6.170521147697891
Pb 9.21910391737106 3.381188789745143 6.527833365853447
Pb 1.6373302772652474 7.709704332645404 7.960861337238976
Pb 4.348364957496876 9.386817681516343 8.563257611161578
Pb 2.6054489124517333 5.026636185494184 6.425314304745484
Pb 10.386232914163223 6.368326036886165 7.9076245177001265
Pb 7.362722588649519 7.628630266653252 7.4801031752250315
Pb 7.811143324246549 4.827763309059013 8.995799027413861
Pb 4.373325512786311 6.185515333081439 8.848298546388417
