18
Energy = -58.36716176 eV
Pb 7.883181504960999 9.591810342517302 6.044764974596908
Pb 1.9664920329485591 4.564992602391127 8.220609605846601
Pb 9.30856233884653 8.83134921446956 3.3690931252306155
Pb 7.453497175744948 6.38382704193739 4.065952118095776
Pb 4.332609728936136 2.5455983308397783 7.339399230620905
Pb 11.046157980534685 6.018331980649591 7.586202399621135
Pb 3.0085446514642142 7.61947410923212 8.125011684542288
Pb 10.805992263598922 6.169672370050805 4.340571303581741
Pb 5.041714082627374 5.176633718415776 9.150453550096278
Pb 11.06958168756846 8.882001945624827 6.092648500066561
Pb 7.8149233229395865 6.312390809834548 7.495332877423986
Pb 2.0993305888475113 3.344565665381672 5.23364537462953
Pb 4.855347695994156 8.373787314631455 5.398381095508539
Pb 4.526033188287022 5.292646701150455 5.875351212761739
Pb 9.425302921982544 8.65582075946247 8.787198858042062
Pb 1.4869297327979194 6.4195555555022645 5.562387558755185
Pb 5.960285540092756 8.714296207699112 8.539978635044287
Pb 8.915513561827279 4.103245330209516 5.773017895535784
