13
Energy = -41.58477555 eV
Pb 9.214256716984538 8.686316089936962 4.961124827038276
Pb 11.343983834512981 6.894911545769563 6.707254425412896
Pb 8.581852856787222 5.626403177725446 5.727048016635438
Pb 9.383582926891028 5.138903101398616 8.831119393489976
Pb 8.056267019850731 10.908643274701836 7.250481289193688
Pb 11.221686368053494 10.117924112076176 6.844359486097446
Pb 9.493076675636322 8.43748655516793 8.947598376279702
Pb 6.4160139664510965 8.078977473848028 6.66650943959401
Pb 6.275894083305984 5.100940552329845 8.083239238713096
Pb 4.847406686340484 10.586796564491694 7.881501505888452
Pb 7.157781573393704 6.731864708522281 10.742910334691953
Pb 6.764199589456167 9.880993959430391 10.213846136521145
Pb 4.481017641791248 7.706199998015597 9.294679438027435
