19
Energy = -61.79505789 eV
Pb 6.056679476364494 9.035795502363845 3.9105414726574117
Pb 6.516176244956652 5.905701312186591 3.4895121309925785
Pb 9.082625448196882 7.875012788155649 3.964580120564566
Pb 4.101257985009451 6.731369334625171 5.713763367034894
Pb 4.964233694802646 10.09333545721609 6.736664638419538
Pb 8.253426183128171 10.296570182140654 6.366808202211148
Pb 6.1888580753849185 3.9279700435921283 5.968067562834069
Pb 9.15882393127573 4.940413461695494 5.148387933915967
Pb 7.0629542270020576 7.208107101858853 6.667791945020669
Pb 9.973355321067238 7.916193261610422 8.136786003458234
Pb 10.273382267134595 6.29324193908913 10.930273703542884
Pb 12.09327449075058 8.861971269045494 10.300218310776934
Pb 4.282345901311767 8.108598782387556 9.11087499284912
Pb 5.131926493006606 5.072276176193073 8.772301560274872
Pb 6.79730187785611 10.211967261615332 9.493854112838822
Pb 10.103944162540671 11.03644983025339 9.038968839870417
Pb 8.430388992328941 4.855648987508446 8.555711640787036
Pb 9.239750606209224 9.244620140012568 11.525306146207576
Pb 6.907585884369702 7.003048431146254 10.787878578439592
