16
Energy = -50.60549455 eV
Pb 8.899225600492569 5.0262811600675725 5.671402159385737
Pb 6.173704137764726 5.953637709369373 7.096349491677397
Pb 11.350762374673417 5.285214521104597 7.587513830173433
Pb 12.196432584674742 8.291890587252968 8.548788788453505
Pb 8.480784299429077 4.259552191674355 8.782939162744627
Pb 8.866590200900673 7.901740629033707 7.011355572637576
Pb 10.462476572159664 6.246193474050143 10.468389841727934
Pb 10.560850866483051 10.470623092103677 6.7907707648111915
Pb 7.290270634130287 7.2057122463525065 9.952287597383556
Pb 5.6277628864134925 9.074786969254085 6.910047868690911
Pb 9.801769070214188 9.497942591822158 9.97961189264015
Pb 6.888862462099754 11.899606970975613 7.385851547504619
Pb 9.578137494972529 12.937930226140415 8.398482381508806
Pb 4.203302614743518 7.7612901422266285 9.347712019668093
Pb 5.001772837549441 10.718164857923048 9.66668118167492
Pb 7.7977947788734845 11.755644792664082 10.64336264015408
