17
Energy = -55.36790015 eV
Pb 7.440741860850722 6.975283180759906 2.9941604830367456
Pb 4.683556116759965 5.391692647845457 3.3252247899350973
Pb 9.72263953132261 6.115675685896279 5.466598215033372
Pb 4.8001180671606445 8.654297237451612 4.484886339421981
Pb 7.551519858688186 3.9136637342044036 3.886162067589379
Pb 8.281776978729768 9.269318867742145 4.863369102368621
Pb 3.7215007667315723 8.501471464312266 7.775347082388251
Pb 6.667968643776001 6.837752390577659 6.523025167371805
Pb 5.268108908844106 4.053571355275058 6.311411336755519
Pb 2.7553773482484454 6.1946689155857815 5.795163412318068
Pb 8.458147699557115 3.2465029647352144 6.907953526101586
Pb 6.318666450874708 10.091221922615171 7.331356044684825
Pb 3.666257054252781 5.498819309488478 8.859315110630924
Pb 9.170167979242787 5.672201194283564 8.863096414880747
Pb 9.150415079485894 8.60516311397443 7.93985081164568
Pb 6.486960759447172 4.0164321229180695 9.407819862739647
Pb 6.356076896026502 7.462263892333917 9.765260233096733
