18
Energy = -57.92251861 eV
Pb 5.128867052141953 10.860813381035383 6.992739772800827
Pb 11.84906823922495 8.822550380331528 6.447470687597367
Pb 5.261537356043099 6.568668400146737 9.931489176007231
Pb 4.030425798343036 7.757558643935912 7.211552242152189
Pb 11.464511986522627 10.363695851388227 11.49018153452317
Pb 9.12633938971516 10.759614031662732 6.390197517313316
Pb 8.23782066246503 5.603918619793135 10.306855477924387
Pb 10.66468606052049 7.180121856772172 11.293677946380257
Pb 6.386574615032132 8.54296313523268 5.119749430745645
Pb 9.023494595824388 11.058145470892756 9.625399731261856
Pb 9.36714706841291 7.493182745632577 5.2942652726875
Pb 10.697090194396877 6.155101056592455 8.08867059040209
Pb 11.98409531530715 11.367057240824131 8.4755198036042
Pb 12.925336402983936 8.42314220198065 9.413819532978255
Pb 7.253665239361368 8.777378787591493 8.286874604790823
Pb 6.971809763056171 5.820338627345029 7.107883335783207
Pb 7.729190088118486 8.76345425178524 11.517613512388795
Pb 4.572298739316081 9.750560925988704 9.811107327097528
