13
Energy = -41.96964197 eV
Pb 5.551486905191152 7.121906273500727 5.842114782246655
Pb 8.148447830881208 5.504404054248235 6.5358447578828756
Pb 8.926063470507321 6.107097526318581 9.732226370301262
Pb 5.806124678958288 5.708647152377881 8.799609390936082
Pb 6.753110317829495 8.087585575266907 10.837147370412223
Pb 10.693917521529999 4.46704194508317 7.833801743450225
Pb 9.753020438373062 9.212224620226397 10.025475391705529
Pb 10.664964474513255 7.587053648551823 7.279023779055847
Pb 6.994181410265697 10.865849740882183 9.210768990170932
Pb 4.622926412896941 8.765127282304665 8.478648513021136
Pb 8.512056291303587 8.21297734857993 4.8203188216033235
Pb 9.35441453424757 10.439486117702677 7.032745510003707
Pb 6.254514988021427 10.267886318671717 6.099870851998888
