19
Energy = -60.79569555 eV
Pb 11.607292586680366 8.904920584604968 8.622848569759446
Pb 10.992932377123674 6.71959860607711 6.459612416493462
Pb 5.6001104366992305 6.967685124554617 7.615352762547084
Pb 8.547166990156326 6.304141196196037 9.249584807684858
Pb 8.384237495067028 9.731215579111959 9.787608558371781
Pb 6.646531172923597 10.901821749023862 7.405853646167796
Pb 11.632657144271743 9.816434239204684 5.4727933937260715
Pb 9.25392990335287 12.024706028646111 5.594224517871977
Pb 8.497436562101896 3.5445040987656005 10.781979707650105
Pb 6.61739793611198 3.3161396777453076 8.385979287526764
Pb 5.724324504303974 8.20014227984757 10.405523514873474
Pb 10.932477532292845 11.186638655703575 10.629589182848694
Pb 8.738802670025281 8.878410764336294 6.470317262729741
Pb 5.875633475928613 5.13801443287916 11.099062728520634
Pb 7.94876700861022 5.421688946477903 6.1409770672208985
Pb 11.79658360174729 12.103685830142915 7.657884674551536
Pb 4.902050279101785 4.31440870500115 6.030165428953833
Pb 3.6265013546386005 4.644942585064265 8.896667507741515
Pb 8.823333431148404 12.840878595170018 8.682966673116672
