11
Energy = -34.58832574 eV
Pb 5.987808326425923 5.988755746194317 3.354159346346421
Pb 5.983577075529277 7.610426746719916 8.588136221516338
Pb 5.982449941194607 4.35387477900077 8.58408667203553
Pb 5.988895718708165 8.952700652852995 3.392178191694057
Pb 5.986847294842359 3.0244718121174903 3.3848206428816425
Pb 7.671136537556066 7.8646328797843825 5.713085847023503
Pb 7.6698592127807625 4.105722249782686 5.708407080209094
Pb 4.301411884042369 7.8657874492130775 5.709919080230695
Pb 4.300092824158458 4.106940374617566 5.705223061399504
Pb 8.704092910547168 5.982140207744335 7.8522300618636205
Pb 3.2633058483919517 5.984024374371847 7.847231368976834
