16
Energy = -51.81856709 eV
Pb 9.449336066740534 6.949987088624026 10.43407036927885
Pb 10.667491419584149 7.973458179864853 5.447218090581569
Pb 5.7506198164521525 7.936527289712168 7.341395928582266
Pb 10.497159390987497 11.046938462310473 6.678161776812681
Pb 10.408563299977885 5.526707513053576 7.711548259370658
Pb 8.743544298284528 8.803115234135221 12.807074481334203
Pb 9.020382056492931 12.580164970890088 9.241871201703136
Pb 7.938198372122324 6.246400530778971 5.676701382843141
Pb 10.057970031676087 11.550644124109038 12.124320640434277
Pb 7.220869942355615 5.381569923110846 8.713828568878297
Pb 6.26247649484603 7.854432299748038 10.696717184667891
Pb 7.771037082831923 9.457405325865988 5.427742348007264
Pb 11.452234148034757 8.460097456962162 8.531448623887432
Pb 7.015538504737088 11.075252901982138 11.133356091449476
Pb 12.015085632995877 11.258696445137845 9.708404247319327
Pb 8.318290828418089 9.451967121922182 8.626709181703609
