12
Energy = -38.1722165 eV
Pb 5.522953220740734 8.968859925332728 2.322969429896921
Pb 5.205929428622608 5.971576014807456 3.046086675700284
Pb 8.022792796287614 7.997636289527741 3.691368208376217
Pb 5.024633245110927 8.276398853342265 5.3688532428346845
Pb 3.9669799854146746 5.220240929631695 6.021927747825377
Pb 7.231560646426478 5.552941383654335 5.485348432738369
Pb 8.980658579871552 5.441044062890872 8.174639799389148
Pb 6.246207913968715 3.415282208302341 7.554792535893381
Pb 7.901626299564066 8.428036967769646 7.179679248560921
Pb 5.323072648469796 6.580002403859447 8.463769822681714
Pb 6.950280201622763 4.539464839445698 10.454413767640942
Pb 7.623305033899197 7.608516121435198 10.23615108846131
