13
Energy = -41.26030764 eV
Pb 4.147500175299315 8.795890405552427 5.029766422440829
Pb 3.486142624766958 5.599750247582124 5.396345949203065
Pb 4.103904927104949 2.5270112850038142 5.235559253705661
Pb 3.30576163715452 6.7238351035233705 2.611417608289529
Pb 5.664917258761012 4.47369682491262 3.0491064790733247
Pb 5.980922763152227 2.004973904781207 7.69047987560162
Pb 7.240000245470096 9.047428879772358 5.694232775281687
Pb 5.364439456810043 7.23056680170246 7.693767808740157
Pb 3.9879771286576973 4.321828547852168 8.214688084579382
Pb 6.306022297748369 7.736444404251358 2.8228480928635347
Pb 7.539047065396777 6.06932484289533 5.359612921139924
Pb 7.476519841189314 4.716635405216371 8.186289154362559
Pb 7.581905317331918 2.9376742976548904 5.200946949133533
