15
Energy = -48.74174174 eV
Pb 9.51863405986395 7.38663194481522 4.5158013117506295
Pb 6.706009999866399 6.61950285373928 2.656780820784785
Pb 9.273973333136997 4.784611405200559 2.848083396275106
Pb 6.428064723724952 7.950969662419817 5.551944032302653
Pb 6.588844043842806 3.57788464653864 4.007710238189351
Pb 9.400861587274392 4.258337024461311 5.900359967438111
Pb 4.206586261401346 5.82537256771684 4.729420278498642
Pb 3.4217884836830024 8.489753364611683 6.793235270046715
Pb 3.3325097336901734 5.503052723535537 8.082526455714355
Pb 6.323701230605224 4.928196632641235 6.885275903222482
Pb 8.583603562731424 6.936855629584853 7.585223882221731
Pb 6.058234933348549 9.934830830162086 7.943816667453006
Pb 5.9304013254061 5.225421189058553 9.970454448899382
Pb 4.28226038407702 7.991833182732246 9.805041353152868
Pb 7.444526337349081 8.086746342783702 10.224325974051895
