14
Energy = -45.2343453 eV
Pb 4.642050741702948 8.765766003253097 7.649610630511562
Pb 4.807467644300622 6.000632629121772 2.93596516802681
Pb 7.176944830896166 3.9400420512818846 3.7271320782038204
Pb 5.093899459672964 8.94188602628804 4.447351437020575
Pb 7.963612172492905 7.2014626691359735 3.650093114924559
Pb 4.132087923160715 3.5998024948410423 5.048319608832769
Pb 4.326988118601977 5.134611790627284 8.434506688408113
Pb 6.84316630973233 2.6834895837755406 6.6970577208961
Pb 7.56388907418927 4.415577031744972 9.139368931658275
Pb 2.905915638150381 6.61115804633697 5.749833530743752
Pb 6.105046995008857 6.1245758279388784 6.093608665790643
Pb 7.15999929139031 7.4675278424842135 9.226903424604934
Pb 9.150549077858456 5.634517413550638 6.397577091310999
Pb 7.717563132869531 9.068131709506057 6.391852674023946
