19
Energy = -62.10929021 eV
Pb 6.5489569931300196 6.935105976633698 2.8712207501712426
Pb 9.567029248735745 5.990995448139649 3.7584548752181917
Pb 7.266000393038973 3.8148182437832827 3.581201216438288
Pb 3.496950474497794 7.0187291988370815 4.7836679283755155
Pb 5.348435671418538 9.6097452017714 4.125562869892225
Pb 8.557827816875088 8.865313104854808 4.845448402312632
Pb 3.60390439988404 4.064936569589829 6.355681081274464
Pb 9.50977801135565 3.5696663717732298 5.900773284466416
Pb 6.365049307472544 5.831203010636364 6.035547305554882
Pb 10.39024341987257 6.573553083622438 6.784989584805656
Pb 6.6474146932366915 10.68513889381041 6.830811513966513
Pb 6.5742818985551414 2.545550831582939 6.590651713607997
Pb 3.6158038954773573 9.59755690056868 6.766654858312141
Pb 7.752966412789192 7.827854708314839 8.036568193828309
Pb 3.498366576216064 6.632451647395695 8.393399798308279
Pb 5.0309707333575675 3.7632907495301215 9.111094081562836
Pb 8.32518932155352 4.493552222650912 8.833360191820312
Pb 5.224504544556265 9.296470487368376 9.441947486968909
Pb 6.1763261879771445 6.384067349136146 10.452964863115241
