17
Energy = -55.14244449 eV
Pb 5.566225821761702 5.63952879071868 10.662887973278012
Pb 8.492131931943614 6.418182427153942 9.52617036945788
Pb 6.771716750900004 3.946242796892351 8.118293690041874
Pb 3.2116495486175727 7.4974373818579485 9.470108878490956
Pb 6.209129497907547 8.724269206669465 9.595201836454223
Pb 3.5434377760476816 4.3126058467291895 8.607714548353202
Pb 9.873971601455459 7.274716946608177 6.72567094390721
Pb 2.4132356863375093 6.541983219952771 6.500234788936151
Pb 6.465798182964963 5.267325177192656 2.8841708327350903
Pb 9.228007588319628 6.2952649401296545 1.8330205503881094
Pb 9.031509410150651 4.936114828932663 4.776236055477
Pb 4.6750380412085635 7.64431426078696 4.267361953894036
Pb 8.089182972021147 8.185317531902522 4.166764815600962
Pb 6.551248768707372 6.896199728359862 6.911177031419244
Pb 11.267462398858335 7.148281475154828 3.875039966191858
Pb 4.798582231727797 4.5074671921278275 5.58440641538215
Pb 4.3116717910706885 9.264748248830116 6.995539349992276
