11
Energy = -34.55597678 eV
Pb 6.315105538611487 5.18056990193889 3.2823902309473465
Pb 4.749715090026643 2.8839307804528183 5.0111241254538825
Pb 8.331762840644645 7.582483605040378 3.9105937267207262
Pb 9.134936713089099 5.1622172206402155 5.470460724260686
Pb 5.25393453564827 8.291062176868175 4.414775967717328
Pb 3.4246762137755846 5.6790648815912474 4.838601449665159
Pb 7.563386498319681 7.983148572281157 6.991648743176382
Pb 4.290904133288319 7.616639261858285 7.408874372422195
Pb 3.617669998430229 4.433179007943834 7.875284222723177
Pb 6.2110010183826105 6.1567159243810385 9.348715643954328
Pb 6.533117347626939 4.457198895465152 6.873740720801785
