19
Energy = -59.49970583 eV
Pb 6.31294302093204 10.007854654294913 4.185228042443265
Pb 5.478328198900688 4.854887870884011 7.2278413452805825
Pb 8.832304290585675 10.688101378231842 5.827942594825702
Pb 5.830332540525729 7.225485493921333 9.300166475662255
Pb 11.683712206954212 7.707334090635464 8.813468903256718
Pb 8.391286183740517 4.954545884024705 6.128780125309438
Pb 8.500747834671289 9.293356180267464 8.825027574385503
Pb 9.949792838764438 7.659672474548875 6.121910808180818
Pb 10.385348796261287 12.394433896401303 7.877242228436908
Pb 5.36077891601847 11.40166339023304 6.715921803292294
Pb 9.984994287770524 8.758208491087153 11.8380649403257
Pb 7.427878446077575 12.557919949915263 8.819887222507614
Pb 6.5288683245617625 7.732708304934092 6.254738773358739
Pb 5.16492210563807 10.246156940036107 9.675294028341678
Pb 11.84365296385934 10.715090190463874 10.11217778727334
Pb 11.024656069025047 5.884339321237524 11.371381649677087
Pb 7.643745182248009 10.958183760827891 11.558265882115768
Pb 13.15190773222384 8.338366810112552 11.567340139143925
Pb 8.720123677552571 5.846726532864932 9.10844975782306
