13
Energy = -41.22407077 eV
Pb 11.916534806399131 8.61517111636419 8.875457589082602
Pb 11.964589844531687 6.708164102469662 6.422468250470143
Pb 10.003120522782112 9.27615995961517 6.36500157303866
Pb 8.82557508423379 9.666023675838716 9.398132249241485
Pb 9.562266151567483 6.485079876977476 8.551569971763103
Pb 8.855484671832413 6.422151780810499 5.301999016160634
Pb 6.854948267287043 8.42589505001591 7.075792570184702
Pb 6.70703366253572 5.0418499881923085 7.647490307615486
Pb 6.713575024759852 7.090144069345241 10.231524946570337
Pb 4.906531642163623 9.662267420530327 9.387405356238931
Pb 4.935476656920499 6.494255352950293 5.340749824980213
Pb 3.7370479033550636 9.247339377850045 6.462458776856673
Pb 3.976965801584761 6.692713963938023 8.450511585152368
