19
Energy = -61.58141202 eV
Pb 6.667758829972061 5.27209255535181 11.285926251133022
Pb 9.829870572946108 5.970430064183866 11.27339055879032
Pb 5.002989394108319 8.19561247781248 11.288116548473562
Pb 10.038859095166707 9.185583972113072 11.282814052859022
Pb 7.153024135752985 10.583185639183188 11.364682836648818
Pb 10.018401823039259 7.161922619421727 6.459632220099295
Pb 8.406865147346595 10.041825179865086 6.430533153303301
Pb 8.224941488931565 4.956122947730281 8.325441388839312
Pb 5.606146577660116 9.733145280546221 8.345135482516303
Pb 5.365271569596171 6.490189303277543 8.536974704899169
Pb 6.824038667041026 10.239615959532534 3.4833215195796132
Pb 4.631035223640935 7.867071465246855 3.415918981733132
Pb 9.773648213537827 8.905627816896494 3.5783735533388334
Pb 6.1819016305062675 5.068489873501693 3.4650603075984225
Pb 9.356403575766139 5.679625564058212 3.539334640870088
Pb 7.71112245895966 7.790118340017945 13.003464147307241
Pb 8.077808359998105 7.99022317329197 9.208301397043845
Pb 7.0530300128940455 7.399681225926485 5.400727597651758
Pb 7.41677170126188 7.561439538519603 1.8020006160399
