11
Energy = -34.97091015 eV
Pb 10.299696174059603 10.18589341724016 10.217850082371319
Pb 11.274683014469879 8.284750699952777 7.410861739820681
Pb 9.096766989873885 10.674272814186416 7.38590239506319
Pb 9.885354924278383 7.1021143102764315 10.080702939846134
Pb 9.319849389977417 5.677000081024859 7.295493068815452
Pb 8.752729177376448 8.260898090193379 5.345439934204639
Pb 7.011780630134163 5.840688695577638 9.714978070340187
Pb 6.3121563659003685 6.627044840310585 6.659138120283179
Pb 7.3246284325873425 9.267888349354227 9.869691462010186
Pb 6.123958758581394 9.85184124211718 6.691647067859677
Pb 4.70188984339844 8.063228466246771 9.04158370947537
