15
Energy = -47.86933752 eV
Pb 7.85356873971096 8.832664494215676 11.007869384336928
Pb 6.6942275805304865 5.699788898479803 11.021576544808074
Pb 9.715840921191239 6.435631690614097 9.655896351851702
Pb 7.219162053762155 7.438069116509116 8.039285906198275
Pb 6.3884138603355565 10.431370461613366 8.503784592855153
Pb 9.796869818170876 9.498698518918461 7.646876078405336
Pb 4.67201149245304 8.130596902186271 10.318339642178575
Pb 7.601680548557838 9.217338045413634 5.178797388382096
Pb 10.74712440620758 9.31960683570989 4.251265938115089
Pb 7.7440203131683205 4.336919786778508 8.097739034481226
Pb 4.425230087998118 8.327493713285305 6.945311894089108
Pb 9.770463331969221 6.665676681548306 5.93705899816705
Pb 4.612629652104506 5.371732691229063 8.45522380707162
Pb 8.978152131504368 7.367927949116277 2.8429826244563388
Pb 6.616470484985695 6.050845121297351 5.090321883553715
