19
Energy = -60.95635126 eV
Pb 8.145878652596886 8.641632767248037 2.694462501150042
Pb 8.813848306430085 8.453792941912411 8.351253423084437
Pb 11.089310887947834 10.902525120264746 8.069773783017967
Pb 9.789426801168249 8.955757542883092 13.960681558757189
Pb 9.403565378771827 11.840448701709246 12.875061077126167
Pb 9.7075536045844 5.365557294550738 8.17040939908496
Pb 8.442777247611005 11.738007621656328 9.805569095377855
Pb 9.321863992528122 9.789969329924347 5.367165611834052
Pb 4.93366015734017 7.6497252092095565 7.925759312103727
Pb 6.499270151499178 10.356821690140697 7.236365482793129
Pb 9.289642880857322 6.583146353868579 5.06687559081611
Pb 6.526626170672392 10.90005403947662 4.1297300149890015
Pb 6.813967946944586 5.306700890118677 6.843203168502213
Pb 10.020541899362316 6.791205110358305 11.406898486252544
Pb 6.086617511820659 7.818688205758226 4.977834651634563
Pb 11.06185749898774 9.897895187396195 11.16160434176467
Pb 7.615116778950584 9.22521544554749 11.635200785522388
Pb 7.053761453814563 6.18932818177014 9.970535935390968
Pb 12.001167597242597 7.9882276664901495 8.888078978883255
