12
Energy = -38.24333207 eV
Pb 7.341131161952289 7.362840451118798 3.7217496783222397
Pb 4.801262580314809 6.007386554042127 5.1385174111255
Pb 8.18400908042981 9.928160460756574 5.382324469329048
Pb 5.044310304383028 9.31745244716894 4.952895391147821
Pb 7.96218242241059 4.504560281645422 5.427632077104683
Pb 5.114844014188208 2.9223032157620654 5.892507060723235
Pb 7.457875642147695 2.494083503598355 7.843188936674615
Pb 6.123234016558639 10.208333006214726 7.8672791304914895
Pb 7.380205799867482 7.434545935516117 7.085442228474164
Pb 4.05443136540684 7.795564328338486 7.675861958041143
Pb 8.93644944820597 5.0591736271592085 8.553096150198584
Pb 5.600064164135169 4.96559618867942 8.459505508368302
