14
Energy = -44.58225836 eV
Pb 10.545903529910943 8.903409952693643 10.362871151128562
Pb 7.639269403647576 7.456074103446143 10.940110789221945
Pb 9.646681930929283 6.230470883788634 8.677081129897712
Pb 7.876361960595418 10.534038859354546 11.125548318816024
Pb 11.3058352722175 8.721913209935337 7.2530639934423435
Pb 10.971764346686019 5.973765495296671 5.7435242795573895
Pb 8.074285612321727 4.741853745304007 5.956821701619696
Pb 6.159978906272555 6.080045738817003 8.231169739800949
Pb 5.5659519267437805 6.481484395871183 4.996556560319295
Pb 8.49283100628429 7.96853057953396 5.305238091013808
Pb 8.508428995900836 10.15378130990927 8.069332615790215
Pb 5.396007224822089 9.318195605376616 9.403427095183234
Pb 5.782089658791707 9.566471983020156 6.14405114581707
Pb 3.610774613699124 7.6469287528082015 7.25011913471367
