13
Energy = -41.37601327 eV
Pb 6.219456846053557 8.391475822825162 3.718396879143525
Pb 3.9084131834387383 6.574156911723916 8.763339015435866
Pb 8.71228989322995 6.426911049625731 4.647004362799009
Pb 5.70638690204968 3.809311176708618 8.389919938157666
Pb 4.4787688909420575 3.366248173671946 3.3200849864824846
Pb 3.618440597141004 4.842037325295754 6.014369564648316
Pb 6.715005976295518 5.487364103720793 2.391577173063985
Pb 8.74093797384883 4.981569533196887 7.732707762802403
Pb 6.948582649964268 3.7454827062264853 5.303670477818636
Pb 3.709367435291326 6.477688910002265 3.0321503188863486
Pb 6.876361596410802 6.399085746782995 9.875396114207888
Pb 3.612968852925395 8.105523428568585 5.734064831887476
Pb 6.433663584973507 7.0737897988314336 6.757962347999107
