16
Energy = -52.26470044 eV
Pb 6.984635859288147 10.838000707381454 8.391006774443705
Pb 4.814739592346087 7.874831977424003 6.635394923578355
Pb 5.060715666169158 5.533997824153116 8.911195942469135
Pb 8.333526253821747 9.202234994806297 10.92172621964769
Pb 10.173113792384207 8.366635082577409 5.491110887643394
Pb 6.340969199818684 4.593283237401945 6.094681480228392
Pb 7.526542112772583 6.8529842049860905 4.2170785710525385
Pb 9.683525270541978 5.161342701945698 6.0709317632650555
Pb 10.39505459519817 6.58505823681667 9.136626473484892
Pb 7.706968184250616 7.4933829778329635 7.782366508010159
Pb 6.968380254192404 9.81123989523708 4.962937745314525
Pb 10.396617338017748 9.903101214506009 8.715631767130372
Pb 9.315713941453941 11.398626451993325 6.222149193616616
Pb 8.196664288419088 4.184254147959444 8.760297746621207
Pb 7.356254055727483 6.196714596854897 11.1485571496988
Pb 5.220190545345422 8.565749064173138 9.994266818777167
