14
Energy = -43.86427059 eV
Pb 5.468726635352528 5.912118830552822 4.7507615030888495
Pb 9.030776109489377 5.855346077557518 4.698083056182183
Pb 2.253860964678943 5.735279164736558 4.831827001117158
Pb 7.212532930084033 8.811921638157068 4.8359102863112104
Pb 4.032761714132575 8.795447081832995 4.817164734247123
Pb 7.275358608540505 2.838224933764479 4.714070350798896
Pb 3.808920566647508 2.961581713534172 4.866525585752166
Pb 5.67441436223803 7.835936237118825 7.6043310006372
Pb 8.916921415085454 7.599237767191903 7.236611741704061
Pb 2.4328110689594173 7.6904659301564315 7.331692937230066
Pb 7.502225926075909 4.740958111526422 7.545158357694057
Pb 3.9115293969644003 4.802756348681043 7.61977496666424
Pb 7.279547100009865 4.84143957572572 2.3994627618640374
Pb 5.716083188068014 2.095756275173107 7.265096003653981
