16
Energy = -51.94942235 eV
Pb 8.552083997515796 3.6142785630232592 5.6333163189426045
Pb 6.310143728754427 7.232773974860628 3.326492435305657
Pb 4.221465306394045 4.942836195651168 3.993426185452018
Pb 7.945340150109296 9.668497645982749 4.916368042951522
Pb 4.98265240050773 10.05108359092109 3.716096492312024
Pb 9.134103784773927 6.79911010456346 5.207913151005277
Pb 5.410128984069149 2.7676443847145005 6.0543082438800795
Pb 3.69268179445914 7.736412717109268 5.395103413268267
Pb 5.440124278486707 10.150080107572103 6.89792474812712
Pb 6.314599791920438 5.868182469717224 6.416785674537818
Pb 8.17164857549689 8.557979954286528 8.097638325224915
Pb 9.688481958425534 5.49953047904944 8.15647317919766
Pb 7.529695865092151 3.0918225454388466 8.642098908986505
Pb 4.814483604361708 7.6400570961085705 8.631583952895243
Pb 4.585964103295709 4.391358192566346 8.783880910157423
Pb 7.2064016763394685 5.988351978436499 10.130590017757399
