11
Energy = -34.83464507 eV
Pb 7.933294965551874 7.546685796072011 4.924367742385866
Pb 8.368443027675816 4.3071233022348885 5.244319774460128
Pb 4.541859981647677 8.2294286085265 5.61544499270834
Pb 5.747255810140219 5.384940720882068 3.7061088881266167
Pb 5.660121118245905 8.271697128089537 2.7893548688309244
Pb 6.399878841544364 6.097615825178335 9.858452170604242
Pb 7.475879559648334 3.4585882790264093 8.21171380219291
Pb 7.004330198163296 8.882245775945071 7.883360376939473
Pb 5.386388497642732 5.243386066406167 6.879527914116681
Pb 4.09427813894159 7.820078912211438 8.589527526135026
Pb 8.888269860799523 6.258209585428758 7.797821943501118
