16
Energy = -51.18732589 eV
Pb 9.043951470096195 11.886134128592023 7.892866177781303
Pb 11.074884773831265 10.966382218920035 10.490351030809023
Pb 9.588797371880656 10.706475837488057 13.237000932805543
Pb 8.061233895306643 12.264059309699677 10.852675294025902
Pb 7.207310667866778 10.216063725542066 5.708315222453811
Pb 6.314968389141979 10.123367449365189 8.896504689958636
Pb 6.864375569584273 9.504301018688995 12.033540775098501
Pb 9.447446562385549 8.824395575017828 8.336923907905488
Pb 6.1851497257378485 7.472217239034633 6.724814339374617
Pb 9.19200020993861 7.639387214819267 5.042095884920277
Pb 12.368444213743317 8.150783918164457 9.919535812971153
Pb 11.803028695706615 7.152904036598856 6.929448154357883
Pb 9.801655439259445 7.999237002026002 11.651004748847809
Pb 7.392991058086719 5.1047621343986025 5.2173300315263775
Pb 7.199779508192048 6.997570043375352 9.895578387478942
Pb 9.22340901361043 5.578795106724127 7.72291367883662
