17
Energy = -54.45547434 eV
Pb 11.075177325336911 6.154224202433362 4.225526710661467
Pb 5.263654755109002 7.541383893965044 9.665101207502058
Pb 8.992126272101313 11.29644740456039 12.011198696067543
Pb 8.78565212171038 8.447431247111178 8.428776549714712
Pb 7.95202073373713 7.733267870934505 11.52057993871495
Pb 4.753040993679173 9.927260676851452 7.674768434039131
Pb 10.368650017638311 6.068649449075123 10.048581586418058
Pb 9.7106422586341 11.77479461664691 9.061068269751738
Pb 8.776885990242892 5.509933138580559 6.082892924597219
Pb 11.894774014152267 9.92199664689665 7.807167719550082
Pb 6.526659545347102 10.627890518534992 10.196709153188388
Pb 11.031984554976654 9.195151667836146 10.8955415552697
Pb 11.775000259529 6.845124311620619 7.148545012412538
Pb 7.582527892108991 10.935329781432197 6.663473333691002
Pb 9.755573324506026 8.774750321046058 5.234366755422783
Pb 6.277436845814764 7.533893435410365 6.325233085137293
Pb 7.354552362041435 5.293518250903574 8.864132680143568
