15
Energy = -48.37257168 eV
Pb 7.465809012442513 7.834297564972641 2.67364737872516
Pb 7.196774187177195 9.924632620347198 5.063798786278876
Pb 8.594357943874288 6.789994565924201 5.376070114717875
Pb 4.490467863314361 8.818610084063115 3.614189599316894
Pb 4.303010086703898 3.718887461196079 6.059681773578197
Pb 5.66291367702453 5.679540283389386 3.9269668219079694
Pb 3.03998914774497 6.81280603718678 5.599502323113512
Pb 7.7279338678968195 3.647336961768956 6.36207089502244
Pb 4.504218930258942 9.45863750791012 6.805834366019822
Pb 5.661366355550247 6.437506357462498 7.2651409560557205
Pb 7.737032477668939 8.735401541731369 7.953316351673519
Pb 9.776497834524367 6.152739685108843 8.25361574965062
Pb 5.607433584401456 3.6467610807901325 8.937833506010223
Pb 8.654750384081797 3.5271204151942634 9.42512715309971
Pb 7.077444647335838 6.31572783295473 10.183204224829481
