19
Energy = -61.3100525 eV
Pb 4.586282058825808 3.8902507463201745 5.79615865155117
Pb 7.7059039803015725 4.198611379695071 5.9031606201570925
Pb 5.740847371506326 4.37707210294693 8.704032535743771
Pb 5.697695390461273 6.770350415129425 4.6275947085493625
Pb 3.4121144332075684 6.565574475545346 6.938690674959583
Pb 9.250492783448113 4.869788138414973 8.716329316858124
Pb 8.888088581822757 6.5221237709844155 4.202894822245998
Pb 7.236735925861333 5.956376556270567 11.05080929425933
Pb 7.446171484377167 7.2812389090043474 7.791131336248062
Pb 4.662547616939547 7.4075225103026545 9.806205960178449
Pb 10.473948286039276 7.763867165183841 6.629593135759063
Pb 9.798364715868438 7.796923000595542 10.36520752129505
Pb 5.172561538834996 9.345915017713075 7.0544643960566376
Pb 12.22987927172217 9.277342570814884 8.586649071587622
Pb 8.031233536363231 9.532976960159791 5.104267891429408
Pb 6.986187416465259 9.623876280480825 10.305660062514471
Pb 10.538021112247261 11.111827343545468 6.440749805043376
Pb 9.790808900261398 10.96200156774483 9.520298438392427
Pb 7.536470851972181 11.744639584725526 7.506604393088714
