29
Energy = -95.09198502 eV
Pb 9.915066869560789 10.133063568227222 12.655524643140241
Pb 7.04408633252529 10.462792856518613 14.15163046323606
Pb 11.858254375311684 9.682571115438078 9.837807187561914
Pb 11.52167351082111 7.017254916547864 11.717889322316022
Pb 7.777287753422479 12.476647143780873 11.549417119125835
Pb 5.091794783824568 8.194065311775605 13.017762455857287
Pb 8.941604121629723 4.780727945845598 11.66754267783097
Pb 12.142690672916352 12.22696585484207 8.016288433708711
Pb 4.807407713307107 11.229815216709364 12.01359655078669
Pb 8.412850955345881 13.507838413335353 8.095816679937649
Pb 14.527941113102058 9.792092806976706 7.989427220431559
Pb 13.193160826476285 6.857399235772156 8.707755027273162
Pb 8.235626056370643 7.500285673307185 13.527425705007929
Pb 11.561523729971746 8.955460119209647 6.579409489708576
Pb 13.516749864551816 11.087627588753437 5.381412566258772
Pb 7.216679563221702 9.288029435308792 10.86750587605445
Pb 9.48574222414162 7.074241982292521 9.211111912803222
Pb 5.593065916261192 11.846968901927571 8.919475772184724
Pb 8.900955095743697 10.399088764318497 8.182500195107151
Pb 10.088657695975767 12.095736654151054 5.507548176562402
Pb 6.693815963557559 12.233714672484432 5.80694690899544
Pb 11.453179404465676 4.26430769984653 9.65786510228376
Pb 6.4371168008233335 6.086083930758487 10.009008850256597
Pb 7.529862645522078 6.422795426572228 6.702480775954892
Pb 8.446742695802358 3.8406999452372865 8.603087695208316
Pb 5.851420480309937 9.1541982247715 7.247076545585791
Pb 10.708134285958348 5.454222517167595 6.7256132571769545
Pb 8.400083160189123 9.29067173885698 5.0081971093430315
Pb 5.393963150275091 10.035654454402565 4.249773376362978
