29
Energy = -93.93975508 eV
Pb 8.830511843242661 7.716183622138449 9.78098507274982
Pb 7.79489528021734 8.460798711945158 13.30971302603583
Pb 6.209565984635829 6.186824301201786 5.697650375608424
Pb 12.061032798807403 6.768671386230847 10.408528425440403
Pb 4.294078885463898 9.930390738629171 10.279805711081448
Pb 9.077501091532099 8.709875135094217 6.499516135331752
Pb 11.561430846833861 6.21482857108749 7.090900839194811
Pb 6.210476569690801 11.85171404666401 8.187545637099856
Pb 9.778755809696841 4.507251970177072 9.76360754428309
Pb 11.483979435814346 11.483777832558285 5.824487188828478
Pb 3.4166032436702487 10.527870727217678 7.357084637510419
Pb 12.691869498234036 7.062411070851564 13.517835413197062
Pb 7.396564037803646 10.682669751049712 10.985252329892829
Pb 5.717607505398977 7.319225165785761 11.148778268182804
Pb 10.506929165247458 8.675338166594388 14.974009283303774
Pb 4.246008434856221 7.465048458587716 8.02262203739197
Pb 7.248937695570807 8.008261070558435 3.2890519774168503
Pb 8.832072902641396 4.558980585544351 6.647844401415491
Pb 8.11100096252294 11.908723117968306 5.428539650738736
Pb 12.449685954702467 8.661421109070028 5.067313067405494
Pb 9.933292445561223 13.927090840829901 6.916311116577078
Pb 5.699323088224858 9.556201114713225 5.565719419557724
Pb 12.14525219511553 9.323928963994776 8.301298475889244
Pb 9.801572769450223 9.88966170447389 3.395765058363503
Pb 9.78612868933919 6.097597549965678 12.811689149550757
Pb 10.826855489142543 9.42540798826227 11.943529127725629
Pb 9.932483590638016 6.508647868297167 4.177906835861943
Pb 9.62343654537027 11.413348967778356 8.698897110811107
Pb 6.6968663413825515 5.297521156288243 8.937411412937717
