29
Energy = -93.69298294 eV
Pb 10.063644199238807 7.8484796279601134 4.967013113598674
Pb 5.199307509375574 10.358036000199133 11.079426484374311
Pb 11.78776351989058 5.102063296250432 9.169765990253964
Pb 8.803595461967245 10.478320701906469 7.084550332838903
Pb 8.101880027822757 6.217771171056582 10.226500533323371
Pb 4.222006566619296 3.9337856427546507 7.038531432758229
Pb 3.2169061918914017 8.61187898520235 8.988721172309825
Pb 12.968107449178644 6.523349514118104 3.978188018463373
Pb 3.581970872367932 9.870146473828457 5.866472847956048
Pb 9.058266450030931 5.4805944768659325 7.006052986819441
Pb 6.901105687969007 8.108696563737922 12.71502520395764
Pb 15.476161094874428 7.70598534579788 5.137068874794402
Pb 6.108640012032375 11.892402992642642 6.011869106473776
Pb 2.7288826610398877 6.545990111704604 6.338894078046919
Pb 3.74908276786492 7.441706590778142 11.928897992671363
Pb 12.75982408926621 9.335620334547464 5.904388888548546
Pb 10.284697134209765 4.895879349284663 3.8502629771100865
Pb 12.034712015594668 4.2782360976666 6.253520067219748
Pb 8.457849541772681 9.579705912693665 10.294388746390691
Pb 3.9292653813701532 11.81867770451127 8.428778626500227
Pb 5.953568838500984 5.1729736689839845 12.36158805943537
Pb 7.048434863629145 12.333789683236537 9.110178199131553
Pb 4.98524672234475 5.700523975062436 9.442597639136551
Pb 3.970504204324537 7.693131011413332 3.675746915379852
Pb 6.373596923864386 8.317111243234544 8.146045505540089
Pb 5.9190531782962 5.774606664995112 5.306782512801988
Pb 14.004207984835238 6.646809941985133 7.524089113754826
Pb 10.940751941358073 7.93482870755537 8.15006383670443
Pb 6.792176671768251 8.891469281525582 4.9328452069094695
