28
Energy = -91.97303602 eV
Pb 8.053053346716865 3.733625529961069 4.215968379109831
Pb 5.706480453214366 2.947804806842648 6.531403389992878
Pb 5.282893328760226 5.5389442071836115 4.489679550194226
Pb 8.820590629690537 2.33210899626423 6.977504165060901
Pb 8.309882966934124 7.04025520449724 4.033682586774299
Pb 4.48230253830607 5.7570813894018995 7.821921038291691
Pb 10.685432276113387 4.954515809949552 5.811304883595626
Pb 7.716283143492976 5.668957797364899 7.017167425319072
Pb 5.313740742819317 8.643716186348644 3.1892398556664188
Pb 2.989757296904015 7.79207219501664 5.420518503962612
Pb 5.747226724167655 7.000439630566173 10.595997452627051
Pb 10.36819023225815 4.086242653006318 9.155811663331379
Pb 6.1465236425743335 8.70719167251744 6.520036399869198
Pb 6.953889572158814 3.6618140834256607 9.516698885509934
Pb 8.682972986573208 5.666470103212034 11.51016164382308
Pb 10.415912833665075 8.721733252333713 5.901891016737088
Pb 3.720555468955338 10.900136243762791 4.900151591876563
Pb 6.991394827656241 11.072651727741663 4.431390026716607
Pb 3.378639310627075 9.686464015186692 7.977384761224413
Pb 11.9171949856583 6.851791466998821 8.230709628665696
Pb 8.718195631110785 8.171760941422104 9.012407778319359
Pb 6.187571426473199 10.34292084531357 9.965096393405583
Pb 8.733166683510195 11.29212505753005 7.4455971449481035
Pb 7.946021679389756 8.652241943202426 12.353057799161478
Pb 11.034465998452605 8.192277397820066 11.324175436484097
Pb 5.513927967795608 12.1066756889978 7.220461411599199
Pb 11.63197846237844 9.993432580750545 8.650930924817315
Pb 9.376210322885616 11.043435136591071 10.71999698058812
