24
Energy = -78.36954627 eV
Pb 4.638478348835787 2.625980248788748 7.745677448371857
Pb 5.547147858944024 3.3164825843270367 10.617867939969432
Pb 3.49029244325354 7.0025078470861395 6.063371199732847
Pb 4.472265036899627 5.699524693272537 8.824467681838284
Pb 5.775135512464611 4.776252562909324 5.5817760883185965
Pb 7.565992158674025 3.7895898444880776 8.098631618014826
Pb 3.195554545965789 9.351175869398084 8.407534169944153
Pb 7.034114102212775 6.21081181545151 10.73893204974102
Pb 9.168483357803959 5.430298173086016 4.228867459567194
Pb 6.282985707592053 7.940755242319264 4.371718843937242
Pb 4.040176162059321 10.265376836122488 5.4040253326877385
Pb 6.229711947893478 8.642740260338368 7.512245422005987
Pb 9.927487969500522 5.151274626781232 9.793632040817862
Pb 11.127245496284376 4.525356175256494 6.751811411032779
Pb 5.112286656634979 11.911253013257616 7.96472570088538
Pb 8.993301951151222 6.959486676588521 6.934700521135024
Pb 5.820316730499935 9.705697992310066 10.411879667914011
Pb 9.463775310789035 8.787576143183815 3.969105257548105
Pb 9.375493864030418 8.503711716377847 9.733278588733294
Pb 7.256403051244039 11.07171419746056 5.457374369293245
Pb 11.92768034423944 7.165627118379643 5.071799448395255
Pb 12.152605129904968 7.196768972719157 8.291810569924225
Pb 8.147057018544794 11.376702658842415 8.619740605842322
Pb 10.729336322390933 9.816142516908455 6.837465753402583
