26
Energy = -83.27160966 eV
Pb 4.483168673935574 12.418399393718072 8.373546415865372
Pb 5.122486382275501 8.088947139688592 11.510277733242345
Pb 3.7288118506032846 9.450157682100594 8.94475349495293
Pb 7.522832195385887 11.678063353031988 7.931450583493111
Pb 8.26523572250888 8.220137565881085 12.258933562429366
Pb 3.9718181851775354 6.203599514819621 9.2152265900089
Pb 4.954393396558703 10.454622766271342 5.963382596246239
Pb 6.331275714318008 10.97211256245189 10.828911223289202
Pb 11.588694915137353 8.332654601098023 11.986466896669128
Pb 10.777948997606886 12.118457927691976 8.217478481859532
Pb 12.949758563945268 9.919956325129396 9.719985041179195
Pb 7.594748608458505 8.68736468482719 6.810962569764234
Pb 13.026194127828452 10.72770701535432 6.698765827073417
Pb 10.000707697494304 5.541268368779393 11.333562177200644
Pb 9.506748399383959 9.695805294421435 9.74447940102744
Pb 4.267681266922657 7.071641958231249 6.16414516744832
Pb 5.959409150486598 8.424141930635047 3.815953853582626
Pb 7.305530966686335 6.869830733559435 9.442804068971276
Pb 10.924359088097525 8.484549962565985 7.099202529905625
Pb 12.290011562923356 6.639350143360705 9.316832752513562
Pb 7.12718319834214 5.513873088031036 4.54129559316267
Pb 6.03336688578214 4.439937324407215 7.549179861763818
Pb 10.459165476311227 5.3573137502308885 5.316172939596436
Pb 9.538044477768633 4.925205804318974 8.27005829707383
Pb 9.23822584562582 8.057531298179113 4.210777980003874
Pb 8.311161641494259 2.9863328022735045 6.014357352735287
