26
Energy = -84.6324245 eV
Pb 4.7588187811015485 5.762572605945064 4.025295303155684
Pb 7.069140057490333 7.098445185266605 2.3901072270208954
Pb 2.838266425216937 7.525690278061695 9.10840734626465
Pb 4.868121849077176 9.001470818598618 3.807034929538525
Pb 5.933397993360963 4.6109336457265275 6.932771708902057
Pb 7.748585669845039 4.294439174703028 3.976342088920678
Pb 8.82992513342831 2.879051809069113 6.7659387759542895
Pb 11.09196048838132 4.292040967328399 5.0113602592896
Pb 11.235689251147669 4.543080152617084 8.193420187456717
Pb 8.249747598554238 4.675504085342928 9.376086375411514
Pb 8.704552684670295 6.482741026651668 6.499955584714576
Pb 10.170693000496534 7.073303708587951 3.3785291490458556
Pb 5.843466928387366 7.292608223583271 10.285954350149533
Pb 3.329191144071228 6.229631845097922 12.008668195867324
Pb 5.454302014297759 7.785348080230289 6.6629930264380866
Pb 4.758521589412504 10.175594071651007 8.891222008585155
Pb 7.822575982557425 9.39447270316106 4.653572956903565
Pb 3.4637899155849134 9.430393619096565 11.691530556583622
Pb 7.952932485685592 9.503000739733665 8.166083273771632
Pb 11.083492239097842 9.893789819216334 4.7404165554609285
Pb 6.659104234100562 10.151948572838169 11.544761976397204
Pb 8.92435603627693 11.805476439756355 6.233596923209363
Pb 11.257098902203063 10.232428189237119 7.845554060964534
Pb 5.583091413994036 7.803472201076464 13.471565216291332
Pb 10.133397621427433 7.4853134429086525 9.389343793284544
Pb 12.07580904785685 7.285742654821644 6.508541846129486
