27
Energy = -87.13876319 eV
Pb 10.792571717975402 3.140796929524483 7.692749233890596
Pb 11.228846637598172 6.040275609255112 8.888866853189407
Pb 11.904363092525585 8.237450004743396 6.654142629800751
Pb 10.428670195759796 5.561412902944247 5.674069266879477
Pb 9.945045200864168 6.499484015542677 11.919070772762444
Pb 7.745815800243145 4.1210684617135644 7.010864322060612
Pb 8.830947085599313 4.113006429558904 10.053728663790384
Pb 9.382812766386087 9.115550550197344 4.773279404288636
Pb 9.454355690742483 9.449442770187625 9.701356426282326
Pb 10.89365431721744 11.205961935291493 6.913113678568519
Pb 7.550583449314647 6.322490285622952 4.4739604752943585
Pb 12.26567691950075 8.629726228990739 10.88483520544903
Pb 7.970396167516732 7.542248625469842 7.584039924331258
Pb 9.504664533692548 12.15361971910153 4.145206442673139
Pb 9.980223664604003 9.416740648285241 13.201041005759029
Pb 5.95360950175735 5.580405303396747 9.570216597290592
Pb 7.118501718960185 8.313930575284518 11.733454958882469
Pb 4.8414334324775385 5.990911620904404 6.287184960458916
Pb 11.172678342914889 11.678127778977677 11.286298680938446
Pb 5.747367504452204 9.054589482918521 5.03457818719696
Pb 9.068293690032045 12.795447274902935 9.040477552703967
Pb 2.886970360289741 6.38884972134321 8.894526171536217
Pb 7.618040730539205 11.701483801792532 6.429171239941977
Pb 7.95162600404437 11.475237192539764 11.78866914976611
Pb 4.965574728841595 8.67131355180625 9.249310925066029
Pb 2.9261854367190088 8.535322763317009 6.579862247905602
Pb 4.7154584114873925 11.109472918443373 7.380292125347476
