24
Energy = -78.78019922 eV
Pb 9.765460336247813 13.979471861876 8.63548426387543
Pb 9.796607323102915 11.647175540563248 6.14603371374025
Pb 12.802446356367874 13.981215329895562 9.969734395909816
Pb 12.394464179358092 13.697378339234541 6.681373692387151
Pb 6.86500965138585 11.935800203224257 12.03399476439709
Pb 7.286953487487586 11.829797609779083 8.616936991177251
Pb 5.90286298000323 9.456043716921245 10.118700956862124
Pb 8.05294336218361 8.578163408095355 7.833637432448787
Pb 7.770100288351162 6.7940919782710365 10.64401629935968
Pb 6.944337061541246 8.770603342251157 13.085321618576337
Pb 9.243575463198342 9.95317682969477 10.820124277435182
Pb 10.946699947493704 8.47762737695159 6.393293618827871
Pb 13.257365690536679 11.452626057805311 11.935343569624298
Pb 9.956362892902968 13.394887275588472 11.84923763333509
Pb 11.565908367572225 11.092943204146252 8.783785363505732
Pb 14.654194516222214 11.9078435213508 8.216848480163803
Pb 13.057301096903926 10.765455171774626 5.66479211966118
Pb 11.60344511873458 12.621223183460426 14.397562484781979
Pb 13.083359348330806 8.234065080240056 11.55610747666307
Pb 13.651560572784746 8.641281126674839 8.324755475638893
Pb 12.275661602601268 9.515475529720506 14.382175365421404
Pb 9.150846719696 10.649655021532771 14.343130230145865
Pb 10.116089971087009 7.503763604899438 12.952939778381179
Pb 10.8280413947608 7.0819580320785285 9.388601121561003
