23
Energy = -75.07919519 eV
Pb 5.754646296820313 6.565574529038696 11.736609092223807
Pb 8.895284944466551 4.447708104894102 9.596753739030278
Pb 5.576750888500641 4.13855126122214 9.255420339466822
Pb 9.158018840056668 6.845902360676434 11.960876602622045
Pb 3.5974385707719256 6.71496490264271 9.257356088777968
Pb 4.696939620188847 9.523440469086793 10.188793579595107
Pb 7.301909053421008 9.536674061534578 11.922039918921776
Pb 7.557257658707859 7.505221951945479 9.045982249428818
Pb 7.408192065324089 3.9140766860027676 6.653533688414237
Pb 4.426839815840858 5.52257744392051 6.445791418770348
Pb 11.144359540912951 6.872962997372312 9.38665307909276
Pb 10.12371447714683 9.691680307763109 10.423732777636836
Pb 7.209182872834541 7.205169267391569 5.61667617910248
Pb 5.901030385226633 4.400887839958453 3.7504830354311016
Pb 4.774182688524187 8.870179639339051 6.980919609000385
Pb 10.002466129349415 5.916451346874354 6.578682319965058
Pb 7.403787838326364 10.739641728542669 8.65867032400587
Pb 9.98031688200733 9.165095481428063 7.248045983956183
Pb 5.010246298962728 7.491337924243205 3.0273386936512927
Pb 7.67052029128832 9.302362663964868 3.2252402889343688
Pb 8.202580787049389 6.212432334975805 2.4608871160183554
Pb 5.603311014253691 5.397117018851145 0.6687380360117388
Pb 6.762030784691962 8.202005517347525 0.4050642245762574
