25
Energy = -81.13925947 eV
Pb 8.88951753576781 7.488505751005729 4.111032500505358
Pb 5.788258822884641 7.163252172923996 3.9272863669580476
Pb 10.222249207044678 10.219181518006923 5.0130539536961445
Pb 10.938955905688102 6.591496473827249 6.418244244607488
Pb 4.365579030395825 4.671613235801378 5.303977873313309
Pb 6.957233024580733 9.994949858115415 5.033873657183724
Pb 7.597033099385913 4.637241570161022 5.334754332096958
Pb 8.85037117003367 11.910521685927906 7.27235707613446
Pb 12.517275277546132 9.246238249312642 7.061728511209626
Pb 5.9552459701422364 7.0233832440199375 7.2114169254855875
Pb 8.847339537992147 8.779420213584286 8.100935719112357
Pb 8.561065259298061 5.419367203541478 8.543146308874881
Pb 5.528427855026143 10.564515674685044 7.9707767572211745
Pb 11.808768738691453 7.181752775310672 9.502335303535704
Pb 6.180152508821587 9.242836166959895 10.959742843198493
Pb 3.278101525366555 5.199793366655022 8.319265980880493
Pb 5.940345515736378 3.5478631106078176 7.9549476324206
Pb 10.95411548667302 11.246298862251768 9.735972212098856
Pb 3.7031181564045985 8.16853922463426 9.267643089151251
Pb 13.781706814844998 9.697406222182051 9.814480550758395
Pb 8.863258883621917 7.30636397796794 11.414520944674551
Pb 7.233469980468204 12.231647020858798 9.964253373388484
Pb 5.808123084678201 5.825037119880159 10.46294839463564
Pb 11.583803835384572 9.093565280141288 12.116067050798934
Pb 8.862576126995855 10.565302375111436 12.201330751533435
