22
Energy = -70.51312596 eV
Pb 13.150032354074396 12.032593471515494 9.439335544408536
Pb 10.995943419917035 12.148009619738412 6.960736097856466
Pb 8.941923637947955 5.20985858427422 8.561245544841023
Pb 8.103087013313434 10.889231849801702 6.13710411417222
Pb 8.643270000089359 7.092478847272983 11.367263576684223
Pb 11.18276004950986 8.111072501573577 12.598088182242751
Pb 10.644697754816157 10.591608909385991 10.70161033028991
Pb 5.963207726782936 5.609033158494185 7.4923330028476895
Pb 8.233729768345528 13.598064178151063 8.017000013971764
Pb 7.992688273218569 7.447835539362623 5.92073375143793
Pb 11.818600431387456 6.791458820312462 9.893407797574383
Pb 6.641095509934439 4.867149676368252 10.667167523186185
Pb 5.357893594813562 8.823719301958496 7.413471047530138
Pb 8.990603724036061 8.979290857342676 8.577448427690006
Pb 7.807013748849076 12.224094594368568 11.029470225120365
Pb 5.810416752380374 11.752040301822252 8.549194309734911
Pb 12.691425826910308 9.388439884002791 7.975945398918793
Pb 6.421901261765616 9.220761791359385 10.693136576652522
Pb 11.125839211318402 7.066020680696862 6.600319127564621
Pb 4.389861232034347 7.00848040063729 9.90518174490876
Pb 11.80375232890659 4.333848714775423 8.092234578625943
Pb 10.648713718245975 13.789032642805136 9.93728816224397
