29
Energy = -93.66137909 eV
Pb 13.392640202637587 12.60792701234822 11.081745551038706
Pb 13.974591237710825 12.10633428465796 8.024184573651516
Pb 12.586564183548566 10.111067153224193 12.818495928327698
Pb 11.127210314695066 11.138856517175011 9.051057934109137
Pb 13.989777836469386 9.45176818425925 9.869613127969423
Pb 12.751995328403336 9.66646043626347 6.417033197618043
Pb 10.237801472491828 12.327935924776764 12.027257197569863
Pb 7.844910840490316 12.154936374361396 8.019279381999674
Pb 10.090229013790013 11.23097620712662 5.807164526826014
Pb 9.493589726130798 9.63961838752679 13.426905318994361
Pb 12.800133288183007 6.890463128581121 7.778747905309224
Pb 7.045567011307326 11.406437131494496 4.878581490128462
Pb 9.593019766254388 8.26750725855919 7.4200955600780665
Pb 8.267743161231706 9.84552321270429 10.281155172466253
Pb 8.778487341665082 8.635484556896294 4.176809416123355
Pb 4.969892747356081 10.80148196186762 7.173085480424706
Pb 10.95580538131611 8.182579839614082 10.684008443305219
Pb 6.194017591177143 10.269829611491273 12.99734756006425
Pb 4.85255907933881 9.323852728993554 10.352423089959736
Pb 10.769821680480804 5.198865935195078 9.401739610531724
Pb 7.145997663155179 6.217421165923854 5.774359064056314
Pb 7.171204792765151 7.206546380535536 12.224590681671822
Pb 10.572886395202213 5.43600441915556 5.966105211617216
Pb 8.442534726037161 3.9504640593543305 7.655071935459682
Pb 5.517262815657361 8.697089472783153 4.6799636020144675
Pb 7.131477487167332 6.401470762543181 9.132453157964502
Pb 4.215499476078377 7.7877870593042235 13.249890753299775
Pb 4.511578909533583 7.593055271736135 7.622569829220977
Pb 4.237953354723569 6.115008386545888 10.671018123198536
