23
Energy = -74.38682779 eV
Pb 8.55932405468725 12.143749636734949 9.123311481112644
Pb 5.84180831803911 4.096316646722515 8.019311599890827
Pb 12.037797977233017 10.441543629531774 5.972187938012055
Pb 7.705667004141037 7.570457723330664 5.81638138783669
Pb 7.390170019690163 12.981819880431287 5.856224088101286
Pb 12.291809515927683 8.589271616308913 8.662102886396445
Pb 9.9242453654196 8.851475201172772 3.7083691200231303
Pb 9.823813359056082 12.064533402678284 4.083886613324429
Pb 6.174643351140111 6.453365637469962 12.662835979318025
Pb 5.260478927363337 1.9002415142959075 10.39334292514826
Pb 5.406050593662842 3.349031840725935 13.186679587156272
Pb 6.256897527814891 7.066042673981809 9.42008774470996
Pb 10.560929503659096 13.545630375729614 6.785059840215178
Pb 6.333718317987668 10.094376465463728 7.31715162611637
Pb 7.506935530215943 3.9918305906541924 10.908985756185757
Pb 9.13203699643051 6.705786870408523 11.118624238015217
Pb 9.183054696556137 8.863860082287038 8.595782797169408
Pb 4.105571054679874 4.889665419561964 10.672247583528952
Pb 5.782084839424446 13.017579183746117 8.453365293047662
Pb 7.074479081927131 10.302548857683108 4.038477101261386
Pb 10.877389202205272 7.206734001783383 6.2071825010343895
Pb 11.59199108697215 11.695273766559165 9.062095641097029
Pb 8.903783016353517 5.318052473707126 8.251089006742701
