25
Energy = -81.62264616 eV
Pb 10.71254547584954 7.199967224437719 6.0909117102153365
Pb 5.634814832649664 8.811875281718025 5.7823594481480605
Pb 8.348779964108571 10.541941326767672 6.5904089535569605
Pb 8.586307470630773 8.551552748509785 4.054125309827413
Pb 5.31978122959552 11.894667755625985 7.236973309142846
Pb 11.157210785948138 10.179313882249508 4.866403024844811
Pb 7.567845205025447 6.051441132998326 5.786274692502734
Pb 7.918110072332466 13.580495335903603 7.6156183481774224
Pb 9.627144734983467 13.32421020754388 10.286423465377867
Pb 11.055910215228819 12.367381523905436 7.382327006654616
Pb 11.65939007232203 6.455352171379542 9.460702063617033
Pb 8.433850666090741 6.097181112559864 8.875330164838239
Pb 9.595469408790063 9.09673418775955 9.113982838313651
Pb 12.639747831993969 9.404406853502396 7.6444672203638175
Pb 9.949268104230928 3.7053976616044397 10.107686580235807
Pb 6.600104477053431 11.957273989026032 10.185190116255237
Pb 5.382808988681164 6.5455536156643985 8.04983642093944
Pb 4.563956425116827 9.398098148306794 8.9718410160415
Pb 10.821352359783187 5.402143181347596 12.598129172005144
Pb 11.982577338326365 11.190712860638907 10.323145650491911
Pb 7.721194196196948 5.056938167360573 11.989359305672064
Pb 6.828366410994672 8.170154610447238 10.936501028697714
Pb 9.033867777761722 10.562103346715514 11.979384640534061
Pb 11.619787575668852 8.389631880898076 12.016609245704547
Pb 8.78961924329411 7.615282655787009 13.605820130499456
