28
Energy = -92.08873396 eV
Pb 7.648712802959597 13.118034490266846 7.106724777408093
Pb 10.540765948602065 11.191081788123743 6.853538490143756
Pb 9.203252375608962 12.421531538026793 4.121120283576392
Pb 8.854911256164776 10.900956236809625 9.571977595117632
Pb 6.0408319855581105 12.601181294666045 4.133457106200418
Pb 5.701479049421222 11.291758214427118 9.629924128948021
Pb 4.432458372487703 11.949326272728259 6.7591386511443154
Pb 7.531172482859622 9.989604694417775 6.112601441898367
Pb 10.225703278342532 9.329552085708299 4.2172815367300815
Pb 10.455643250172368 8.17934533516885 8.8589270264498
Pb 7.434015302606932 10.005620158232842 2.805874405464121
Pb 7.045297597086127 8.196848636895135 9.29056488143822
Pb 4.57667427346372 9.477412654894936 4.613638001754953
Pb 3.9158734102477233 9.096916120406265 8.031490881958463
Pb 9.305887039933232 6.907686632681748 6.188660089581964
Pb 6.00382449937751 6.90724595021655 6.215601873366682
Pb 9.287521668387342 7.024250816386659 11.72297429285175
Pb 4.514132395538673 6.022729859831934 9.043908962439277
Pb 11.13180040297325 4.908651934374088 10.014597605875954
Pb 7.733898353911456 4.273803126780892 5.0550937377484075
Pb 8.067492829287543 5.001717918852431 8.7620205553182
Pb 6.249926920583104 5.939990102595636 11.755868213414034
Pb 10.403638987327527 3.6284667643930852 6.876718411302386
Pb 8.752797175843043 3.8382962089037203 12.055058351543343
Pb 5.019959455289589 3.7398699012258603 6.883560470860105
Pb 9.554857089507244 1.9889298943584621 9.6452191574918
Pb 7.607971721385276 1.826254172731295 7.148082304304403
Pb 6.128372874076777 2.825363760761565 10.053821817150158
