24
Energy = -76.04500171 eV
Pb 7.350620315705856 11.366162393928077 8.9730163152725
Pb 6.794454351375242 6.153117280456479 4.577083209694107
Pb 7.4220974907532185 9.290178497655821 3.8308824959601133
Pb 11.652821496168475 8.59250451377552 10.555553665641206
Pb 10.494289647533696 8.898507571093566 5.166424257529419
Pb 6.807825940292846 4.693149780798434 9.910504185644056
Pb 4.325694184293651 8.978650187188354 8.297219543676928
Pb 9.401565150838893 7.021733352843712 2.8409371744027205
Pb 10.305255002269151 10.221570157788635 8.17931499886516
Pb 4.2134470129309705 11.889948813922098 9.120047788843404
Pb 5.459118162805681 9.785418104340387 11.37712330962166
Pb 9.790799693560194 4.023134412278318 8.495756530914946
Pb 4.579539709733549 8.401341200179006 5.176436447008558
Pb 8.618608917758623 11.51083375704556 5.816527153910749
Pb 11.43421391539418 7.104651965260441 7.832251577932407
Pb 7.129022626642525 3.9490754156974264 6.770051255151905
Pb 9.90505954161139 5.199896114704677 5.286685246475023
Pb 4.294718581994356 6.787288001641861 10.630281538762473
Pb 8.690865992997544 9.410005685612667 11.163732914232085
Pb 4.603576098506093 5.860134236791565 7.570833826238269
Pb 12.419232847433205 4.402502754020905 6.85507355484335
Pb 9.728656375808319 6.118870746106546 10.98286402140234
Pb 6.961802527954495 6.910017467071174 12.295826001231083
Pb 5.4832203704669995 11.297813544627362 6.162078941574376
