21
Energy = -67.49452106 eV
Pb 11.809620277590257 7.037424808080848 11.122900529056968
Pb 6.248345984019309 10.234049335902204 5.5344158870640054
Pb 6.505790438402895 11.308746324633274 8.619523888438984
Pb 12.643997377608853 12.009422682533398 10.501386165436365
Pb 12.122540641368756 9.789725204164645 12.80388375079115
Pb 10.123492271909274 12.369421357955279 12.321826559508093
Pb 8.721245220084981 5.483995932205944 10.708264888301077
Pb 8.926238551966618 7.414617864871888 7.802010632069497
Pb 9.44293164522814 9.233721410669453 5.219803977391611
Pb 9.563037853245964 13.126055534844026 9.295913624194098
Pb 6.280686613131266 5.689235110030759 8.29443526455972
Pb 8.736653112961383 12.098279498640872 6.373962082849172
Pb 4.757705185206673 8.420666154302442 7.5913506149749805
Pb 11.678902571824983 11.421250042871383 7.410741212907487
Pb 9.959392290335083 9.905200076787686 9.934461954392352
Pb 12.047889998302166 8.230384069476068 7.948535040367289
Pb 11.100689998003501 5.248109466452188 8.638549825993971
Pb 6.968276271802634 8.470719158562442 10.030885202363827
Pb 9.55542344008761 10.317229695959053 14.543097478722816
Pb 8.955042476051657 8.04489165537681 12.565002200191614
Pb 6.835960091196113 7.080246919948782 5.4201367489145875
