27
Energy = -88.55852976 eV
Pb 11.959428992494448 10.569926063492769 10.725428537993647
Pb 12.720299224282831 9.923950803500455 7.540854795854624
Pb 7.084116441813254 9.15264451732214 6.467565987978043
Pb 8.83491926542137 4.328631233147793 7.148423571727222
Pb 5.500683119749511 4.27994936519353 7.270535296726955
Pb 3.882353267292512 9.510884200360607 6.514336848704815
Pb 5.90025062545948 10.949880610438898 8.966683070324127
Pb 10.468256583917052 12.418058394190354 8.546153312952432
Pb 4.663454499706518 5.597087958192787 10.404053976938044
Pb 8.698030968438946 11.067347764558576 11.01886093647758
Pb 7.291673674103324 6.706646303942826 8.73392829794569
Pb 9.920001771855935 8.145513096666217 11.882399635804639
Pb 7.187148228434845 3.463569639820172 9.889345390432718
Pb 11.285684761955487 6.5903322192501905 6.963939052896412
Pb 7.568076883738941 5.683800158717578 12.070953404592561
Pb 10.924560930099194 11.895716791552255 5.359212367996189
Pb 3.575288604926833 8.726061701192977 9.640706444697244
Pb 5.288579193571963 6.952678654623408 5.140479287817893
Pb 9.665253767995216 9.160010005682109 8.57598410210733
Pb 8.589677075148968 10.225925967749697 3.8388921418266673
Pb 11.424452362254847 8.855788920102485 4.604379846960515
Pb 7.8869215030393836 12.175870016562683 6.308805708332292
Pb 10.102774006344303 5.142040821065165 10.06770837876322
Pb 3.1203467567029826 6.49237353321609 7.444290252885261
Pb 12.486693843465842 7.585415329907921 9.916712711531295
Pb 8.811014862060242 6.885505779651101 4.805473037071395
Pb 6.3571995486379045 8.711530912812117 11.351034365574211
