28
Energy = -92.15990185 eV
Pb 7.244132311774687 7.213714001800308 2.6158335209840677
Pb 10.026758825549155 7.073996564854888 4.252938296901303
Pb 8.10225950770855 10.12689008495694 4.177211496125947
Pb 10.983032977953656 9.651882446916483 6.097910787879843
Pb 12.457864458460627 6.361615745191485 6.269888834406079
Pb 7.205219455648803 4.602246795745733 4.797360160578779
Pb 4.8713168486259075 9.31561883080898 3.152236118027194
Pb 10.111213088347055 4.149420635556848 6.380634001488442
Pb 4.3959588707387125 6.179525647207797 3.710608206000892
Pb 12.692077361232487 8.333852117948945 8.703623754536173
Pb 6.562509683347476 7.834570645852749 5.8974397248121555
Pb 5.210628491493617 11.050971787036165 5.784463511893241
Pb 7.913672695141044 11.245222043876446 7.446695094561921
Pb 9.459701288902478 7.217778414273333 7.753947235345338
Pb 10.366937454275748 10.373902170549135 9.31916740916269
Pb 11.568689654665647 5.195024996556937 9.160834830346019
Pb 3.295702422229981 8.372466980221523 6.019181023295
Pb 4.66846221527918 10.245958070295956 8.885914986054752
Pb 10.249385597493115 7.537636978852314 11.094644473875992
Pb 7.286546503093744 3.951261877258077 7.96011229037313
Pb 6.423422691164383 7.196002165471436 9.294615842995611
Pb 7.481488301431396 10.190485216761836 10.737285833149619
Pb 4.495918906547469 5.2905136772828865 6.86272978445865
Pb 8.147059688089545 4.881102218303277 10.871024081491008
Pb 3.178459667950842 7.244618889009427 9.41917196013302
Pb 7.294929937996014 7.421258817169728 12.677030269181001
Pb 4.543348805589348 8.787747980542193 11.922987251896714
Pb 4.8554174366947755 5.565265413952073 11.618277978948836
