28
Energy = -91.16703627 eV
Pb 14.269829872856501 9.412963524594849 9.034627829377671
Pb 10.166165628909418 8.038146060883594 5.2523181863792745
Pb 4.133923587920826 9.240710370649401 8.279888581316184
Pb 7.62670611900726 8.863488927922853 13.323002162938346
Pb 13.334171088549803 7.176461873296205 10.901075222587709
Pb 7.002185881216386 7.9238130557289725 7.2018478536012385
Pb 7.5803434211564715 10.03343706472052 4.325826471084703
Pb 4.026197423499624 6.9504048403999965 5.438370313709192
Pb 10.817723181497465 8.115440254457944 12.694880782216389
Pb 10.664149098425641 5.382639284803479 10.21240760745487
Pb 9.602133011151578 11.10443992053339 12.204008102552686
Pb 8.485156136265584 5.934194877866455 12.563819479917276
Pb 6.285254126020026 4.635131345513851 6.431436908961828
Pb 8.795915273119846 8.293746351073437 10.018074649168076
Pb 6.532852845976361 10.701716595017068 10.767618291098598
Pb 7.301380211371914 4.975106944792038 9.535618904727949
Pb 12.41409446188652 7.008139380798561 7.795018651457938
Pb 11.39527366323849 10.45207024490389 9.449965737642136
Pb 9.67800664387401 11.366131886948882 6.471913783179346
Pb 6.351552458299118 11.492685794582268 7.296333569332311
Pb 4.352288304490605 10.276876527905149 5.151606308709488
Pb 8.697815903351284 12.431465598541173 9.301020009093595
Pb 9.486171305920033 5.487393846334523 7.1251307801944765
Pb 4.260990073461799 6.028903345949148 8.528307607595346
Pb 5.627673854176538 7.4934097767887495 11.147026371590957
Pb 12.476572525083508 9.938650656661055 6.374980823412616
Pb 5.0619030462070125 8.359280003138826 2.7959410881342546
Pb 7.330141053308242 6.639721845435146 4.134504122806705
