21
Energy = -67.82990274 eV
Pb 10.830284437083966 8.594951142067728 13.26591221470638
Pb 5.952166104233618 8.249763485348062 8.626097717562919
Pb 10.997220317623425 11.678465634093332 12.241337270917311
Pb 13.253779729231676 8.15732221019402 5.47815572515854
Pb 10.758836822729963 10.51406539656038 5.8624258212306
Pb 8.172983172029065 6.926739477739159 13.284663416010748
Pb 7.79718797997611 8.853573512340708 5.949508518603864
Pb 5.941160010161737 10.920511520352385 10.603941529112102
Pb 5.503630702746018 8.147020018508984 12.01714468469613
Pb 8.613271378799102 6.30689986056842 7.832354559065015
Pb 12.626621204697582 9.04006768232209 10.75874412257332
Pb 13.529330160495082 10.302276115076602 7.7184484060736755
Pb 8.4872908313938 12.729562082183746 10.707763621221702
Pb 10.327300159916579 7.452014153389552 4.858608940851012
Pb 7.592936673978409 11.445891865887141 7.829115179758245
Pb 8.795519026729927 8.861032531107819 10.405126472319553
Pb 13.714855551143595 11.91325983160496 10.510882949128872
Pb 10.95136675726275 12.011667785581201 8.849505794434753
Pb 7.147660593748792 5.768061573117968 10.550893493198098
Pb 7.798871030296776 10.190550869999932 13.356605458230778
Pb 11.430257316312797 7.776703775769301 8.016841060841777
