22
Energy = -70.38783902 eV
Pb 5.555614857138714 13.151301622085553 10.614841781564472
Pb 6.0466387836183895 10.926976160512408 12.581892801697785
Pb 6.557921789553932 7.688190459799928 8.918722322378011
Pb 7.565632995645912 10.879988754016203 9.460245122453601
Pb 7.378639441425406 8.088879849858056 12.237621249696963
Pb 4.339232548146764 10.247603713091463 9.693552561904816
Pb 11.259311716895288 7.2991001164591545 5.53624914516838
Pb 12.51099375812767 8.795833906424543 13.688437793186393
Pb 10.592391392681584 9.791677717830588 9.677345199128666
Pb 8.26386731079969 5.563275108006546 10.602058094211582
Pb 12.470424179504443 11.316795940917398 11.827056193080647
Pb 5.461170300200024 12.708014811941815 7.566953669606561
Pb 8.712580269447196 8.585605432333487 6.588003982969652
Pb 10.511833096765567 7.023617492882964 12.224489095592526
Pb 13.515983178014864 10.958268006935233 8.846368074995498
Pb 13.54886418032534 8.208660087790161 7.385008703144242
Pb 9.57842891031555 10.247505515766472 12.968323163234901
Pb 11.40212906629184 10.627523737354425 6.389606931879035
Pb 13.481819169472566 8.098537655270592 10.637842767523015
Pb 10.602068176960424 6.747592846842797 8.766696590426383
Pb 5.6273075062168205 9.671008949527776 6.6287506902805
Pb 8.148846809122176 11.602522411957127 6.031996551617636
