22
Energy = -70.75063673 eV
Pb 10.916732527180843 4.8986552539517 10.239598395995278
Pb 8.475962975784732 4.570457449621625 5.020934273932874
Pb 8.835476224043852 5.538992403619948 8.075206992003071
Pb 12.025274105799904 6.6630132754860885 7.7321825483163495
Pb 8.608603139062499 6.861342192447052 2.9573278570277783
Pb 5.869075530886047 4.912761396023016 7.178935950921761
Pb 9.725684820540474 7.718662853774737 5.728566103211045
Pb 9.334549063878047 7.154007885912209 12.026988791568927
Pb 5.80768988935686 6.370051278616302 4.3657001858867055
Pb 12.422988410120725 7.610943406518388 10.813191647089337
Pb 11.766273453259204 9.863987664675491 8.524453566179094
Pb 10.570901302549537 10.095735132435477 11.530248293124508
Pb 8.686471094210718 8.83100330907263 9.15351828829658
Pb 8.866941264149443 10.918092689214626 6.769667503080595
Pb 6.312231176991639 6.744641338886625 9.870986466572939
Pb 7.0141838706975 9.322221896271987 4.707378935354593
Pb 7.431721808454784 10.063433898757417 12.044796986724856
Pb 4.740691414028013 7.960284610252466 7.0772419899597745
Pb 7.4230375711423076 11.981869651985509 9.497280644768919
Pb 4.995944458511212 9.55902722954715 10.00891786878521
Pb 5.478454096035902 11.227268288350013 6.8785909931866165
Pb 4.311044532361347 12.432173652490546 9.477538785977089
