29
Energy = -95.57486537 eV
Pb 11.540397476138285 7.762538761667259 2.7983895856653085
Pb 12.825143279305157 8.73828158627217 5.619734701557107
Pb 12.217380664662235 5.57687766547053 5.067272763020906
Pb 9.243312584156149 5.441546323518994 3.63023919968922
Pb 8.358838122768478 8.536405277782178 2.960555590541853
Pb 10.481425298361634 10.499556394466241 4.368474474457477
Pb 11.92700499642803 6.89561775203888 8.199459913894295
Pb 9.946832086824195 4.182706494634148 7.036140054974825
Pb 9.394241977832737 7.610310743643586 5.90922291455085
Pb 6.846040443588101 4.634101942153082 6.221988723217805
Pb 10.535083459119502 10.04926156551405 7.792516699987935
Pb 10.479881719387386 4.806526594266112 10.168801614652166
Pb 5.878007852271549 7.54857642525874 4.9438516863625495
Pb 7.430272638804001 10.394695734045158 6.165065935735673
Pb 4.089025406833964 10.210134104168343 5.6915255600833445
Pb 8.108140696107473 6.765496182633122 8.852987688905086
Pb 8.198115828189186 5.624403809724202 12.140644749482655
Pb 4.343524638566626 4.9080437059531015 8.265097154016432
Pb 2.7796129985234965 7.3800179832461845 6.553376835439543
Pb 10.085082051168209 8.301120541518403 10.840822917891805
Pb 7.214389492289575 3.742086706802763 9.461215081563449
Pb 5.40336400174344 8.387553902546802 8.264318904472661
Pb 7.165298753662206 8.581350484092253 12.35294778547347
Pb 5.221901914155862 11.780486489595758 8.344972655980287
Pb 2.54911179219437 7.214304245353227 9.863994160231734
Pb 5.114216124782255 6.094509731743494 11.396934844271987
Pb 7.834875478880922 10.66016620849909 9.891368049874853
Pb 2.430177756084435 10.095467210591668 8.531896338315827
Pb 4.495167647773637 9.85124861956473 11.104458210091002
