22
Energy = -69.90281984 eV
Pb 12.731420592349824 10.806801813922798 7.346012305653758
Pb 5.238900259566848 6.223805498530298 10.722122117777943
Pb 7.309779526748089 6.781550202097659 7.907314385353544
Pb 4.364995267970684 7.944613967377402 8.258502620166231
Pb 7.042777843009324 4.488638090423579 12.445620656644936
Pb 10.242893193467982 14.809444473322428 9.716809115249383
Pb 6.908914859826224 12.284144484503233 9.788995629903443
Pb 12.044018847682544 14.063410031373687 7.376914415901519
Pb 6.781848027145189 10.041760222716169 7.2956104543133495
Pb 9.564905407113088 12.183540415309679 11.440981039015757
Pb 10.404494415565802 5.519854473503971 8.673317873550193
Pb 4.210735884040183 10.97245061838482 9.142778376564756
Pb 13.933777452637942 9.594199579989287 10.110408193331383
Pb 8.802380892025422 6.761126247320625 11.107012857967087
Pb 12.980403011183265 7.437380748633629 8.165360975403004
Pb 12.566125785031105 12.52341486164284 10.201182060520061
Pb 11.444966231356965 6.0658063274631795 5.835758695293761
Pb 10.743832447792478 9.382572724857848 10.00197292190132
Pb 9.687041888928233 11.963047389129898 8.064136231724001
Pb 7.706475467041498 3.961867874506947 9.49838612204874
Pb 6.527983871118729 9.1683958453158 10.611436059874372
Pb 10.000740354611919 8.670182089916189 6.970503337514942
