26
Energy = -84.55946703 eV
Pb 8.32599558003168 9.111326091139246 4.154089740181327
Pb 7.900782691845048 5.86136129227259 3.452960185770298
Pb 10.908920366047125 7.0011092402132835 3.4502838317719897
Pb 11.485167828750988 9.304880453132155 5.4972191531967844
Pb 9.226067458646567 11.127189276144597 6.778761309213688
Pb 9.167526290139385 7.014998377131849 6.76104089497867
Pb 10.324656241313107 4.120755835651583 4.672931219591449
Pb 5.73294142107613 10.47883050890828 6.039082325642826
Pb 5.790717464517993 7.17330543929746 5.517118822223207
Pb 6.748868700916751 12.34050978323646 8.43946739850954
Pb 9.468028387629348 11.56912640561873 9.937453057755752
Pb 12.319670499632243 6.212312840324667 6.397891028983281
Pb 3.141583571164177 8.404330150437552 7.14298508618835
Pb 11.446955182811433 9.263117931311863 8.744593665638824
Pb 4.120871191419599 11.015809877355817 9.25084717096033
Pb 7.298642295044138 4.168277488170549 6.290773787068313
Pb 10.376203210933157 3.898657103914826 7.795637024571482
Pb 1.3416910786713707 9.703047899873157 9.299061166527762
Pb 10.8641991339361 6.208106022411494 10.025004878105552
Pb 4.740520066790905 5.528669334979876 8.22336457733955
Pb 6.265159163634298 8.53669960951745 8.746313059351452
Pb 8.78040468234776 8.730868344774484 10.69616457639291
Pb 3.578998163655885 8.066721384164707 10.605412709563334
Pb 7.857269629131063 4.3991925691823806 9.654810950545942
Pb 5.453089605764995 5.752202243401477 11.330761735695729
Pb 8.488566467141261 6.162090870426113 12.249467017224665
