24
Energy = -77.48655039 eV
Pb 11.949819658656713 8.948742718916838 5.993685759370248
Pb 10.726790424863074 10.662978282992539 8.322129470030484
Pb 11.431035766664564 5.901662754614749 5.879935689460346
Pb 9.612537590125067 7.588206919894857 8.301091755066967
Pb 9.19830835064526 12.205587188931709 10.525930673111827
Pb 9.456708611589569 8.04218428520305 4.164703676993255
Pb 9.79191423305013 11.183826380028503 5.199212481229399
Pb 10.011012224243036 4.353501868000979 8.361449369656992
Pb 9.483568213519519 5.9659402432308015 11.163032776382778
Pb 9.447237587937177 9.111850121619854 11.182725362213395
Pb 8.564674158012744 4.785391948012925 4.861080656645353
Pb 7.05602675946287 4.2219849748768725 10.038070829856279
Pb 7.9069399779313905 12.390257165095772 7.551429011596517
Pb 6.698767974208952 10.182491851623864 5.099565852032339
Pb 6.544015275834427 7.471261953381239 11.173010817286153
Pb 7.592404492404776 2.6489877212511033 6.990385624672868
Pb 7.155134362160633 7.34573101883547 6.450782380640859
Pb 6.421419331709995 10.822859187021686 10.477288967399687
Pb 5.508779943554138 4.77411252685195 5.423663695953067
Pb 4.722966994367533 3.162963538300608 8.146103728114033
Pb 4.111508367006951 8.69602497488297 6.236585926751886
Pb 4.843355129687477 11.431951351425836 7.613324345966743
Pb 4.978815436020187 6.271706407793033 8.465875767492928
Pb 3.9875950954154997 9.031130576284712 9.58027134114799
