22
Energy = -71.78585856 eV
Pb 12.611216655140467 9.640907286097065 8.584294877735864
Pb 8.820193590614904 7.24264487679723 5.334529326173594
Pb 11.200085756448832 9.29315001212065 5.433532409042392
Pb 11.588996932100741 6.738822880781813 7.450787117836039
Pb 11.193688577937294 12.004831275437768 6.91241391885347
Pb 9.485936747528479 4.332310408233996 6.8238955812458
Pb 11.389144268169446 7.540407960428937 10.78454969332167
Pb 8.244907960855477 11.015106550040121 5.61024278519689
Pb 10.896086278864496 12.083451808359404 10.16027985856409
Pb 8.556496115641801 13.363397391542057 7.976444051074024
Pb 6.473350920440807 5.386056608281705 6.516187083766847
Pb 9.395830195369475 9.753089048086744 12.120864103167197
Pb 10.45007983135449 4.710957913337256 9.89071044578672
Pb 9.16956766712307 9.584150096964093 8.621752484895723
Pb 7.752099523218286 12.22970366334523 10.87906872512153
Pb 6.026952499612216 11.443936900945998 8.158982600536529
Pb 5.936007543458934 8.498303030519121 6.432501513272399
Pb 8.23842930342031 6.572580958659863 11.47842737241139
Pb 7.439737655632117 4.043654495045631 9.324377919694326
Pb 3.9626848550685874 9.138546863450614 8.863419083177941
Pb 5.626648775368436 6.602715079554004 9.410397896763381
Pb 6.286796384664612 9.416914436973336 11.064670481237789
