22
Energy = -72.13327378 eV
Pb 10.73522824523688 6.825127811166912 10.77707773436993
Pb 11.393492053551418 6.182542141700638 7.410208628791131
Pb 8.68628567129315 4.142217109441749 7.213311035745444
Pb 6.3950182069454495 4.91951512321666 9.433764739641195
Pb 12.217371102729546 8.89976711748803 8.799220920454363
Pb 9.308857265776327 6.0981349181546465 4.7136714976324345
Pb 7.647028535515159 8.034038816082623 11.243901511049867
Pb 8.648441139163129 7.225726139586921 8.422647206919
Pb 5.5445321701051435 3.4432087470521897 6.408509749950081
Pb 9.858738059496357 9.1916276082415 6.203231255655335
Pb 6.245204579337719 5.43293453640717 3.557576268084761
Pb 3.3934121025125834 5.175480867086016 8.207937239092553
Pb 3.2633773410784706 5.172052539914608 4.881727470275835
Pb 5.960255266365725 6.753902292811038 6.455827397563212
Pb 10.150126718141063 10.009540993627562 10.985383760805464
Pb 10.537033919317933 11.526665151939802 8.254961817624652
Pb 4.734145798556128 8.060687456872348 9.241253472694487
Pb 7.636844766699285 10.300390172861489 8.75961828920526
Pb 7.42609108625383 8.633073683492128 3.9522607504720098
Pb 4.23615800064049 8.147321665280684 3.7948525683657737
Pb 2.6543890389836005 7.968648496578358 6.6243138176155725
Pb 5.252241212407421 9.985812040100038 6.356677582889891
