24
Energy = -77.88398507 eV
Pb 8.50000249868694 9.250011779014807 3.6403993700513073
Pb 10.679676574902462 7.865655387273838 5.396465953115715
Pb 10.145784913176346 11.221822150334598 5.735486516618574
Pb 10.721821164286776 8.562677676603526 8.85544387428454
Pb 7.662789145553853 6.427341687613521 4.887706517297452
Pb 6.954114382379535 11.501921159647637 5.243624750610022
Pb 9.872305112302525 4.756503863214858 6.526687299713462
Pb 12.491853335613497 6.248781310879734 7.665448500852605
Pb 7.814187102332084 8.867297563156745 7.151248844936366
Pb 4.74111282369715 10.392330733216268 7.337347464699424
Pb 7.9777901995816976 12.1352990542863 8.160570742028586
Pb 4.708307366160648 7.168582275964357 6.824220115058437
Pb 12.91129113199692 6.941859596422886 10.853355274958751
Pb 11.2243000315815 11.827307477501249 8.803216350354395
Pb 3.473554154110571 8.436485627063245 9.568494283919872
Pb 7.20200680462722 5.30084459839172 8.028461671274655
Pb 9.103855332441787 10.546564935462635 10.956386142004032
Pb 5.798850938007426 10.542898170905081 10.511137324334657
Pb 4.564926645929998 5.522874047006129 9.770141428810112
Pb 10.271062265485691 5.277035586652158 9.963299406797962
Pb 12.33919026792402 10.040819614000812 11.313579804727917
Pb 5.099194386743407 7.765717410819407 12.178610323264275
Pb 7.452075452523098 7.536943591644167 10.233595142810119
Pb 10.127265103984373 7.699741836953394 12.232390031506432
