24
Energy = -78.05574913 eV
Pb 8.151383967693524 7.120775945104204 12.49568153006321
Pb 6.538173949520516 9.896563344434108 11.332282363181578
Pb 8.580082811769337 11.309317099423792 8.97030898745495
Pb 9.744887387695117 10.060942573259515 11.768354220502099
Pb 5.173364394772365 6.732193799511574 10.9777037756213
Pb 11.087231054959137 7.158937259495838 11.143487509748676
Pb 3.4885533506989552 9.03034541548343 9.949070474361971
Pb 9.340965514420146 4.63766086533925 10.326347589405117
Pb 6.533394426262073 4.003323092128692 11.490297205259873
Pb 5.385257378954026 10.61421676102051 8.11400924152118
Pb 11.327974130166739 9.469308829596862 8.987350175202206
Pb 7.303345434868073 11.652373212815377 5.897516502628441
Pb 5.281751343811701 9.133780883799151 4.917311661197359
Pb 6.441756248798855 4.893806856870525 8.482038605705517
Pb 10.323916210053172 10.189968415853249 5.865302654948409
Pb 8.03175405662021 10.21644917560296 3.2266696927231644
Pb 4.50136597578645 7.269119568367717 7.529110083825936
Pb 11.114473157043072 6.967409733308859 6.362906426840482
Pb 9.219877009296374 4.3414843697222985 7.190395564605018
Pb 8.411162562102453 7.860762674900698 9.25823302449496
Pb 7.956885804326602 7.67089331048567 5.9657288924363066
Pb 7.119019454945823 7.204213514253595 2.8571521491483365
Pb 10.365759529219586 7.98693102095101 3.3476646766936478
Pb 9.14952061324261 5.151078045298195 4.116932759457791
