23
Energy = -75.41830163 eV
Pb 7.047812824895135 7.980771706000139 11.883646665969
Pb 9.345633818989343 5.61444897881074 11.658057460833435
Pb 10.322021694098364 9.076343695786662 10.851779248207793
Pb 4.8385461407820225 6.817205030757349 9.822506520323607
Pb 7.885413100267211 10.94655980622954 11.581210564667128
Pb 5.547651100139313 10.267631189549066 9.582427771334128
Pb 8.714022917670132 11.317729528291382 8.573813595048374
Pb 6.792070986240886 4.243059411437603 9.413773700708477
Pb 9.18010353609579 10.866220570731093 5.452736696353484
Pb 11.876585760966318 6.511601278181843 9.690968010967975
Pb 9.973995213765242 3.9453204744376436 8.988131766463182
Pb 11.090087074673459 9.072362984470697 7.53099904273685
Pb 5.711695532144057 11.2227389110235 6.198898415347677
Pb 8.597631925398298 6.968796922995109 8.823002618757174
Pb 3.603248437646596 8.704257727456572 7.590812423005058
Pb 11.168394763455545 5.798395784924926 6.607116099721469
Pb 6.988331728374354 8.371746378384756 6.572244923367169
Pb 7.058328225127328 9.598302633513642 3.468578454290744
Pb 8.075346341621017 4.438533602481754 6.3307966486298435
Pb 4.898012715050832 5.71017302704156 6.713305439405803
Pb 9.709461548425132 7.795601142067353 4.509095553478217
Pb 4.301394949878044 8.481917855749954 4.514242593229986
Pb 6.680877770907301 6.325572883238285 3.9242935064927766
