25
Energy = -82.02635005 eV
Pb 8.39380374777092 7.331207624145297 4.104708702954198
Pb 6.729730024587837 4.5677434072121335 5.431670648018043
Pb 9.822035182127111 4.071816466968397 4.791502173599665
Pb 7.0543920488840355 10.317674998282763 5.160469391949465
Pb 11.682689312588927 6.69073482775243 5.134371615871396
Pb 10.390124205990166 9.461675866431298 5.762054276601542
Pb 5.365833047526182 7.489231635749304 5.457963459870685
Pb 9.411533414382077 12.289551599081772 6.27663704788024
Pb 8.722789204018286 3.2196841701037924 7.7493118845318785
Pb 8.775093014303437 6.402810126003978 7.315384972244476
Pb 11.739947243901153 4.351380540306525 7.349714218797291
Pb 4.395204417552717 10.286272834709921 7.422769929740914
Pb 6.963660647082091 12.421755894356423 8.120168135907813
Pb 2.935694244662704 7.323197189832297 7.386219427524476
Pb 7.232154139881414 9.03988714467721 8.785012023268763
Pb 11.850605205643383 7.612227519382369 8.373694512600606
Pb 10.47007835121855 10.722452589148638 8.938861609614921
Pb 5.2000768131468185 5.312136702051483 8.20822255022313
Pb 5.057547874060883 11.203702708679046 10.483066421885738
Pb 10.159176791075739 5.184690278771286 10.044582017734022
Pb 7.0106255966257915 6.0228289098897685 10.842639229536047
Pb 4.204767429645317 8.053881676068725 10.187727176626497
Pb 8.179098030952087 11.38661140590726 11.143967529925115
Pb 9.57631302994833 8.271026683439338 11.082197153911043
Pb 6.536668815495176 8.825459034119392 12.306725722253766
