28
Energy = -92.30078778 eV
Pb 2.845773162146104 7.377509121426588 8.0088021918288
Pb 3.721192354486267 6.446899017215247 5.058323737682198
Pb 3.533761363531552 4.206756844988878 7.418932971308908
Pb 5.137073150605346 9.36951284745615 5.759635328901441
Pb 4.849719324684675 9.922485451389747 8.98637295821056
Pb 4.616692816924711 5.556392902271439 10.182813018576296
Pb 5.75875098429941 3.9300921874252515 5.163377400255557
Pb 6.0759869667284585 6.934533257891678 7.703641018609886
Pb 6.919482926918126 7.028481099146225 4.1814222901458615
Pb 6.651043867854529 8.629858575789084 11.259004426868021
Pb 6.690572552580173 3.544786245321312 8.337095505330844
Pb 6.657618178137589 12.393765957641005 10.12787104963802
Pb 7.307485053883274 12.282317925035903 6.9166935982226665
Pb 7.800306848559664 5.555456169151262 10.876687164375783
Pb 8.929388348739419 4.226165263454256 5.693137076690599
Pb 9.147932503526423 11.07152380827112 11.743279872574123
Pb 8.319310879508201 9.89332699508106 8.679898503686573
Pb 8.48173614503911 9.837607104025063 4.911078729157023
Pb 9.914569873937655 7.99329424025819 11.317498665097249
Pb 9.333422991667268 7.0164965953117004 7.637816810624763
Pb 9.645929683213017 13.155619177342977 9.243047792067705
Pb 10.117901564320814 4.153467066172382 8.946032513125402
Pb 10.175594192696478 7.02448602613896 4.328598658836051
Pb 10.653952699000744 11.732828518306173 6.608245971544925
Pb 11.627466412854934 10.39098363555351 9.473072119425463
Pb 11.924603484590326 5.371060629169006 6.505571625896114
Pb 12.21826298108133 6.873623974104287 9.295545686487696
Pb 12.023292210508096 8.76108957840166 6.4772357824664715
