29
Energy = -93.90808958 eV
Pb 14.709433158142593 7.884886038468666 9.007782022030394
Pb 13.767968472347437 5.127631326560537 7.668486312766316
Pb 13.061124662734704 5.966252363256679 10.792733390507728
Pb 11.804951404913488 8.949491346242471 9.586853842566534
Pb 11.124685226531295 4.191729477506537 12.391980303680505
Pb 6.252668883710724 12.803160262457181 10.305214537663788
Pb 12.70531539071363 8.087940430024682 6.475016307796795
Pb 9.770422146910597 6.820312070209922 10.913265626752015
Pb 8.33121084821745 10.417235001060314 9.659799632930751
Pb 8.558784193749796 3.623363333243534 10.826270315063272
Pb 10.914382954570522 4.1903566507662555 8.889223001311352
Pb 7.715442658464076 12.912446184853385 7.503376037829085
Pb 11.251702755273715 5.266600381959873 5.727378102754528
Pb 9.198430798007701 10.738934308271668 5.64174186924462
Pb 6.122593436068988 9.54655286831917 7.5879738725604735
Pb 9.49825596489607 7.902009173012349 7.545962996248567
Pb 5.2295537272613295 9.793412615150956 11.09612852955521
Pb 4.354189770516115 12.639637606808177 7.5052786976329955
Pb 6.619513621446138 7.01590548865034 11.503261638463554
Pb 3.1211541158214415 12.075815888123675 10.462080690967733
Pb 7.234800669247468 5.529094046392891 8.651498919512457
Pb 8.03024043830373 5.557345441516392 5.456825785397929
Pb 6.229454463525814 11.801539231867844 4.804048337620846
Pb 10.130852339310815 7.836760568985723 4.259279046925671
Pb 4.341360227187413 6.97984557836379 9.248800465492236
Pb 2.7892982881344954 9.659474263505738 8.53551707886346
Pb 6.92224847436217 8.604610065410899 4.379637516806551
Pb 4.9385635285831375 6.669953112077909 6.128419833967618
Pb 3.7687234298177485 9.786072987798594 5.43952774779624
