29
Energy = -95.46317949 eV
Pb 4.0517382994893705 8.0614286072831 6.631729855024854
Pb 7.762898381952113 8.128632851509124 12.841501097675229
Pb 10.306322608564582 13.167480475555346 6.582507218199657
Pb 10.476526155393309 3.171913187565005 6.5929758791511395
Pb 4.793234005982362 8.077500754861317 12.016212746614254
Pb 11.953588490156514 11.457107536176734 8.686619293439229
Pb 12.06426293518979 4.942968943260105 8.6921798991295
Pb 5.33834879419165 10.830529904936924 6.061181254268541
Pb 5.429856699711466 5.3338778390721 6.075932974540688
Pb 6.400868440753364 8.094562559608072 4.384516191981993
Pb 9.382360522864424 3.5010862706158075 9.748136907014706
Pb 9.221631919838071 12.806530662479712 9.738677247557892
Pb 11.463104288419352 10.252424983666092 5.594822236404238
Pb 11.534014426732098 6.1204068004651155 5.598769638349904
Pb 6.68521416970656 10.816720332691316 11.169038474986733
Pb 6.77764781528595 5.404559610103883 11.16886886320212
Pb 8.36260200476778 11.269308815614993 4.5966361880705495
Pb 8.4648111522307 4.995633818337106 4.6051143425136765
Pb 7.363261895046592 3.1684529382561855 7.322703883704424
Pb 7.192302106607255 13.060243716483646 7.3111161365563255
Pb 4.143468768946396 9.871347366259133 9.292018964125226
Pb 4.201052682562143 6.263784565017375 9.295271563525946
Pb 9.55213736763485 8.150470618808445 4.057863225721844
Pb 9.996634723668851 9.82347075529204 11.011998335752084
Pb 10.055161785237578 6.512750046496152 11.014157747539526
Pb 11.761280147891881 8.195830783743592 8.482731960614826
Pb 6.89223429220224 8.113600798355982 9.352832248482054
Pb 8.813342377478092 10.148637655769638 7.646723163824954
Pb 8.881012445222241 6.137974942049191 7.650551544211407
