22
Energy = -71.28642468 eV
Pb 5.158832697771125 6.669468370139391 9.649381585789799
Pb 5.882942362644002 9.080990788749974 11.652332801605567
Pb 5.722708086322473 6.821395367361431 6.51275389190349
Pb 7.976348615949037 7.817456975274994 4.146731018856976
Pb 7.778991829129697 4.799706457151819 8.74592819218958
Pb 7.511738662594318 6.09894417754415 11.677420375171497
Pb 5.63098982443027 9.600835948337597 8.397818443611497
Pb 8.620163482187758 7.858546598513575 7.335295281657072
Pb 8.276575138598945 4.881697792804968 5.453393108847425
Pb 10.839155333120083 4.948914491615259 7.45148360328875
Pb 7.5420580611489 11.655350551957127 12.516820414927746
Pb 10.12065748810754 7.023249906904375 10.1312804516393
Pb 10.92142525970411 6.71130461237628 4.824596913134368
Pb 8.72060918511017 13.338026990082179 9.934598986875613
Pb 9.137527419586123 8.88502683632298 13.001509342637107
Pb 8.069831163016607 11.687310724810505 7.155416710631115
Pb 12.060278040506427 8.106526990802989 7.6456405077518115
Pb 8.577462194172446 9.941621008953025 9.876776183735103
Pb 10.258648062198 9.880373981018248 5.492007699474336
Pb 10.747853041274434 11.377667864233151 12.041205661755015
Pb 11.124238260558183 11.576114283179017 8.303705016631246
Pb 11.797343756828123 13.715847246825144 10.530281772844416
