25
Energy = -82.50953398
Pb 6.366177931210076 8.683278149317365 9.891969482314764
Pb 4.069570661689156 6.450514232201672 9.860603263853795
Pb 7.397088692435295 5.528159938900322 9.945827977832495
Pb 9.147848523038748 7.965735652470139 8.499388788725797
Pb 3.8485516803760222 9.066041952320504 7.851566576882157
Pb 3.8158720495781853 3.508426561216099 8.66511436076351
Pb 7.057912487271405 2.7471694691620097 8.22764706802538
Pb 6.104587465902278 6.688609036414887 7.082447444021866
Pb 7.009446073456896 9.912772034373178 6.958204656141544
Pb 2.321165588734027 6.121042878861771 6.999605198887944
Pb 9.154614954882584 4.982528172453631 7.023504127644314
Pb 4.845332751456812 1.3891651593344907 6.532057971818645
Pb 9.002829068341214 7.824245878390194 5.245078645377948
Pb 2.2627867752940882 3.050004379338755 5.805753130518434
Pb 3.109039447664779 8.420548228264188 4.740833700037717
Pb 7.599307030740298 2.248539296242264 4.9965853710351595
Pb 5.560883721636378 5.32621827429524 4.174349417551657
Pb 6.233511538451532 8.916797341371677 3.738108494896956
Pb 9.122383894855822 4.951486274137347 3.7553261823576936
Pb 2.201131455352121 5.4112642606324295 3.6008772593447147
Pb 4.3968945749385995 2.190307314615547 3.40324309015527
Pb 4.008787301056065 7.572195470442618 1.8390080177473351
Pb 4.372560650177768 4.532125934553642 1.056106100220298
Pb 7.165560798501043 3.2633784361993334 1.897244819285862
Pb 7.135730712806613 6.559021404337794 1.5191243844062121
