22
Energy = -71.04974433 eV
Pb 13.128831945720368 9.496004205499016 6.946839188390978
Pb 10.759489208051386 6.031472894380843 11.10402568717758
Pb 12.230388644150805 12.07616839157725 8.542426283350501
Pb 11.816189263783022 8.600261582627647 9.535821310140328
Pb 11.039542231091549 7.403789665445805 5.885608184722131
Pb 8.757439946161199 9.287191655381424 8.442438822846116
Pb 11.172352915538776 8.852719644415329 12.708639538445157
Pb 8.322688546383908 10.33624968666128 13.234667074923623
Pb 10.303517004039831 11.475750215511729 11.019155336053531
Pb 9.215933254151011 13.067796459339364 8.34624834444975
Pb 8.17587378057663 8.7618742678332 4.826941647041086
Pb 8.42957635308824 7.148296749864944 12.898956392859647
Pb 8.417709151029205 5.681899298403883 5.468340076204311
Pb 7.006775815328061 11.704043749416657 10.335367945022695
Pb 5.842929429004761 7.147994949370902 6.544293661134887
Pb 10.168064948921598 5.113192532678799 8.107939677980243
Pb 10.374414143558516 11.089421802172662 5.924265739371543
Pb 5.898005026400497 8.902641865057944 11.683420514314745
Pb 7.080834578425806 11.353989970310362 6.643461451890715
Pb 7.446207100645466 6.648515530295752 9.871704481386198
Pb 6.918850189301499 4.397489035982598 7.972393392821202
Pb 5.323149593199787 9.506703341889498 8.661541142744474
