21
Energy = -68.49715127 eV
Pb 7.563439416204243 4.689246081156972 2.472551036140451
Pb 4.30006090389799 8.9721285410355 3.3864893518064143
Pb 7.337762874529909 7.975990450312623 2.4038104000914062
Pb 9.09979845089331 3.2021879510251643 4.8393504171690696
Pb 9.939748920075822 6.227202330773677 4.088819209243605
Pb 5.327702277815691 6.119485213473184 4.382558823568037
Pb 5.90336512538997 3.009896397281489 4.772957684079507
Pb 6.95131309433669 10.64149838505844 4.228294465503
Pb 4.367767848300713 10.52483480557245 6.190175099333246
Pb 7.69190724150797 7.759035622401298 5.680958231588055
Pb 7.261967853604102 10.302113526531933 7.503904583317986
Pb 2.990214965589644 7.586067128829692 6.125516559404948
Pb 7.598702428374612 2.4892274020040466 7.589440648534267
Pb 6.084295614666905 5.591972111238207 7.537531401733197
Pb 9.625272205104803 5.256426262546595 7.340888364022369
Pb 8.053040524993218 7.643026421355706 9.280605338905294
Pb 3.144023782480657 5.82786462115497 8.922891475446022
Pb 4.657763992121597 8.794623698228461 8.963826203935216
Pb 5.048825215024377 3.2827848126305517 9.575684909682899
Pb 8.018341106221195 4.37407536489543 10.197056750703267
Pb 5.534686158864935 6.230312872492122 11.016689045789642
