25
Energy = -81.45005793 eV
Pb 10.301708770125307 5.102220556465937 4.519477931743663
Pb 7.426513858574762 6.20782774256165 4.044274107342862
Pb 7.131784391836553 9.254295623471615 5.05978260500997
Pb 6.944128910519599 11.556998448171527 7.398642508739154
Pb 9.89541480400203 8.26912616310357 3.6099672530590188
Pb 12.250342236570702 7.454792488647716 5.682601976744284
Pb 11.17534693808712 4.539476749558412 7.483916197845558
Pb 10.110940166119084 10.348519641549794 6.16597713860057
Pb 9.146428005470241 7.221848969817414 6.9661825509054625
Pb 6.10769156400222 6.043893667814252 6.924410641594994
Pb 4.707543324810537 8.86944128588298 7.500413657582308
Pb 7.686522206917713 9.117806363322915 9.599887240372906
Pb 13.611806659912219 6.433254414974224 8.325536175941664
Pb 3.8084169905273577 11.764731924389512 8.32865190362129
Pb 8.296572841897344 4.8545534345302555 9.252678533054903
Pb 5.744219798483019 11.886094057451578 10.742861516143876
Pb 11.112891967139955 6.380910863478162 10.273530264070876
Pb 5.317442115645054 6.827934174976444 10.157035554144564
Pb 3.3999076980249563 9.4918628022453 10.499383882221915
Pb 9.622177786221835 11.726405516158067 9.37942291995725
Pb 12.131573285471035 9.279936094912772 8.713540198913554
Pb 10.51994457193251 9.230798014914743 11.513571761302725
Pb 8.230927548547559 6.698253776318513 11.875842317661423
Pb 8.327318384271614 11.272433999898473 12.373392790127877
Pb 5.933197878359045 9.107345928853542 12.549781076767289
