23
Energy = -73.83322438 eV
Pb 5.0080915986783 7.786960245601724 7.192933899752199
Pb 10.06021445401916 3.9828978381235176 6.161310630083932
Pb 11.235409358056447 3.85858123297523 9.020707444184293
Pb 8.587488663204699 5.685553250000047 8.523408022308626
Pb 7.428613657023468 9.797096467814466 6.036084020741162
Pb 9.91897013920107 12.179034357683795 6.083644293938943
Pb 8.94059641238124 6.87983737593803 5.641835622743788
Pb 11.276668159904082 10.051363967652156 11.283426367602154
Pb 11.888550075212619 6.598233401690895 7.136478924273997
Pb 6.652206656858032 9.03253512870307 9.533476918971648
Pb 9.236781895610402 10.135372526907528 13.68390039196832
Pb 9.916867611701006 9.246875623930492 8.268474387005924
Pb 9.307796798529882 4.757273741972524 11.363328979922308
Pb 3.4187095924245963 9.068075023053682 9.620406605997228
Pb 4.949198162981801 11.578682082521448 10.598089718934236
Pb 11.105341487154037 9.269878203073937 5.077334140684088
Pb 8.708580549604852 7.805059306604497 11.794254425248281
Pb 12.599079962043925 10.836063725450199 7.220562756835021
Pb 8.236215187258791 11.628027969005384 11.219544119673786
Pb 11.64960323840367 6.818236689184726 10.425559311841948
Pb 4.642724727695083 11.009337901167006 7.373018198786064
Pb 10.78261639174823 12.559067495832002 9.237343743326528
Pb 7.472852122167361 12.440611825984439 8.260815172617793
