29
Energy = -94.59815919 eV
Pb 11.43795387756648 4.431062883336461 4.646562312225228
Pb 11.84146405092713 4.546843312741326 7.663554796598013
Pb 10.046770530890475 6.887930087802224 9.031145306969618
Pb 8.925698864622552 3.422094251794059 9.282554142645724
Pb 8.968435997656625 12.254206289791215 10.298350186021684
Pb 11.312635461432391 7.396615999200143 6.092001666162732
Pb 9.723050584889537 6.740929615390303 3.3034956163123796
Pb 9.587171343207801 10.175834446529091 4.207472115013093
Pb 10.083244073336404 10.988693936511151 7.449980321808234
Pb 9.53139963471148 5.249290050378838 11.766425947004425
Pb 6.871154913399006 6.524562542850046 13.026098354763896
Pb 9.683016089959565 14.215638228859056 8.055125494090992
Pb 7.711099515882524 8.161632136567862 6.297764955639538
Pb 8.959108796152075 13.229190948624236 5.264297072131145
Pb 6.950750325225502 12.305063035242913 7.815945166589902
Pb 7.828986745479756 9.412929066849784 9.589826129126648
Pb 8.775249315486857 4.831455602809486 6.338238786216363
Pb 6.591803451932354 5.695051586525478 4.001737108902626
Pb 6.745069155064148 6.201863292375679 9.648749410297215
Pb 7.128736671000404 8.64304706784637 2.7535639381943593
Pb 6.45156229721316 11.157653095401393 4.7562554941930335
Pb 4.9331791808603285 8.445839717731609 11.24202233472019
Pb 4.932512431426935 9.277612922841465 7.917189133406166
Pb 4.835276110441564 5.94754186282042 6.610004891947257
Pb 4.119924673292941 5.19684743563614 11.786116286389962
Pb 3.1314892342195013 6.7613957032870715 9.174473534478816
Pb 4.5315816800606 8.449397972577582 4.683758222235524
Pb 6.83588598535217 3.4337442074739917 11.779708317834546
Pb 5.079228491922305 3.569472183816864 9.071022441693302
