23
Energy = -73.05951304 eV
Pb 14.095292926339942 5.62870706771584 5.629204115005653
Pb 6.452043719162442 9.175149915259572 6.920560117736721
Pb 3.2431321198659155 9.757352969439156 11.266276431445167
Pb 11.034211795359214 5.469869501938582 10.923654238503097
Pb 9.089313360515904 13.6783981407756 7.939434393897919
Pb 8.699645723826976 4.154243647847221 8.95348706408468
Pb 8.48492126961026 4.313246071018467 12.172556666531959
Pb 6.093366416671756 5.718843354471107 7.813775744347053
Pb 11.04016377884422 11.536832521776113 9.287196759563574
Pb 9.369639687315841 10.796225025316 6.4332510435556305
Pb 12.763190610745214 10.551672878755705 6.80062381100407
Pb 11.970974841651136 5.212608192982249 7.850499334492469
Pb 4.652624348076851 7.869563046008663 9.519408617036191
Pb 6.563324300480474 13.695349959309207 9.7424850455584
Pb 8.239464786836992 7.156921874034763 10.286113568763625
Pb 4.66320036685626 11.283982612216006 9.126510121046007
Pb 8.936711021099784 6.914599978643389 6.730579939579824
Pb 7.935818730641239 10.760548597954111 9.479479356204303
Pb 5.821549996472035 5.047448591971675 10.904824695074906
Pb 6.393524480607944 12.419391808995696 6.683467102448114
Pb 14.210000906243295 7.873243675788953 7.758121079073536
Pb 11.901997360410022 7.810242879436154 5.4509999653213965
Pb 11.117489006731036 8.324994898457362 8.733422396476206
