25
Energy = -81.15016944 eV
Pb 7.997535958105346 8.831198441680446 3.7856664469716423
Pb 4.979150864395485 7.956741610349138 4.708969276642431
Pb 6.0580886648388335 10.7611257251148 5.774889802424677
Pb 7.677431312109161 5.763089044741337 4.7126488658093
Pb 7.973289526115699 12.912318427239072 7.3506928622673975
Pb 10.646338033588108 7.289185559577712 5.0706190688876225
Pb 7.358691567308321 8.0645636692453 7.2694315015961815
Pb 5.209187202760099 5.479470932379538 6.752014638404724
Pb 12.646630620652786 5.55993978032373 7.111139312881168
Pb 9.818284704997177 10.479505320042726 5.892575539425744
Pb 5.101076126535445 11.98303644800645 8.857318055281217
Pb 9.43515876399744 5.339792377013083 7.444031193581379
Pb 7.904191660036776 3.673142501113288 9.529506978973707
Pb 11.483228164692965 3.1114803042099832 8.751820924670602
Pb 11.08789242031925 8.235888133281343 8.262219129416646
Pb 3.9682631262051102 8.608293149696003 7.65372647688612
Pb 8.836918276370369 6.782685234665843 10.432271265579672
Pb 10.408480635020103 11.54980919880975 8.921336613189723
Pb 7.876884699207018 10.253462583613901 10.028142249729276
Pb 12.290834414603465 5.892674398614829 10.282118458438566
Pb 5.621678093490467 6.149397857431299 9.755395281329884
Pb 10.194345532640376 3.9736236751528864 11.557487367964237
Pb 5.051829063513724 9.124815625029811 10.739128630217511
Pb 7.739412526577099 13.49725093374935 10.400075022085373
Pb 5.7367662325475735 11.82909725954556 12.058363227973118
