29
Energy = -94.93942507 eV
Pb 10.105927839517863 7.362100194571461 8.473094923873697
Pb 9.200332244098968 10.501893316626598 7.173971093007897
Pb 10.127678503773335 12.153952304325992 10.790957801941229
Pb 10.959740093064745 4.199268017299188 9.021602292086733
Pb 8.077601926846507 4.956811814269077 10.314444823485559
Pb 7.819047229874236 6.7405100592480425 13.042504218917513
Pb 12.28879656267522 9.14848976262028 10.728785444355553
Pb 10.63226059262262 8.282024980728554 4.959651931804615
Pb 11.73815052937405 11.50491791335942 5.365957112319509
Pb 4.645090192670271 7.3452101364363465 13.539723337593376
Pb 10.947541965219788 6.21848732276777 11.675902037838904
Pb 6.392824988065174 11.524462563196712 5.5530659321842375
Pb 13.322232439571714 6.310388926522332 9.467420326521685
Pb 7.122119404762917 12.50633345479458 8.890560719619591
Pb 12.17535634178193 5.768027267575956 6.5400701053224815
Pb 7.915326915072368 9.142578240789438 10.345374048302686
Pb 9.002527370432446 13.466647047742665 5.077518068862741
Pb 6.637578424764005 9.670458579445262 14.110902595414826
Pb 4.735974613833586 9.928475426809495 11.432919710007416
Pb 13.17700950610209 8.812178846876995 7.275183594154942
Pb 7.2829011064491365 8.409962111794957 5.26161169465547
Pb 9.724570048208722 9.502354916529871 12.948381120530193
Pb 12.531127672149161 11.693243337896297 8.611245497274192
Pb 10.110579481856838 13.712538383955607 8.02031539109144
Pb 6.644105606258974 6.3656069653942655 7.6656674147432
Pb 5.382631179848806 6.834768378528374 10.563163814510364
Pb 8.974555743588313 10.753711883671203 3.6407766619520614
Pb 7.190816088741874 12.00090432114312 12.129345856573181
Pb 5.650980659587919 9.497935649310199 8.079149548809882
