21
Energy = -68.58212706 eV
Pb 5.988958823951054 7.39920858781852 2.056436706374675
Pb 7.757307959474332 4.780040185558239 2.4417099861322082
Pb 3.168874506338057 7.489007128346342 3.522014805765812
Pb 8.67012635759419 7.67846314455539 3.8294652557372264
Pb 5.055641463987173 4.986284853946949 4.135868608998749
Pb 5.677006353567494 9.431968042077687 4.546732982321502
Pb 9.71991655105631 4.609604323199159 4.906237612750709
Pb 7.163006903091238 2.716282396638522 4.964904604980985
Pb 8.394225204114985 9.790532587591759 6.259989179867085
Pb 2.5274331640623604 5.428839121416814 6.046345533867874
Pb 2.9911243513091614 8.542340711295699 6.4903761035989485
Pb 10.109487754078124 6.851876835667988 7.190282393141942
Pb 6.746757811890026 6.644832350996997 7.21387603750968
Pb 8.455479486000272 3.6950467048044384 7.851971900314694
Pb 5.476480329813271 9.572640403864966 8.26977582706591
Pb 4.944368700678258 3.505819178615911 7.364386066288911
Pb 8.581319786820284 8.973814244757081 9.20987128235916
Pb 8.968451210179033 5.955042394708862 10.242692079959697
Pb 3.74469177113633 6.437416145759854 8.955757196096569
Pb 6.14062913654452 4.448866954294405 10.119639956669875
Pb 6.218712374315337 7.56207370408637 10.881665880199593
