20
Energy = -64.59930191 eV
Pb 9.2073562348995 8.712092306076062 4.904613396909871
Pb 6.056136410770406 8.435744796658454 5.258183993634516
Pb 7.328779336155885 11.439270249347032 5.32407777380376
Pb 12.121852964741086 9.060326871109515 6.158410737483113
Pb 7.706139619564189 5.8258741283948 6.172660449013182
Pb 10.172931756450955 11.482952142104864 7.007682741895019
Pb 4.963285601745211 10.535367373597898 7.4404709334962735
Pb 10.925129055455702 6.321322443376536 6.963886802230844
Pb 7.944837025913424 9.262847599852932 8.068583819406594
Pb 9.272617096149265 4.002608005511308 8.547152903613568
Pb 7.324912604856295 6.368408647784117 9.259005928301708
Pb 6.0671633769448405 10.742399684313344 10.439060520954442
Pb 11.5009100632214 9.045552518435018 9.268979730769331
Pb 9.399793724390754 11.602130025899966 10.337462538532623
Pb 7.281279053952691 12.80626340256346 8.173233335450982
Pb 11.425003330413873 5.841779100435801 10.145705297468455
Pb 8.711719317216291 4.821978019606959 11.622097711499043
Pb 6.530561673113296 7.483363425757869 12.01073998251099
Pb 9.915750483541398 7.906502670640247 11.967405576562092
Pb 8.02186665367341 10.181241971703269 12.808611209633485
