22
Energy = -71.67059178 eV
Pb 10.195193157648307 14.126026237590521 10.403840591084958
Pb 11.685115588898702 10.846035996630045 6.1744045412448365
Pb 12.921831960096265 13.046353395700457 8.649638483233238
Pb 10.511597996395366 13.945968746421824 6.8731236917721095
Pb 8.38683672311869 11.692404397419894 5.83482845938642
Pb 7.603672093995871 13.791592201483189 8.144097185216742
Pb 6.564200268190912 10.545542616382225 8.443566490765368
Pb 8.93294374656589 8.572223359425761 6.254845880360324
Pb 7.260882170854946 12.691025931228115 11.081704057671702
Pb 8.486582524685867 8.03205508163051 9.666805432711532
Pb 9.652988988549854 11.077665955310797 12.734841324775733
Pb 12.047708066744281 7.6536395821635255 7.074888735388962
Pb 9.905858929096372 11.211091058117885 8.98032404656806
Pb 12.508922950031163 11.617266393866013 11.49378152680089
Pb 13.601725417652466 9.908421807738337 8.798109380861662
Pb 11.314332074195708 8.676525204544454 10.734853727247872
Pb 12.21346161558299 5.4372528586778675 9.65083095685822
Pb 11.824463096209877 6.28959816365217 12.663532641360208
Pb 8.962716622951659 7.555593161017943 13.130582413735192
Pb 9.546845570225447 5.772588774833823 7.790097279107618
Pb 6.846922750664392 9.67118314737527 11.777255954123543
Pb 9.283229358650606 5.055247693891488 10.985435200163234
