23
Energy = -74.72733156 eV
Pb 8.652272078579623 4.174537026793758 6.147148989981638
Pb 5.633116166262233 3.7438199941391677 7.155680963121985
Pb 7.884480865413405 3.420484743552347 9.371106642724438
Pb 5.885098254483218 5.890931967590168 4.732055092440944
Pb 9.40338387954858 6.462217612068895 3.7044618125964917
Pb 11.484031910068776 5.747377177867667 6.166828197469209
Pb 6.975457183165892 6.703986155756539 8.307523566790676
Pb 10.432600625350707 5.6614066843010695 9.227389963259801
Pb 3.6169429550158125 6.206432045660215 7.2242947048590755
Pb 4.9920501382114955 5.150074629158706 10.206915366620688
Pb 7.1677882755208815 8.830040839997727 3.650134954344656
Pb 8.913323305069262 8.273191831625317 6.429401813220817
Pb 11.700008180475933 8.50684444231952 4.7140147456023715
Pb 4.973865499789188 8.932314451219513 5.888245996441781
Pb 8.11020515355545 5.816634307317594 11.440904271482616
Pb 11.848945199748615 8.505799369467853 7.943636097176851
Pb 3.8881713329910896 8.8425754483116 9.060849297230742
Pb 7.486496240763475 11.320664195340102 5.775383551189879
Pb 9.280715940639741 8.728911943693246 10.593557799034837
Pb 6.030503620227895 8.225237799618558 11.388392671084636
Pb 9.76308461052536 11.000420567816182 8.126651835032291
Pb 4.5793054019430555 11.66182935638863 7.2915943083406844
Pb 6.819778639111061 10.475213015378197 9.070553794794831
