20
Energy = -65.89401708 eV
Pb 6.705909480912528 8.010015300678965 4.169939459655402
Pb 4.674340055620008 8.82069033758726 6.518322373101077
Pb 8.565971503254925 5.6121801026686216 5.216938498547117
Pb 9.822935633368887 8.665801969750419 4.889696919464172
Pb 7.194323764731071 10.823353788641638 5.74578447498017
Pb 10.324662040100097 11.584165962649973 6.264773631594127
Pb 5.458190161946332 5.749841173696638 6.007467216178263
Pb 12.09466358966894 9.09923223809696 7.271121698513213
Pb 7.572953063977485 4.585132963263839 8.211951443769399
Pb 9.44286067692705 7.2940090800602375 7.88233239138735
Pb 7.175886701846068 9.15284190344731 8.620666894067607
Pb 11.160336913059922 11.391767233018014 9.315854085975355
Pb 8.1735513583852 12.283445660179016 8.544546935005256
Pb 9.975982084714582 5.277155357390362 10.400471961553912
Pb 11.329782778209326 8.315587976680687 10.40508885668254
Pb 6.900492160607688 5.40970996011267 11.304638273877082
Pb 4.933673546470998 6.7405809039216615 9.07011861332552
Pb 8.979391260808509 7.473365981853613 12.516516310169845
Pb 8.700909452730913 10.472918607943985 11.260169400901948
Pb 6.067435411186464 8.492455136884457 11.637852199777662
