26
Energy = -84.44083096 eV
Pb 8.801199129191552 7.33600944805452 14.629287536241574
Pb 8.249299749322404 10.292193771430965 13.944589661679453
Pb 7.525009736634207 7.261439791856393 11.861623355313395
Pb 10.844139229075871 8.590315094943877 12.637953570198215
Pb 5.536472683976822 9.889039076096145 11.866729258282094
Pb 7.255182542510507 12.65327751692783 12.127240456920152
Pb 12.493656124591382 8.806134335565504 9.790203749679975
Pb 10.402382405495286 6.093395645254384 10.299186123590122
Pb 10.499503437770336 11.789763472190497 12.201401665629776
Pb 5.731405159073223 7.5453658681857965 6.94762330011458
Pb 7.364059155231928 5.74976537022246 9.013163646949018
Pb 4.086815439267304 9.490602513121095 9.028714566793655
Pb 8.551539395440756 9.917734957924173 10.277175042371077
Pb 9.005282404986023 7.955814631875759 7.422106434876259
Pb 12.953820363413685 6.097270331445564 8.201494268317244
Pb 10.919287895422096 10.430612362328347 7.69399013184041
Pb 5.293054745271835 10.683611544968203 6.472565124780912
Pb 5.959764610464285 12.194005007675516 9.184366862793452
Pb 9.214229439885521 12.996033021911245 9.478104887437988
Pb 10.103389355947026 4.748893224191419 7.223508791105745
Pb 13.440507225753892 8.775499059736566 6.447355452420342
Pb 10.777667871320254 9.132718602935425 4.622528219244564
Pb 12.20576844742785 6.18325324110182 5.024642466729848
Pb 8.988884490943013 6.336442367332 4.653067054154193
Pb 8.392518126761036 11.824400379145729 6.321135147111009
Pb 7.347551157767015 9.168799686525071 4.572633548370139
