27
Energy = -88.63822188 eV
Pb 5.153985306790387 6.073512057308061 5.410537266276683
Pb 3.2397528209184743 7.418596342588953 7.639394675242411
Pb 6.476819349638922 11.673867471192366 10.16651282298115
Pb 6.357681400047824 3.0825314002895636 6.841985199346516
Pb 8.509834128553907 12.50700643421455 7.886705024106155
Pb 10.781747489215489 6.570292395063165 3.8386980591805147
Pb 9.327098043151933 8.357294260798621 6.589504754420398
Pb 3.5543250939150375 4.231916252508997 7.895909432350943
Pb 3.9492611931778785 9.962691978981631 9.510381980180428
Pb 6.729334926500181 8.572352101814209 11.243145627177555
Pb 7.3341674712259675 5.311444923341178 11.541119010020942
Pb 10.928766104533349 11.35308437495362 6.071344931669013
Pb 5.280217513328384 12.157119955537722 7.217003916927478
Pb 10.245322822182924 9.651999940528375 3.419495233966893
Pb 7.570176121893982 11.048639486509257 4.994985131848265
Pb 11.87656204952298 9.037704915664865 8.55170596621854
Pb 4.058465124212599 5.985538930433764 10.619515055196082
Pb 9.879529367160139 6.927051733198814 10.244733148351669
Pb 5.612375919240521 3.0916146771643374 10.04171907306728
Pb 6.313498961055312 9.182421016725971 7.488056402852831
Pb 9.386585992597599 10.156751008482939 10.255041721787629
Pb 7.5582562843877215 7.713811779848442 3.876607632142308
Pb 6.511518717089946 6.118023670234107 8.432295289755263
Pb 8.871289282306044 3.8798187018437273 8.99808464124559
Pb 12.632417994272512 8.642667540458595 5.466990433178672
Pb 11.543090684636127 5.928384075252806 7.167064460488728
Pb 8.672138466233744 4.9836738095217665 5.674867257641618
