28
Energy = -91.51667463 eV
Pb 13.700391868402098 8.931391506114423 6.4460767305038145
Pb 10.667989889068389 8.958496979695829 5.011521602633739
Pb 11.606060399075874 10.699326125576091 7.906980205155877
Pb 12.599472203601001 7.775682961203706 9.37035573134926
Pb 9.240521665661193 5.946864271636113 4.808674604044813
Pb 12.246119481299917 6.2672421634658635 6.339930717639512
Pb 9.036748831407253 12.009159667276114 9.353304510752997
Pb 10.806301414107152 9.856917338360194 11.03370917258381
Pb 8.615891502545137 11.232628910125927 6.179611235716651
Pb 10.896491757449995 3.54530271125223 6.24718149099493
Pb 7.4007071098183 8.679393038317226 4.27738629014455
Pb 10.706573176567396 4.9318167296891655 9.145624901673145
Pb 9.589404297725343 6.926830066542401 11.54730407100872
Pb 9.240542109115719 8.245922259466635 8.345757287308034
Pb 5.479412785039062 11.052523964750433 5.415632196250704
Pb 7.923241807247631 3.9579036143391217 7.147323592500519
Pb 7.577610998911644 9.735351550460003 11.133552490109528
Pb 5.920704722594131 5.66251625781826 5.214326975456753
Pb 7.789501572627902 4.561526166295068 10.34746258045058
Pb 5.844542109467714 7.952649412362352 7.842159815025338
Pb 4.954290641147184 4.675760176585827 8.809046657303025
Pb 4.095887155355949 8.303439158916504 4.616198152675665
Pb 5.927596707498918 11.576687330455135 8.543741218465897
Pb 4.308505416183438 9.673628809941905 10.577093370839492
Pb 2.9374918301251793 6.271427455828393 6.680232041598838
Pb 5.773251170070684 6.826927526398339 11.366271927577698
Pb 2.9485827920364063 6.952346864309467 9.77540984143084
Pb 3.0954118885534005 9.719584285521028 7.447377891508873
