20
Energy = -65.12753217 eV
Pb 5.8119347198769065 10.827310262177841 10.535335288841724
Pb 10.49381383447106 7.518427857031146 5.855330933267592
Pb 10.754092963978243 12.489963709737982 11.94625722072974
Pb 10.69888686819126 10.010676613192599 9.909931537273858
Pb 11.296846648220713 9.671711274778904 13.169383925626478
Pb 12.87461297538825 11.545647426239784 8.083086041780167
Pb 10.212695970699176 13.155940900431597 8.75914005688205
Pb 7.322494790093758 11.861704140323004 7.7156643362555215
Pb 7.822682634984356 13.19382449994734 10.844633430716438
Pb 8.107264742626045 10.62645040570798 13.016021313839667
Pb 9.019904222213102 5.4895056383105265 10.676365890166549
Pb 10.373942254853922 10.941368108206165 6.237781736765557
Pb 7.96633634034637 6.409449085449505 7.627682843562612
Pb 11.818739124902848 7.030105855704699 11.279329551540156
Pb 9.03612960527451 7.4710553788699015 13.103550647303724
Pb 12.765853876992985 8.414596747921895 8.069764984707161
Pb 11.148337739941471 5.678986984138606 8.330135099471539
Pb 5.644651680379998 8.97591025505138 7.999903240694085
Pb 8.010248192000265 8.559753457291947 10.155368308124908
Pb 7.867295610797834 9.174376195720711 5.732098408683136
