28
Energy = -91.12281098 eV
Pb 5.41695239508695 11.983232552616673 7.0986307573581495
Pb 6.6144785473966135 11.709220112216526 10.135566900491792
Pb 9.943316739110239 11.406831616574955 9.862260701928374
Pb 8.367149643435297 13.213951697762182 7.5759355810036855
Pb 10.743826859971605 11.187700426632821 6.443512059374268
Pb 7.8235970203137875 11.561737653194358 4.876018740174943
Pb 12.081203088804207 8.886930664149858 8.719369549074267
Pb 7.914274917735304 9.856205610715008 7.472194913109691
Pb 11.260710691486622 9.093661007940062 12.026794374796857
Pb 3.3935651062499415 10.763414150112014 9.456601676218664
Pb 7.991436854437382 9.510442352042299 12.689180686646484
Pb 4.813588346679375 9.66607301722698 12.170986159809607
Pb 6.2073285530736335 6.661003039394114 11.478973413464585
Pb 2.999772608678413 7.73268528257007 10.60188638221342
Pb 9.460023485009792 6.523981638546788 12.952168650952832
Pb 5.32325010066079 8.221081165069172 8.611110337358529
Pb 8.901788134732964 8.045753400934677 9.965561399620148
Pb 5.672859547621567 6.938261483305567 5.620284726575312
Pb 11.87400846681835 6.193663624990165 10.87555731762522
Pb 8.655893929407323 6.559906282008021 7.002612467447855
Pb 8.374773522767478 7.441093692632097 3.876475380050844
Pb 11.366434223638793 8.050402831425549 5.619862026742152
Pb 10.478877586472583 5.027599816530502 4.589252806659549
Pb 7.355318703265677 4.365964294074211 4.7315207202417
Pb 11.75352269445831 5.48234842568646 7.754398995704174
Pb 9.220379538941714 3.2744006318072953 7.133018203523809
Pb 6.200700831568416 4.683465198934406 7.9485448805484715
Pb 8.89365887117701 4.75340281391807 10.169811079633456
