20
Energy = -64.41165362 eV
Pb 6.038692290754249 7.348003315681434 4.0715381881003845
Pb 8.158303374598416 9.629626093864074 5.221448503310066
Pb 4.777009160051959 10.237304655066776 5.490374165020213
Pb 8.558394761150588 6.417757981569903 6.053135654145939
Pb 3.3268284384416225 7.076285506341414 5.604634667849364
Pb 11.573918099791623 8.0123146390079 6.14183291023491
Pb 9.770131194240271 4.284007954505779 8.495620410653885
Pb 5.739568690236032 4.777541425204512 6.147127925212327
Pb 9.16819370208851 8.950300849522465 8.310530021534358
Pb 11.250047012341959 4.838072090788733 5.721592960420063
Pb 5.794076415072548 8.08545379320911 7.528778846903918
Pb 12.591787981459062 5.885083642539211 8.393536467745369
Pb 3.6169300661948443 5.65196748705278 8.403052786559051
Pb 7.045816759155276 11.440094180520388 7.792503440634314
Pb 12.188392475261248 8.91965323445398 9.18688055125828
Pb 7.235870949080398 6.1415097463948545 9.487008075247727
Pb 6.9929844715778025 9.646549860507648 10.594945321814278
Pb 4.2152004443245925 10.638006703761212 8.87329641925701
Pb 4.259437332242625 7.941506248543618 10.538046428083662
Pb 10.346647737965027 6.727191947492548 10.592347612043682
