28
Energy = -90.5205935 eV
Pb 11.067348876940509 5.590402066585786 4.916920251019772
Pb 11.319265499312072 4.2922783308477275 7.898474362955999
Pb 8.577640675777696 4.024394636800253 6.002765160895488
Pb 6.226068804474319 6.390198834144801 13.258772450963127
Pb 10.70436114405305 4.120414460509144 11.216708003221767
Pb 12.536445981968022 7.277239255678718 7.240918300457077
Pb 8.188720216228127 4.636948149927445 9.138032945300079
Pb 5.554354035119645 5.944606183151116 6.789220679388875
Pb 8.414163348884315 7.286566875771896 5.639761634794991
Pb 11.406344719650383 8.853139703991596 4.552004596495745
Pb 5.966982992340882 7.063685215707022 3.5607697109184544
Pb 10.382287659533391 7.027569839888095 9.681409670874595
Pb 7.288173986470158 7.862931972580655 8.714060015048
Pb 7.774318473874756 3.754760121988591 12.249549057053347
Pb 8.698479116615268 8.502931745457316 2.622289650807314
Pb 5.263792734131294 5.509053226493134 10.354941067508891
Pb 6.154785969626509 10.289939185314584 3.3734589427043584
Pb 9.318475224279906 6.625864838337482 12.65786530126425
Pb 4.188245995020118 8.764468330365624 5.592081378936648
Pb 4.2361302684602435 11.137011098784308 9.837239217294776
Pb 3.7076087261942403 8.123093815830693 8.729343056348792
Pb 7.588100770278209 10.85311081820869 10.042817120395627
Pb 9.106494194705862 11.17954783902017 4.583400747613248
Pb 5.382424373642197 8.75666462779743 11.529457108373355
Pb 9.860550709869646 9.566571738786056 7.45329958497769
Pb 6.369542089180433 10.76557709850051 6.690271130858995
Pb 8.935648358110509 12.689789896182182 7.54536981826063
Pb 5.980224924897088 13.308219962986923 8.325778904906104
