25
Energy = -81.96393389 eV
Pb 7.002647916698004 9.205959217022357 4.603256224341789
Pb 12.123391876451986 10.146889935811297 5.948136648234984
Pb 9.644929088104428 10.895137939974473 3.9204892897198795
Pb 7.239596274382581 6.384143803071079 6.443849781836621
Pb 10.029073641904658 7.741788550124734 5.195459935881285
Pb 7.250232252390539 12.25684961299426 5.832742682112139
Pb 10.314148820576964 5.5736126859258786 7.965975661920821
Pb 5.168008676858652 9.047734110057588 7.429837986835144
Pb 10.494137837835261 12.948488190616118 6.199585279789882
Pb 8.97531788885191 10.020955722590108 7.198004280782837
Pb 11.313003983760396 8.407939737340882 9.14789858268283
Pb 6.12352298421035 11.130725726621595 9.88322455630116
Pb 4.859132373523539 5.997894913603715 8.797094967713333
Pb 11.801002678538623 11.558717166632226 8.985084134708353
Pb 7.518813802966581 4.287911511874695 9.052845035931645
Pb 9.799405595353308 4.595872295935105 11.184074333562918
Pb 6.967648346315329 9.35153486979843 12.570138648096213
Pb 8.727163656049571 12.828569358261774 8.928277078574311
Pb 12.504610573039074 9.292815443791607 11.975681217674133
Pb 12.44904658230022 6.2793060904922156 11.255571332755567
Pb 7.73122020405295 7.921196500558286 9.494192292885261
Pb 4.566749853079621 8.513802865574768 10.732475735862094
Pb 9.827968061846615 7.56273982680448 12.743745453723633
Pb 9.649862142518478 10.773953914818161 11.447874929488977
Pb 6.628088409120799 5.984183530434118 11.773207449314873
