20
Energy = -63.51424764 eV
Pb 12.618815230119669 7.283159827997628 9.261875792099053
Pb 5.976572717563849 7.573741824781943 10.72947367161099
Pb 4.551690623764241 11.313833352586506 5.960847297466985
Pb 5.439852649486208 5.849215971122539 8.1511648675687
Pb 7.913214490100129 6.150597852431368 6.03210812496322
Pb 9.315772006062694 12.851315356307529 7.330301107514819
Pb 11.270149052857084 10.70180644393424 9.004285607083483
Pb 8.628526498985117 9.198977283483194 10.170170577794494
Pb 12.472254942169759 6.202861398594753 12.241980561681657
Pb 8.548433324868098 5.994499845402475 9.089366176731849
Pb 7.714222426751919 10.795374754114517 5.460703838819517
Pb 8.841045733981886 12.356942896481815 10.42109381256509
Pb 11.079372683021596 5.56207064782841 7.106283675664607
Pb 6.190355124750343 8.771252332199388 7.450981708766516
Pb 11.369056992309162 9.09463803888657 11.948273482863998
Pb 6.3119978367730125 11.679716831542041 8.683028772636543
Pb 6.413682441131722 13.69307440771393 6.212858283242951
Pb 9.755048985298815 8.584168751095309 7.1274381943259035
Pb 11.091857552490586 4.390965308173682 10.162323273951946
Pb 9.174109354521772 6.627817542329733 12.13147183965576
