25
Energy = -80.73508386 eV
Pb 6.590868812079566 6.2331254173675426 4.837726301339114
Pb 11.439243402087925 7.954232929497206 3.9862228923411944
Pb 7.966642459943833 11.23826583063942 6.313253665937104
Pb 9.356016000983605 5.654744623045956 3.6380985227618696
Pb 8.535250180788276 4.705807058367793 6.889249944943722
Pb 14.040471840792803 7.176750420026795 5.613673391848872
Pb 4.9554002701762965 10.553757809362642 7.495939848462874
Pb 11.634420990947964 5.243955015823361 5.965795927342912
Pb 5.271872161467765 7.282990578199419 7.5813821581754235
Pb 8.846382104286523 7.993116411376358 6.20286865552775
Pb 13.325848898311277 6.8475851908015075 8.643437670442918
Pb 11.717161233168284 9.194674178754303 7.010629924981176
Pb 10.171390648712254 11.81881238477576 8.509678859281063
Pb 7.002065774270403 12.61030043936769 9.167481407252598
Pb 10.221488819844243 6.607977359992472 8.915744563730975
Pb 7.524998794214256 9.311089363352218 9.246557666124994
Pb 2.712330244436164 8.619222641561002 9.257729955405145
Pb 4.545929441404266 11.007895652654339 10.656226471841048
Pb 3.7192124901104497 5.666416201347636 9.86106478851082
Pb 6.958606400399371 5.816004319414601 9.950103648161924
Pb 11.61480331907766 9.475256057801415 10.276539745002825
Pb 9.137173137059149 11.291840401057195 11.499809541912406
Pb 4.8933995551753835 7.87247420462216 11.637806289447488
Pb 6.771403667955705 9.905614137209264 12.981464967140564
Pb 9.007996826974932 7.8784688482492315 11.821890666751907
