22
Energy = -71.02920173 eV
Pb 12.50978346779072 7.613780152724943 10.7524804712133
Pb 8.541781967820391 12.243037568669308 11.831626539202377
Pb 7.52407566381579 9.302301952530907 12.491067447225198
Pb 10.80745391432847 10.109295200416135 11.725137399746535
Pb 7.474757577408741 5.0257962302792745 7.27728227624812
Pb 5.001608410868339 6.039016264334315 9.100618676715763
Pb 9.535608731888289 6.924017404854339 11.729640096496059
Pb 12.832270900080236 10.438248212887046 9.094712285110106
Pb 10.03554760842818 12.19339150792129 9.011445501473764
Pb 10.362836922030388 5.66542812758205 8.942828472886369
Pb 6.046402221481827 11.20016192217799 10.18618681396384
Pb 7.575201615264958 7.8604707621840575 9.35457903450538
Pb 4.753519038567384 6.417771924055555 5.962200655130382
Pb 4.6210480144521595 8.59033456780342 11.114787168879364
Pb 12.437216893934558 7.566443838992546 7.526093096510909
Pb 13.831953965110547 9.734160252569266 6.040841535166638
Pb 4.475639157962582 9.089713951445267 7.822507764542967
Pb 9.34000687689719 7.779469324638406 6.453589672756902
Pb 10.946340597810616 10.733297642505574 6.327782262842052
Pb 7.712801847848136 10.47584612266364 7.489353759134855
Pb 7.536227127930963 6.339340451920832 4.4007164714278675
Pb 6.16816014071288 9.214417502001991 5.0883758493520554
