28
Energy = -91.58699686 eV
Pb 4.300646976494204 10.181424838258911 7.285269002895006
Pb 2.608395047535851 8.00689501305528 9.445027288283434
Pb 7.277168938173024 11.254928989067043 6.129788252176844
Pb 10.789109082252587 10.853379836848845 6.578945560663037
Pb 3.7548685400304374 6.8715464731443685 6.713666946029703
Pb 4.231408329105709 10.353463593976183 10.786621856095975
Pb 9.123486304319542 9.682675430583323 4.006212778407857
Pb 6.00904512906506 8.57481320019534 4.762780756969258
Pb 9.12510331080374 13.074243117631625 8.05744595945098
Pb 4.237917563718447 5.191577441804451 9.800134058725739
Pb 6.179429811661617 7.954681741285197 8.9002497958047
Pb 6.639589266580543 11.724530405534361 9.368189474738793
Pb 8.921093259358507 7.786430225555224 6.817767663753568
Pb 4.545797069256275 7.420458552647801 12.092437451473467
Pb 7.503737927896895 4.069898086910988 8.507598493767942
Pb 9.192412922575862 6.485414752690232 3.5754595013679205
Pb 6.63266910769528 5.462929302270986 5.219252262450093
Pb 9.873657798801103 10.699709565642967 9.95336605338487
Pb 4.807796917638568 3.755068000846706 7.012775481732848
Pb 11.877163794548641 8.033168775162828 4.942781921262919
Pb 7.284949205810247 5.965479246103395 11.33488621406344
Pb 7.244625979323208 9.375924074460388 11.866547623766778
Pb 11.921594619609133 8.359834622769503 8.409613364155483
Pb 10.03593584844908 7.755605385373146 11.077061255747493
Pb 9.632749112965136 4.167890024810786 6.024166174772493
Pb 11.911696570374358 4.856300562735744 3.933957336779221
Pb 10.401544312569042 5.251236867844337 9.165379190979197
Pb 12.599145708607567 5.493230328009868 6.8953567355204175
