21
Energy = -68.95974086
Pb 4.479539063268635 6.69919878243031 10.346705893774962
Pb 4.461369997404842 3.5290037435097807 10.059867796638477
Pb 7.340431046809265 5.154299490244447 10.454774313583
Pb 2.5006708372657207 5.2120198072419015 7.932902210136992
Pb 7.338075470416329 7.789236099700088 8.30365471653648
Pb 4.222082829844245 2.35023615657552 6.9961221711006445
Pb 3.9717945606922433 8.283771009094021 7.613957434552398
Pb 7.269401086892988 2.3166373047125424 8.878294404935673
Pb 5.717162188314618 5.140669784175466 7.437844010355202
Pb 9.011911480407491 4.856511646870875 7.580637130875965
Pb 7.509210892862302 9.880681302118186 4.492643038104544
Pb 9.455601846920185 7.367729675490791 5.528222731522619
Pb 6.191932035750732 6.948121735557598 4.719389287532669
Pb 7.265134359938592 2.3836628587895765 5.696645584220167
Pb 4.2008266209515535 9.565285778827139 4.741757740120909
Pb 2.8118326893912085 6.663742417502416 5.052125449048349
Pb 8.43821514076192 4.616069340716944 3.731771220018919
Pb 5.753468328765405 8.764847233484105 2.00474040616103
Pb 4.902662792363679 3.953176357320247 4.000056861307266
Pb 8.748292626038255 7.582978913849525 2.3788346499413944
Pb 6.260510844153447 5.688381701002263 1.5040772887462321
