23
Energy = -73.91341601 eV
Pb 5.831184901507196 9.473189363018243 3.0550846309895845
Pb 10.884487799662699 10.850942707568692 5.607500244530109
Pb 5.4495738350720835 12.038781980955573 4.737407231792108
Pb 4.360687976515077 9.088163519827583 5.860613460193053
Pb 7.825346251423577 10.005904572618512 5.727629685081045
Pb 9.012829695531707 11.868662469884024 8.113112003230924
Pb 5.686265746743091 11.473489513750643 7.858329931570545
Pb 6.987739680993644 7.079492301220851 4.890477955344161
Pb 10.131364730549317 7.563458035556858 5.533501572226427
Pb 6.396842578997475 3.7676730853309253 9.310297893518152
Pb 11.401782912805192 9.375257970658764 8.165386830441477
Pb 11.041477231057012 5.288448015411548 11.577275568500603
Pb 5.214370362825438 5.884752627403735 7.211403166901425
Pb 8.364329247343587 4.529337004451573 6.656907709874024
Pb 12.059695819363224 8.19868026283364 10.942597657445983
Pb 7.353538704187445 9.587847419684985 10.052446155068811
Pb 10.015427788040252 10.7039427563726 11.031599346746118
Pb 11.259986101106847 6.066546888083893 8.222028947930903
Pb 4.6077873034725005 8.55190392730373 8.983688156916159
Pb 8.016874992548471 6.647559198602622 9.088298162887307
Pb 9.06932440426907 7.803865640344332 12.40647776475329
Pb 9.604226797497727 3.4551986220826256 9.408684895400345
Pb 7.818765890745526 4.873183555572687 11.895294343495648
