25
Energy = -80.99268771 eV
Pb 10.854236093405966 9.52957028032482 4.227287571127031
Pb 11.146710186555433 6.609747899729258 5.309098184705175
Pb 8.067522220294132 10.922143042511559 4.624087501693113
Pb 5.522542250485089 9.167679956272721 5.2302412450800775
Pb 8.089803594629053 7.391788910124727 4.910552084079064
Pb 12.785638792539507 9.082825615901793 6.864646401275899
Pb 10.593885600185082 11.801795984502602 6.511323300465484
Pb 5.879587239490867 6.833238942466017 7.579072563879688
Pb 7.568962675540113 9.963191466022838 7.6848363321216295
Pb 12.192931985270176 5.742855305562366 8.141275643341956
Pb 8.935551686730744 5.397414732504127 7.644379339805997
Pb 4.318523991428412 10.012275682512236 8.047233747452298
Pb 9.089970846855621 12.7257745074539 9.198016696649052
Pb 10.05330413884653 8.390078504273385 8.88377515006276
Pb 7.084936577783701 5.794517807306605 10.452712183041795
Pb 4.703514731644246 8.175789141299347 10.447216528001794
Pb 6.121620337244177 11.698017528822634 10.192995333867255
Pb 13.337616260189037 8.102515769144821 9.89210946656134
Pb 8.898761466790365 11.089109360311882 11.89976564750805
Pb 11.947229993378585 11.112444852712473 9.46881755464967
Pb 10.384412464590023 5.84878601735889 10.874601134330007
Pb 11.431302801337793 8.92274624865141 12.178451798681502
Pb 5.561265745613506 7.0038736193403714 13.117830035409716
Pb 8.591432562471285 7.8389030851034 12.83522488204301
Pb 6.090775116446495 10.094955099531576 13.036489033912284
