20
Energy = -64.97052261 eV
Pb 9.540207449884267 8.328996370617087 3.850823650796006
Pb 8.606361022715625 11.293835127371402 4.544148982946807
Pb 8.337061308804511 5.625553535532156 5.194868535434799
Pb 5.5411756516923205 11.06646213620306 5.7491091678130015
Pb 7.130287532298604 8.447628539949646 5.966770801868224
Pb 11.042284400347404 9.789995318446552 6.435419365078598
Pb 4.168391344108368 8.41288705330088 7.315522625225506
Pb 6.141925388136116 5.822262425782431 7.770396981312398
Pb 11.25291037410586 6.577505964798312 5.89131987018768
Pb 8.248267652178507 10.954965035264788 7.706089991633081
Pb 5.314643471320537 7.967678272747772 10.319836043449323
Pb 9.615282300946967 4.840691211543023 8.382649902502045
Pb 8.54870877611947 7.983285594183101 8.965081628972523
Pb 11.73234958397193 7.347599342672909 9.00579996557766
Pb 7.55296837061486 10.439468286413295 10.966422138726678
Pb 5.064077324234064 11.040659405858607 8.889904147447545
Pb 7.223195149285621 5.087646368880679 10.79597542621546
Pb 10.440661143566228 9.040356165132614 11.528626877005234
Pb 10.226933787442233 5.819106335734673 11.552442533078391
Pb 7.753070403299955 7.594179944640706 12.64955379980219
