29
Energy = -95.66663179 eV
Pb 9.390770903290202 1.9982725401323884 7.9916523569131535
Pb 7.002363936165978 3.79640556871926 9.440807804528886
Pb 10.146479883186565 5.121432535720674 8.816865463798129
Pb 6.28634801017028 1.5823823715967826 7.056035146667228
Pb 7.867714265631563 7.544162887620627 7.043126220836878
Pb 8.023152780800999 6.718757670595325 10.766586196084514
Pb 10.361535122153038 8.587180918375704 9.357543693692826
Pb 5.197438030307822 7.292569559670851 9.261454894312838
Pb 8.719285398954575 1.4595255788865125 4.828499484858321
Pb 4.779003479551477 4.573413886420503 6.916649731857579
Pb 10.925149794529265 4.128705831911894 5.334027629880111
Pb 7.909017365160653 4.450540278846651 6.248479836291392
Pb 8.337497705945786 9.944276129363644 11.579832818510672
Pb 11.400904579100224 7.199846244534687 6.5248757171646385
Pb 9.748368686498742 11.83098980136384 9.221931058798326
Pb 4.984306776575291 10.349578089011265 11.417579329970744
Pb 5.81346929166422 2.949769330153286 4.141233687410998
Pb 8.632473123643228 4.177251471260415 2.949557662285977
Pb 9.725756393615553 10.117233372192421 6.386640180674358
Pb 9.454364873759406 7.167359436230547 3.978459048926475
Pb 7.080506731535508 12.852563601861558 10.782450258129186
Pb 6.626971968856994 10.171209616235085 8.566662000888305
Pb 4.356189529316843 8.21015627555599 6.155303562517401
Pb 3.1192961102841514 9.82361838370938 8.781164821307803
Pb 7.2423775129557555 12.891235307253037 7.20761167978177
Pb 6.932547863108797 9.858616621222149 4.746898529785147
Pb 4.376928514366586 12.799030515317009 9.146762474586266
Pb 6.251300694288065 6.421985669772447 4.0192065882565435
Pb 4.427359631996179 11.492092948903446 6.188483131166289
