27
Energy = -88.17424294 eV
Pb 11.713808527140827 10.727826996858239 9.55841810317928
Pb 12.830187802668215 7.70358755552602 9.588837266421624
Pb 10.576328690329959 8.68899152485246 11.742075908127868
Pb 10.514252290152477 5.627320631176787 10.597494588244235
Pb 8.423294942004441 10.829302697774075 9.785686312474438
Pb 12.024766235185021 9.031834411790507 6.713211535213621
Pb 11.151641462692506 5.878623486792092 7.355767370244174
Pb 9.907544432490443 11.795016364830778 6.965119236161743
Pb 5.766371897347542 8.944187240746723 9.94421261666163
Pb 9.420991739428354 8.057307563229609 8.739117378140605
Pb 7.2855842405482365 6.239109819242535 10.896028187625047
Pb 6.58641438658791 3.1542371728336547 11.504284643374719
Pb 7.1716365438696466 9.833898388603869 6.699433584487804
Pb 5.285169015815818 1.642385158959394 9.198323194799217
Pb 7.72196400912764 3.819327878833579 8.594496994758586
Pb 6.188221233173509 6.63114924748208 7.528830962023821
Pb 7.6896615362720455 12.157960047013592 4.475258788469095
Pb 8.582158254960596 7.111634601651681 5.370352057625005
Pb 6.677653260092142 9.167357788728095 3.2998298639253227
Pb 3.781840390980649 9.012572080762551 7.40060701607099
Pb 4.671759087541348 11.251372709362341 5.08272624545906
Pb 4.436694516052644 4.73863056654095 9.61260964796934
Pb 9.879426672815622 9.82639462949692 4.257480197072621
Pb 5.183247081382797 3.506567241136107 6.6481303588166885
Pb 5.7574413603347585 6.021042696877526 4.133402947214639
Pb 3.149214320958265 6.075513025557284 6.155971435733647
Pb 3.573964583111215 8.47808698640447 4.103532072769488
