22
Energy = -71.25502487 eV
Pb 11.663379340025207 6.332361645351088 7.267862560830025
Pb 11.71307410458036 9.277284332598786 6.415920376683383
Pb 10.996761198360097 5.244571236375867 10.175436960913322
Pb 11.275153269494064 8.579833765938595 9.746282774359456
Pb 8.402143633871589 13.51844466795744 9.464192454371327
Pb 10.868954072309325 11.689775213821042 8.264658851996419
Pb 8.506458509175541 10.468966408225999 10.093024223049635
Pb 9.178149381441703 4.140826072842967 7.482031250145793
Pb 8.173272975261868 7.119999439369831 8.597127794619082
Pb 9.283193819289966 7.0919297743107865 12.092369458598673
Pb 6.030979337288566 4.131391827511803 8.454956409260616
Pb 9.145593038054816 10.838902975701824 5.298764077446765
Pb 5.435867398801108 9.491991741328379 9.243099764472923
Pb 6.596020144499458 11.870208100806947 7.373136788365441
Pb 9.12259259229857 13.752660626690625 6.463909546478956
Pb 6.736231796609597 5.525932131643438 5.66561964753169
Pb 8.085866150896422 4.281958065066087 10.852549907405248
Pb 6.439433491207755 8.929280820179164 5.873169043055564
Pb 6.821895986386654 9.138720300375821 12.22598178719404
Pb 9.278785744730667 7.433853127356133 5.124133271859319
Pb 4.552977772978965 6.895172424470046 7.64721431531813
Pb 5.653499607683899 6.450332709647069 10.881945151440643
