28
Energy = -90.26367264 eV
Pb 11.235656242696697 6.7435750722838845 5.3207369131140245
Pb 9.065856573719055 4.77463564425515 6.809095867654835
Pb 6.471610593825636 4.45696113973492 8.971445723970023
Pb 11.032265424270342 9.187619982194652 12.080908283550597
Pb 12.31768058112725 9.877972114294478 6.481937939948948
Pb 7.413697104738206 12.374138426771921 8.385482295091043
Pb 13.255398855885751 9.401139919940853 9.645880731072392
Pb 12.408163364867772 6.41263196903773 10.56517524527031
Pb 5.077986523418457 8.46842858969823 4.250005947024317
Pb 4.367083196842757 6.939577333118834 10.15799597372198
Pb 9.166525327479688 10.746502983593087 6.21951874707859
Pb 5.42491200368115 8.884123614440025 12.367995784179758
Pb 7.109327306026677 10.815706057843041 3.6429003283715584
Pb 9.698628544362132 4.526223980167986 9.903581291500965
Pb 10.348716006067777 7.666535838296228 8.3924752376856
Pb 7.103112404835296 9.071463663356248 8.413793356179454
Pb 7.388947982752416 13.355458277315442 5.396041518426519
Pb 10.418381892265918 11.081452828760938 9.287156985562364
Pb 7.627344186406194 6.960927791007491 10.832877483387296
Pb 8.267526353466334 7.943299553316974 5.227044216377934
Pb 3.726578815994026 4.9961388543160155 7.66508358423736
Pb 4.202813649750781 8.157065203372587 7.212904747921358
Pb 10.16572926692514 6.02374969591261 12.823248042821652
Pb 7.786414219063313 10.692997363470448 11.306499294201036
Pb 8.226944171135198 8.315073676396977 13.671374784106018
Pb 6.149200325550482 5.507865813752473 5.742811920025071
Pb 13.553669791856258 7.139829358090669 7.421616594096873
Pb 5.053193765062758 11.237469753511935 6.160975320742668
