24
Energy = -78.06146012 eV
Pb 12.580341083999205 12.531759217619584 8.973216799206265
Pb 13.101109056087775 9.90424430854593 10.814000789971958
Pb 11.130175677568392 8.612786137323933 6.137463349537426
Pb 8.869174346789059 8.546854390779012 8.826561131676996
Pb 8.769152029075277 7.131452200209474 13.44191254651609
Pb 6.6140090485416945 6.746797607572797 6.64354317981648
Pb 13.63845949116967 9.803487117459856 7.6117173483644525
Pb 11.619058361416666 7.4650258342636775 12.216728330567095
Pb 9.38180455451278 5.828087206306881 10.492421118825222
Pb 6.5601465118374005 7.512364653195852 10.93792429683591
Pb 5.287132388266226 10.524555024418989 10.948386545492623
Pb 11.661959665491239 11.837038414923367 5.921549210467321
Pb 7.794175007826282 12.288488311214184 12.045959603049429
Pb 8.786430870686626 7.523564640971098 4.3069851075108065
Pb 12.114027534554431 7.10812442187419 8.996312432212413
Pb 9.744116813938003 13.470287443727477 7.9418444332085105
Pb 10.007649707515036 11.084361455515134 10.171141991632165
Pb 6.8037151460627605 9.558808242157953 13.538429742170045
Pb 10.070254328856281 10.164749943261622 13.305118903870568
Pb 6.87796144670982 12.410622750583677 8.84136250719483
Pb 9.649707862669807 5.833682952955063 6.998927198271141
Pb 6.250780879400253 9.322426480206616 4.65481672618368
Pb 8.552927100594975 10.695873283643301 6.320208222162075
Pb 5.799841941449862 9.511746325697638 7.950764469809433
