24
Energy = -79.44520115 eV
Pb 11.458021800122692 9.018686097561625 14.910390434817687
Pb 13.361766404892915 11.075863156958567 14.236564089850406
Pb 10.335553505255307 11.630112246085275 14.109451869060619
Pb 9.048456190872415 8.973448600982806 13.547713562014135
Pb 13.995173369337651 8.60943446417954 13.017884218275642
Pb 11.005809943642332 7.11507030663907 12.023405360885885
Pb 7.5254041334564885 10.934712145905344 12.00096374763282
Pb 11.256030831773405 10.349453289550112 11.659842509998393
Pb 9.637006423690288 13.677351668096636 11.253131600463826
Pb 12.244992401950864 13.248456142203198 12.27009636777825
Pb 14.262717693666646 10.930262851495987 10.871137649280541
Pb 8.26196445219411 7.999969956748182 10.583537711063165
Pb 12.170091465467278 13.201770588424873 9.467868565470845
Pb 13.447460613247793 8.198257454175268 10.37160381113721
Pb 9.831882654171295 10.638948236690679 9.457346175323547
Pb 6.331271913943383 10.251023596004783 9.533639440036112
Pb 7.046049989186266 12.897631214656991 9.876061731717588
Pb 8.139313945204526 8.345057926921767 7.774054894056107
Pb 12.87403876827877 10.420326068396804 8.114991077930034
Pb 10.662622300625879 7.546820263434406 8.897390091779052
Pb 9.579618472444308 14.05737021735535 8.382115468576483
Pb 8.044009434794287 11.322019007375026 6.914909661227217
Pb 11.00554309115512 12.19257537700812 6.611998739125294
Pb 10.662622300625877 9.552801223149347 6.301323222499253
