25
Energy = -81.62604477 eV
Pb 6.037058622434863 5.213400675048351 6.434736608889866
Pb 9.709457294677131 10.595215306461707 4.859062681549291
Pb 7.840135958514467 7.542740233412953 4.968105984691803
Pb 4.854689103059134 8.271913657534633 6.660549740254517
Pb 8.004227783571695 12.91436390316663 6.45898517376258
Pb 6.438573059622347 10.524485127577579 4.96361265184622
Pb 10.98939162979484 7.554078358322426 5.864835549042321
Pb 12.690040888765447 10.223496936686663 5.922732683897294
Pb 8.361300128672882 9.713620756663442 7.8942886589012495
Pb 4.345807144085028 5.982182011897639 9.062464854318298
Pb 10.868160242693353 12.105686542080166 7.8455086155562235
Pb 9.128839026707467 4.924658596403975 7.033341974288685
Pb 12.1089134306058 9.00527319225045 8.78338025761068
Pb 6.849331600405328 3.881838879437379 9.374718192335575
Pb 8.220613415210934 12.890575240686573 9.640822310303811
Pb 7.407444083455916 7.163177439193278 9.657049313239861
Pb 10.1955123491205 10.531451954787684 10.959785093810659
Pb 11.936293815167284 5.859501843419919 8.386622307274504
Pb 5.472592015606835 11.506856785473706 8.055471376706302
Pb 4.4253958135519325 8.927692144673355 9.855099407281939
Pb 10.95014174706563 6.928704857339067 11.325029524033924
Pb 10.034657812043513 3.9194238433605095 10.078645851751
Pb 8.061749889163762 5.235801221914826 12.18623144462128
Pb 6.8197400595753805 10.505199244458787 11.205366070176602
Pb 8.476025352706792 8.304753514026087 12.749645940133602
