24
Energy = -78.26037529 eV
Pb 9.38245691270591 3.528077711341535 7.819679176285442
Pb 7.667284647255895 6.135565192130199 5.993389027830473
Pb 6.136886138149869 8.62810423190677 3.877351152216554
Pb 9.381318019216152 8.740000413086795 7.825512578003755
Pb 6.138070735996222 3.6467661297043 3.8730262632441677
Pb 7.7200844426776145 1.5924604187885352 6.089401794744519
Pb 9.407516936798055 8.416940323587975 4.465527923848266
Pb 9.408409323204694 3.857633300128663 4.460634846986393
Pb 6.1312580930764256 8.896200891050652 8.610274928648051
Pb 6.132599332010222 3.3677755744345466 8.604988552644217
Pb 7.76320908237487 6.138797485021315 2.509360886111858
Pb 10.826672819665456 6.135592704411824 6.642084123635901
Pb 4.602725330154057 6.134684421327879 5.9895997241943855
Pb 8.015324490008311 6.131913835953428 9.263043479852152
Pb 4.246937848761192 6.130925064865662 9.257991792006694
Pb 2.8830150807203188 8.738325153515667 7.81744809780443
Pb 2.884341313912508 3.526472773129735 7.81150194444224
Pb 7.717955287415901 10.67810063224552 6.098795310953646
Pb 4.515024369494973 6.137992153471141 2.505367268643166
Pb 4.549711222320123 10.677434681671475 6.095149027104696
Pb 2.865131248571476 8.41543054976905 4.457525072161625
Pb 1.441695602368357 6.133283842355935 6.630050420654178
Pb 2.8662591477229014 3.8559140189405343 4.4524960915905805
Pb 4.551946237896162 1.5914416195529923 6.085634448912695
