25
Energy = -81.4793701 eV
Pb 7.541929309610379 7.546578996320038 4.121581743193904
Pb 9.129513777559206 4.944141223909869 4.9054414934232495
Pb 10.446616112341763 8.16946325099142 5.622924498440628
Pb 7.674202490683798 10.38276324015268 5.696750340530847
Pb 5.948976250182976 5.329581208646672 6.268059149951833
Pb 4.885452384410971 8.557401259910078 5.4202074884420774
Pb 11.257195639017405 5.278765966557773 7.337572404537091
Pb 10.58051834221836 11.219745322903153 7.059337674274847
Pb 8.446910477556246 3.4161278305809772 7.572554674844892
Pb 8.392059840559948 6.855402396596275 7.68391431837732
Pb 4.850965234772832 11.139012927808409 7.317514971444272
Pb 7.620509568339692 12.482630421682599 8.497570225680805
Pb 9.800577170349344 4.697332548234803 10.127982165798844
Pb 13.410070536404563 11.384335307614094 8.572376645683491
Pb 8.172680605347887 9.486837423362456 9.56372717303606
Pb 11.502457159001315 8.73142185014189 9.162645183472558
Pb 4.660052507972571 7.987086405340211 8.566322108802165
Pb 5.244717810118155 10.97637348048492 10.43913630972778
Pb 10.866403546096862 12.21333159378351 10.220297050994237
Pb 6.467229260738249 5.104132457881062 9.714863985956088
Pb 8.063931024082406 11.942599633453563 11.752747800991157
Pb 13.285653164850165 10.248144283688681 11.439909892307497
Pb 8.50831535593913 6.958409418076754 11.835808313067451
Pb 10.303526687858428 9.628426863161934 12.236341234963108
Pb 5.630810811122083 8.011229755850355 11.555688219192985
