23
Energy = -74.74658792 eV
Pb 9.589532779399189 10.26871346573882 10.721917962403328
Pb 12.376073492531996 7.962637510666568 7.271315482431249
Pb 10.67217089977058 10.762879158778308 7.504664051344207
Pb 4.832215263553734 9.206562558072346 10.228492424133764
Pb 7.868678199884313 12.166560333721579 8.360868375146904
Pb 9.4402007007971 7.895925248323248 8.498926635912515
Pb 6.724039829513373 11.667262122925159 11.4763537740421
Pb 10.909831459410563 9.085512367635767 4.681103919521449
Pb 11.31217644793244 5.25819558641893 8.412107709800859
Pb 8.101712290998176 10.639680706618362 5.248123528808166
Pb 5.371285827316471 10.367901228896695 6.982426115481423
Pb 10.537199288885006 5.774043403301018 5.172671998140072
Pb 5.585758603635306 8.240054632238987 4.753550588102871
Pb 4.728096125865252 12.349087404149927 9.23926358408159
Pb 9.494608035484749 7.091837843441525 11.633415726230318
Pb 8.968786831980328 3.53479639354187 7.029427385555106
Pb 6.46051403714882 7.44647426264554 7.889141717672005
Pb 7.0680338922859525 8.861514470604908 12.67119781808323
Pb 8.42577130323598 7.714208364720263 3.5059304084443936
Pb 6.970801921140311 5.361900827108663 5.317124731091986
Pb 6.100144199701998 4.316442375043477 8.315194402479104
Pb 8.803938442689798 4.274358220059356 10.182503716984195
Pb 6.313078907283154 6.188052662265689 10.972426990977043
