23
Energy = -73.54011998 eV
Pb 11.340201477112924 5.810299248647606 11.22469132317762
Pb 10.512506058966792 6.717141384314318 5.165373771497979
Pb 11.178015532747601 8.952233359508806 7.172541432064514
Pb 10.290502249371524 5.852868501156157 8.362365417819031
Pb 9.808868833134957 8.078322595928842 2.3757596071006444
Pb 8.769745913363215 7.056760276389984 12.612580252455249
Pb 7.828358339104052 5.6091937618746535 3.8808345339430903
Pb 10.473375190902733 8.822688885893433 10.348859445150184
Pb 9.310356443189017 10.129219274107907 4.842305395879526
Pb 7.7070949292343665 7.393122170757131 6.892246704342119
Pb 8.219711099758777 10.665712031764343 8.16375845698185
Pb 7.26952084450556 9.045309649388082 10.833091000890633
Pb 6.8989936409674275 8.553996077526023 2.937548974979876
Pb 8.507932268237015 4.132649889017005 11.353632039542823
Pb 6.008751901214542 10.394262225742693 5.406422599637428
Pb 5.8046241518514705 11.66268234512319 10.874052214949693
Pb 7.452490647316448 4.491875882236567 8.463065288445682
Pb 5.933049697109514 6.115691826525622 11.127980820192452
Pb 4.789893388321129 7.310859563088027 5.089993746339582
Pb 5.360998287713946 12.203562837177628 7.887959695630427
Pb 5.777433297864554 4.200384483294206 5.917047042693823
Pb 5.045228152279963 9.089385993303763 8.486041772689232
Pb 4.438722753891247 5.884733180396174 8.195801472100701
