26
Energy = -85.01839587 eV
Pb 4.9777627377692 10.988523278327142 3.521051269562454
Pb 6.237174414165318 13.039007168848608 5.672457608053589
Pb 3.555235600628261 11.347053892987404 6.435461564671736
Pb 8.444859400913424 11.140385048123093 4.052406889721484
Pb 3.796834678001838 8.380341394871813 5.1220101627771495
Pb 6.318872721420156 8.139792046619817 2.9906197595261705
Pb 6.765614670609598 9.681818661781817 6.2428107599817375
Pb 5.827591526136702 11.909013897002463 8.804524480957166
Pb 6.067904560373191 2.846167401406604 5.276802470518961
Pb 8.79098420006169 12.526815346175447 7.530922278178484
Pb 9.224711750373025 7.7910308767558885 4.482417497447175
Pb 4.662686969278013 8.819114507594438 8.452258849612742
Pb 6.662724585045711 6.1573695373961845 5.626910848861034
Pb 10.34738020819967 9.895651117402466 6.680688849015981
Pb 9.15500498414531 3.500664751234281 5.11430026374098
Pb 4.668597921199627 5.253128932960386 8.07194392747792
Pb 6.8727721181371715 6.9889269498880005 10.288239275771383
Pb 7.63780404449358 4.099008439442745 7.943455458820993
Pb 8.143078922524069 0.8557925920248184 6.90391716705276
Pb 9.415814352282863 6.992397478133648 7.785879438079017
Pb 5.3497606489734295 1.7301224876497296 8.409709588082299
Pb 8.309903378237305 9.762565420543838 9.34014708659101
Pb 10.523194181908648 2.796368672018087 8.105183236677654
Pb 5.91948038474345 3.9368827599675504 10.875040748299527
Pb 8.19365080080116 1.6405007274298096 10.117920017609984
Pb 9.200964004590126 4.7379845312504845 10.7076808660487
