28
Energy = -91.78318279 eV
Pb 4.880550405230431 5.445008013026275 10.445192645596483
Pb 5.235483806619082 11.786748275688295 10.471935889340017
Pb 4.80849163954464 12.683990787689028 7.493691488134956
Pb 10.850416488314362 4.562444350389358 9.094141542749442
Pb 12.529839251697755 7.203172785230235 9.39563087960927
Pb 4.359004217623184 10.001111678498424 5.597854136820779
Pb 8.707957741690745 2.3025133795322343 8.668064290656273
Pb 4.521628926591731 8.605935246714532 10.975316072759673
Pb 9.165783894848182 4.0037090435714795 6.090606887806361
Pb 6.942867284094184 7.075854881601137 12.400765110704238
Pb 9.441775446260795 5.968614029844612 3.742383779293581
Pb 3.0731500914608447 10.2021872702547 8.512984847766704
Pb 6.2281419049008715 4.131164156529721 7.924682492773372
Pb 9.91743523240121 7.204622662542615 11.195245766645707
Pb 9.500054819080313 7.481573669741656 7.124272594720544
Pb 7.836679358096454 9.905962777021394 11.131199354953944
Pb 12.76487662024262 9.032576378096806 6.910621914104775
Pb 4.306138449164677 7.220121366652116 7.696669326652008
Pb 6.6129264666438425 9.505153464498651 7.927029483154578
Pb 8.008296479481038 12.352702345364124 8.638107336729965
Pb 12.044525639438527 5.807401923110422 6.002051516445755
Pb 10.11406419612981 10.897321319314896 6.231185167412068
Pb 7.909938378976264 4.417967934392062 10.896300172601567
Pb 7.083523053134678 11.824882637413632 5.455565710590963
Pb 10.760795721257391 10.003511575126334 9.40337296107066
Pb 7.890988896679575 8.913954778335059 4.275688584935368
Pb 6.567660900474557 6.158715448742209 5.364805219205346
Pb 11.187055209577029 8.551128340733305 4.184685346420633
