25
Energy = -80.62779384 eV
Pb 9.554426815273473 10.168560523102329 5.03393491522423
Pb 9.182102997680802 4.521368599185036 6.425790006437335
Pb 7.531590496404784 12.09407551849778 6.671126750458381
Pb 6.0241878220839595 9.722846354452418 5.239059515890049
Pb 6.0677395222785195 4.444571804941134 6.911541416675523
Pb 11.033491434158934 7.412277852250778 5.506862609704869
Pb 12.726377396365661 10.196273919285968 6.289010414277799
Pb 7.649638528386977 7.201922186322904 5.902148893575794
Pb 4.406374629092823 7.346759429789635 7.011091674567407
Pb 10.291206640461217 11.347764991549118 8.082999539399138
Pb 4.984107126557047 10.6721858548485 8.19439614337123
Pb 11.298422497917931 5.835051158637862 8.508443270190886
Pb 13.761233887914488 7.312566902246858 6.985840056128797
Pb 8.779457307907247 8.43838849769029 8.618056521258124
Pb 3.9284121312458007 8.266567334331304 10.14860548756015
Pb 7.532622139988821 12.470903683334576 9.879938778159271
Pb 12.054391518167625 8.907918694505918 9.274612436106798
Pb 8.124116067682731 4.710581152094974 9.544221182797585
Pb 4.927173556200267 5.323092205372711 9.629373243982911
Pb 5.618392512742981 10.558343655839854 11.455551396619436
Pb 10.581440035519808 12.427417315052999 11.061873674173281
Pb 11.734424741901625 9.808800294341115 12.3390200905257
Pb 10.168748282618123 7.009146167700126 11.401275462328702
Pb 8.662327300609192 10.04301116389225 12.201900236102118
Pb 6.963975967941362 7.345986097835763 11.26970764158668
