24
Energy = -76.9255534 eV
Pb 7.986024976253602 10.91971650689894 5.1811315484261415
Pb 10.546280711496893 9.15343802394014 4.240543383612669
Pb 7.986179460008241 8.063731004573302 2.8255570151752587
Pb 5.440440011838268 9.380691452803026 4.08900892990916
Pb 12.077566067645277 7.4802263086957685 6.357152775666692
Pb 9.460509003494229 5.901603702738424 4.713023260268634
Pb 6.005870003204125 6.0466888980993225 4.307032108137369
Pb 7.134883141088251 11.24060044111524 8.322352103045182
Pb 10.386260311182262 10.209899264958795 7.398443571269331
Pb 7.19789318698145 8.042925846253745 6.750157348691188
Pb 3.724351280998959 8.003666033110948 6.159886194860273
Pb 8.29255666138154 12.680417416272329 10.83172572580432
Pb 10.641185699643318 5.073847353118996 7.728926483018252
Pb 7.427387291724952 4.109786134934291 6.811590294357508
Pb 6.0766949484863035 10.582859646486408 11.419778587061442
Pb 9.412254387896716 9.889938920688435 10.564701633182878
Pb 4.743113815260971 5.657353557551412 7.858819666372809
Pb 11.484293058041539 7.873618118363686 9.490380616716743
Pb 4.550430477999216 9.05174639767631 9.040131697749974
Pb 9.250666416476253 2.9734118151965463 9.339810311288295
Pb 6.755398533451614 7.532420384659309 11.273170692078734
Pb 9.52393130645144 5.767925640016278 10.938751116197027
Pb 6.5958783471443 4.525528729294514 10.11843445907655
Pb 3.9205588386757597 6.458566339379172 10.860098414859037
