27
Energy = -86.35013944 eV
Pb 9.709574662460929 7.329194137477883 11.829188533683952
Pb 7.137414832825288 5.051637965611815 10.95268094395367
Pb 7.619690949924719 4.042436810406287 7.778752025293986
Pb 10.194464791038524 4.944863654424233 9.608504368196455
Pb 4.62490324356552 4.240769786711168 9.069546863169103
Pb 10.593756783212728 10.473088454524246 11.513126620621756
Pb 12.75087422770024 5.701496277163913 7.780479977499378
Pb 11.53083059875019 8.176276146147654 9.334007290535462
Pb 6.600309055058028 7.9530244854452485 12.224236816185458
Pb 4.579882825447434 7.254450155511897 9.942487179111701
Pb 10.461899594227841 4.702921354251431 5.911967083271094
Pb 7.470327744903929 5.015826637205219 4.710883961850665
Pb 7.9671084978057705 7.9502615885668035 8.947994149102538
Pb 5.232569223043832 6.204689804940807 6.7289803698660755
Pb 11.856118844844737 12.076091471212505 9.074657517944399
Pb 12.127313350122419 7.587764363385154 5.345764979080348
Pb 7.290778905300355 10.70873290458533 10.908007249031934
Pb 2.790600981941103 9.689916629464374 9.145961240272198
Pb 9.841649301914572 6.617287335467281 3.2402306672855743
Pb 8.231065123827857 8.058006961033087 5.614171269774181
Pb 9.204391662816102 13.163198126147794 10.199831233188878
Pb 5.145231377004382 9.443020430357041 7.109065646748139
Pb 10.68187922655757 10.126487629991317 6.958385764290182
Pb 4.786637661246035 11.891045615809487 9.516680793625548
Pb 7.799951813503434 11.244776759936396 7.6163221062008954
Pb 6.768005299850123 14.000555657033448 8.462431047413261
Pb 10.394799314304313 9.74420875038691 3.8676841960016306
