25
Energy = -80.89557568 eV
Pb 7.669349914974462 7.173968139401198 3.4818979615875993
Pb 5.52408673050403 6.326089259495009 5.7892496735187695
Pb 5.9530972847094565 9.52308631207 4.911375224529081
Pb 9.294124896603703 9.901240950735842 4.281628242124709
Pb 12.37059936216593 11.63744985403898 8.188834934134968
Pb 8.55190976011177 4.893481655571784 5.853913975903138
Pb 6.108240789729314 11.50869537980914 7.640473593829488
Pb 10.708026119614393 6.918191022041678 4.463683461151197
Pb 11.881032358841544 9.078251804878944 6.50523517552798
Pb 4.959969966756071 8.596959508040014 7.9327700331148385
Pb 8.35027313512099 8.168372463486076 6.762977567722979
Pb 9.323256650469014 11.723079459518049 7.562507632337564
Pb 8.869801857729096 3.778615014008604 9.088400341786919
Pb 11.462628145186198 8.880653359591543 9.814692760228152
Pb 7.084369252566558 6.323959265641089 9.19829219763255
Pb 7.938443520433267 9.542851208417101 9.854225964913734
Pb 10.57327138487284 11.994329389223683 10.752893010871304
Pb 11.010094817511018 6.106638416784796 7.83802217203443
Pb 7.5064227948684366 4.262874783251387 11.89717634324316
Pb 7.403203102814762 12.856368153487086 10.33914105380849
Pb 7.210404828040964 7.238588463181585 12.54957568521744
Pb 10.059251239615802 6.159426912670375 11.183405917957735
Pb 9.725800276657116 9.3232940325303 12.901556009726907
Pb 6.421649390198167 10.341426640050964 12.57736845667893
Pb 8.675958143752366 12.377374275921735 13.265968334264294
