22
Energy = -71.70859269 eV
Pb 3.3000798603571835 10.004926329305077 8.022458264430307
Pb 5.322483500280181 11.14159868376468 10.538453679333928
Pb 5.820277889111991 11.95972311464644 7.461958774284678
Pb 3.734383489984067 8.376560544171582 10.831209968945622
Pb 3.531569589808593 6.464278387273193 8.17665064541952
Pb 5.446436624550734 9.520526503036004 5.303381229771549
Pb 6.2688195850167405 8.616132548490471 8.401287604830644
Pb 8.336615503831187 11.084843395299123 9.394873166703041
Pb 5.4842298615800935 5.630067499092391 10.702249830067029
Pb 8.467991795927189 10.430644124069124 6.164848401141861
Pb 7.079767388093828 8.481852114204168 11.530771635696611
Pb 5.014677410066176 6.336124943715176 5.34172384958337
Pb 8.620155008513734 5.954691280685585 9.53221288162484
Pb 8.116559185182902 6.733582309616929 6.373163108025521
Pb 6.017287960003422 4.437517169018719 7.788602450291147
Pb 10.383251165613446 8.558634091497744 8.199401697015617
Pb 10.645227787750533 8.03721572104043 4.809714897241764
Pb 9.12697502191702 3.4893218142370426 7.396848002517561
Pb 9.923442381412988 4.7687082687769875 4.4745083928421625
Pb 11.490881424602268 5.441892516133146 7.304256932843023
Pb 13.289400576006049 7.861057101476512 6.635824124011377
Pb 12.974103350990244 5.67642933111664 4.437529497119863
