29
Energy = -94.16418192 eV
Pb 8.45465485772381 6.952850996181656 8.148213604790275
Pb 9.329236857021556 3.4882096675592584 4.956658417757556
Pb 9.693963846307033 10.596699966032064 10.906437202116077
Pb 11.474346371597614 2.934264467813687 7.095585269974342
Pb 10.849771759295367 7.675816669907651 11.80872989618673
Pb 10.764960367105225 11.985518891382386 4.345802515808105
Pb 8.154165763208342 8.478107640207478 13.019243930628734
Pb 6.543259028370263 4.958093004447727 6.080412531918571
Pb 4.120951430475356 10.712988020699378 9.457563725672703
Pb 8.353626678705789 9.986150155693526 3.3784011495961592
Pb 8.265426806545333 5.625983002384954 11.26673183133598
Pb 7.324195143303123 10.326966495017425 8.643377296235164
Pb 2.9681079051291817 7.306800375157423 9.469839058572727
Pb 12.80790093033775 10.235056609471297 6.126187323286019
Pb 11.262361301248763 5.3239485347951785 9.468006221772976
Pb 3.471501288350455 9.311280280959645 12.370858154109248
Pb 5.356115771363178 8.083187690763715 7.353943550282942
Pb 5.907687998928163 7.92839916438136 10.76773563935369
Pb 11.529903014690351 8.757691124976747 8.80544084483353
Pb 11.213095246553587 6.008059386638632 6.227271556472496
Pb 6.284029071998784 10.951239417154477 11.971663496538287
Pb 10.614917151096554 12.112148214746709 7.684853408992372
Pb 11.392567405194558 8.80336318646539 3.5901478710840435
Pb 7.9301853616204765 12.113616801324069 5.848528074781467
Pb 9.624059238249332 9.369827004023694 6.208351760038262
Pb 8.62321428332083 3.49702996829812 8.279696506357423
Pb 1.2929865123362017 9.749030081202939 10.257442599983806
Pb 8.640246657932611 6.641927966419125 4.402109622401351
Pb 5.645234499114776 5.136670617309212 9.095206857199583
