23
Energy = -76.03289521
Pb 7.387797101897971 5.897723677682298 9.974136477894675
Pb 4.223111888626091 6.150062725487214 10.618276299802316
Pb 5.32511621703257 3.4918863664790614 8.985422946867141
Pb 5.8487924502295625 8.739405118106108 9.760199470947116
Pb 8.906976893263558 5.44800003363478 5.473852912533457
Pb 2.491538857681328 4.963402154608158 8.059837403717603
Pb 8.140183789675714 7.977919008376014 7.50015723223677
Pb 2.9051250927947896 8.226561373707385 8.51131178202883
Pb 5.369762160733352 6.281704773139764 7.310679456552836
Pb 3.8327654922689143 2.476139524575305 5.984221448774456
Pb 7.237893686286408 2.7856520374814404 6.35387908399047
Pb 5.306522112392957 9.449915370114972 6.574936959173631
Pb 2.3491881192053494 5.323865799183468 4.753439045986542
Pb 4.019211601004314 7.982998948438036 3.875374902129016
Pb 8.854187858712844 2.8311693262228124 3.5025915016750684
Pb 5.739086759080193 5.004316883105589 4.174174851944285
Pb 5.962416691455753 1.4636024107439396 3.6393080693330675
Pb 7.444232906938984 8.231711133264545 4.079314611601426
Pb 3.221033340725384 2.8861437823345706 2.7434215643421287
Pb 8.655223459138911 5.757233920798343 2.219614556700874
Pb 3.007589197985161 5.86479513598474 1.588293551692549
Pb 5.913984092361269 7.180174786586298 1.3235629825926363
Pb 6.085857139239128 3.8132128186756185 1.221590196213653
