27
Energy = -88.38917328 eV
Pb 7.8201672364185475 5.0689706049063625 10.625453013367302
Pb 6.000182766298704 7.7772756758387915 11.342661560308036
Pb 10.60762545581838 5.171822986705564 8.8091183699751
Pb 9.301040220851034 8.092687218823015 10.191846462252427
Pb 11.725824085423701 8.391730949271002 7.921343710849296
Pb 7.886573172747401 3.1161126913105743 7.825171545452993
Pb 4.5733580089209 5.026119972724073 9.624828761720183
Pb 7.395115370320585 10.81583058677473 10.281627373370311
Pb 4.17718693951551 10.608264331069474 10.797884865047852
Pb 12.671578501529456 5.793925280154134 6.171750099054891
Pb 2.8209626380348705 7.751573455706679 10.257654474831892
Pb 5.807653546152252 9.025498837011298 8.063379107473427
Pb 10.625370009718354 3.3275360331740402 6.0025405949601005
Pb 7.79532251275948 4.347410306787264 4.505821193670544
Pb 10.9060492817616 5.274231631767107 3.4666503152394594
Pb 6.985162898643482 6.2074995557344055 7.8135568014712575
Pb 2.413139627693736 10.093477578730738 8.101879463604183
Pb 5.019722482574126 4.245945335668962 6.342603735746825
Pb 9.351418047798285 7.1166945312489425 6.112524859269519
Pb 5.025843263353595 12.045668830482487 7.99374192694746
Pb 11.650932952228606 8.302166794390855 4.376087129823973
Pb 3.1707633944592963 6.947111658082816 7.0139997232443205
Pb 9.148481536916563 10.371914290599802 7.56058785524813
Pb 8.503663464404214 7.445681748875968 2.9949341970703904
Pb 5.515396215845059 6.989094399990519 4.399995532021306
Pb 4.180827931200591 9.877408999749807 5.365829983202824
Pb 7.4167759502509965 9.865236336090515 4.9108400102382435
