28
Energy = -90.90742934 eV
Pb 5.982648559562573 11.88623747927849 6.988746395784918
Pb 8.275198493400161 12.228994237924226 3.8350569037106834
Pb 3.8759150057323284 9.56700142746849 6.226692888243228
Pb 6.564415159353949 9.788550579882921 4.431087971484693
Pb 7.484272782243836 11.353908273292026 10.053186803305211
Pb 4.530838328299717 9.967175874447555 9.40614934247383
Pb 5.048380152294348 7.012937518484065 4.782576352149129
Pb 9.012075340706737 11.266946764035142 6.769877336673246
Pb 9.267167771739445 7.790351080213004 6.988893236515246
Pb 8.850043620195391 11.107991656728581 13.024127949042898
Pb 4.593548645397913 6.929093771747504 8.07816153421194
Pb 5.90519318406169 9.678477832532794 12.578282728152272
Pb 9.873891270476088 9.443438890021651 4.015606660526123
Pb 10.467320114326562 10.364754530823316 10.16828058145305
Pb 6.819413392202442 4.928982653098426 6.501282350336605
Pb 8.126365849757612 6.68184446889663 3.8631409347398655
Pb 8.090714972868952 8.73889898407987 14.866041954368105
Pb 11.890668514288471 10.02659330814694 6.3850987907838475
Pb 12.241465486333256 6.871560302001473 5.789569574501495
Pb 9.998538648702732 4.596930516839792 5.658632249254872
Pb 6.446606980936998 5.056555671037844 9.979635153199615
Pb 7.365384861214502 6.749363345432292 12.645241696248833
Pb 9.006196471608328 3.7127770550587007 8.626987801194575
Pb 12.426692370131283 8.04668846362967 8.88161823933431
Pb 10.537645157404043 8.330303531324104 12.797176853965462
Pb 7.215133677594161 8.255967121018115 9.742204638316068
Pb 9.856995454897238 6.4723724375712965 10.311374637513794
Pb 11.975674661309553 4.873707152025387 8.333673369556234
