26
Energy = -85.19256283 eV
Pb 11.22798155216812 10.350456407406071 6.689399422752473
Pb 8.722182934883723 9.533075677451125 4.9195204513193564
Pb 8.269457814616995 11.691223764788889 7.782770793264496
Pb 5.4457946602160785 10.679603102832099 6.37160979104363
Pb 10.93802175871667 7.145704007818146 6.109330992247146
Pb 12.358637296006162 8.278469109312487 9.195044378054497
Pb 5.921788809596216 9.34157575913581 3.4864519667397302
Pb 11.028704496989794 11.571013713194654 9.546165288473851
Pb 5.819120630110369 9.702383102472709 9.830993059231824
Pb 9.072432766441224 8.430759564080656 8.895900760537959
Pb 3.24973860055914 8.666770992518579 5.010248481700766
Pb 8.232309111865854 11.371274842311534 10.98161735759266
Pb 3.396231577305649 8.563580388495271 8.118954205624064
Pb 10.640030514490043 9.468604166526445 11.969540612020397
Pb 8.322097274213489 6.313901990778175 3.9312133863033436
Pb 4.80825644659524 6.316715493003073 3.433258765741006
Pb 11.249636812222716 5.170648335494823 8.694953734786603
Pb 6.398788003021547 7.27262415758042 6.520583842903819
Pb 7.61030518790141 7.620730994245309 11.816033222331914
Pb 10.623450624884192 6.417271364004786 11.54716401048308
Pb 8.942723488012698 4.280376504779158 6.61779649653736
Pb 5.123329317156432 6.305786720820395 9.7316318837689
Pb 8.28070688775103 4.7566460190278175 10.060310425893812
Pb 3.6215683851033407 5.486751310482838 6.585816835664359
Pb 6.2372657162517395 3.9955188343312793 4.869185611573563
Pb 6.023844593055294 3.6709033863899583 8.020448256340806
