28
Energy = -92.25522243 eV
Pb 7.171688374990234 3.9369651176276634 8.773364668527027
Pb 9.99745850800664 5.8803697891633675 9.97346680650154
Pb 5.016142374639425 2.634532880356323 6.583447445758196
Pb 7.108831723168699 7.13403584261153 11.35632834748591
Pb 9.0294066111771 5.1690197055622855 6.389976542476563
Pb 10.067115209005133 8.174657899977799 12.377213631371909
Pb 4.153820286957217 5.0296875230218685 8.735967590074324
Pb 12.318202902626817 8.317851233289153 10.10116424005873
Pb 3.9184204260118505 3.3448079669707202 3.484889794120035
Pb 11.461987503404142 7.116796132591478 7.205246035113665
Pb 6.7943979044933105 7.109825509943692 8.036414304723554
Pb 2.3829358786116916 4.570200748264457 6.100773215613197
Pb 9.104856941751043 9.110255066537086 9.07696069013104
Pb 7.182719605860898 3.2879809903665884 3.7580990006395454
Pb 8.408735423661982 6.3110811306435775 3.235154612896619
Pb 10.75284997837733 11.166729773737353 10.824005715954137
Pb 5.645611190911913 5.593891227065824 5.370554930061881
Pb 8.887689733256966 8.581796220400491 5.553793356741156
Pb 7.743303930600552 10.392031432993443 12.017826765167522
Pb 5.609657932333127 5.630295437810431 1.9041495559421144
Pb 3.590521717925717 7.695989159465392 6.786706898414345
Pb 11.855432607681617 10.360351724005412 7.637344576055176
Pb 3.00089814285756 6.640424881608199 3.5887561118838365
Pb 7.3571810879525295 12.023786402358308 9.266932897129196
Pb 5.831023507367826 8.44845576725605 3.6870450672433193
Pb 5.362629998304268 9.539540144320927 9.818634409041032
Pb 9.160963189780935 11.698710485382266 6.587600159877152
Pb 6.2137215040402225 10.298714684311484 6.650668169261834
