23
Energy = -74.28031548 eV
Pb 6.923428558427922 11.41469380711478 7.303087799330947
Pb 7.266966236555566 11.346147323869866 10.656141502183957
Pb 5.344797948862864 9.04619408863331 11.299147170724524
Pb 5.305204256243897 6.0675948628866605 7.01054104508093
Pb 6.9770831481403235 10.307885972904995 4.250646321493613
Pb 7.436481340444791 8.32844113815212 7.775621010657626
Pb 9.801844290164238 10.7884283002496 5.691284144034841
Pb 8.098122803386978 9.093906321825488 13.023529012564284
Pb 12.102594678220225 6.059684665309889 11.216935756508029
Pb 12.561299030293123 11.428351904431109 11.034291669467741
Pb 9.199955517751269 8.078372002124976 3.8252558237899827
Pb 12.649969195647747 8.62752712032645 9.617310691170928
Pb 9.869166782732398 11.676611085640053 12.579634651247423
Pb 6.037328885513184 7.247609890989946 3.9366218888512945
Pb 6.622213651600733 6.468425436113137 10.332594265255041
Pb 10.011978313325972 10.816489698842522 9.117768119546934
Pb 8.348371049569387 5.673105631655353 5.751561204349221
Pb 10.569867467963098 7.903585696709115 6.878443704021598
Pb 4.709627043071806 9.202771658350981 6.182830499202504
Pb 9.469483812227297 7.752579033057822 10.319032487370452
Pb 11.543597060881522 8.851863183872695 12.781683571905502
Pb 10.578716183910236 5.180852274607724 8.509942047632789
Pb 7.5129179090691185 4.162125668599432 8.454650665998889
