24
Energy = -77.44614637 eV
Pb 11.501403691515126 7.099538895985772 8.439697052437953
Pb 12.834435803230624 9.595438737089575 7.017727374821599
Pb 11.485319577559368 10.375030192600432 9.642704279031518
Pb 9.124094213320424 5.7273159410861885 6.412891582458396
Pb 9.927898445112588 4.74705451410156 9.784921688351849
Pb 10.438118838071663 11.040726910588605 12.391871013939285
Pb 10.575186262209193 7.857948755466384 11.51521326935751
Pb 8.145956726627489 8.436820079435057 8.723538366590622
Pb 8.367322135695918 10.289071488097791 4.213481618803634
Pb 10.663202218827784 8.258611871240687 5.148587991608319
Pb 10.001634837039592 11.282619272471509 6.778963967916028
Pb 8.721263692488032 2.938774492541106 7.443383973419928
Pb 8.55773127240399 11.984029442520992 9.82406352012412
Pb 7.669651986982846 9.51796042615334 12.015984067297712
Pb 7.763295874650304 6.165246627310468 11.653200280368504
Pb 5.441667850917231 9.233982551012653 4.541364707537042
Pb 7.8531040383161175 7.154871766581086 3.7597118284842925
Pb 6.613363817267555 4.641875404381312 8.998146866408288
Pb 5.185555471058433 7.515461927042277 10.378958087723056
Pb 6.65093669582931 11.443323101207293 6.802971288241979
Pb 5.834023396291098 6.310167322408033 6.020068910776894
Pb 5.5810392709773 10.680872877482598 9.810421458060475
Pb 3.711248369467211 5.717133800066891 8.151386222962712
Pb 4.271192325618379 8.904770414606181 7.449387394755494
