20
Energy = -64.72886957 eV
Pb 8.706076497159343 8.849647638713142 3.758452460940308
Pb 7.071654522894409 6.106906181353226 4.903227495807146
Pb 5.675035020483579 8.95460507622679 5.21861346640726
Pb 7.600493138608615 11.462908585038624 5.7271789627607586
Pb 11.417179753217503 7.587823868924956 5.431744263363834
Pb 10.70434684095046 10.654309736464073 5.817908873858233
Pb 7.957225124024285 4.929034122292248 7.819757413283272
Pb 8.545114085376905 8.299384926097389 6.855824654384532
Pb 5.251773678817771 6.9112962581840645 7.976669112595119
Pb 5.813341339016894 10.206949740945031 8.473949783405725
Pb 10.969318297345483 6.003594108770802 8.237745599412403
Pb 9.115882146851696 11.38264314247842 8.887186850387918
Pb 11.70550062665582 9.230682882627582 8.78010284147092
Pb 8.377378206623916 7.966270754110732 9.849206217519242
Pb 5.240391887335525 8.145941349057981 11.195732740666205
Pb 6.624430329400033 5.315997590992502 10.722719852546804
Pb 7.124014199544329 10.7011559020372 11.645788446703973
Pb 11.160274788368422 6.99239437167142 11.31717155423663
Pb 10.24149725352187 10.015332012717433 11.83480378819146
Pb 8.100834053126823 7.684883540619913 12.947977411381807
