29
Energy = -94.49986391 eV
Pb 4.656152556401982 10.347363409918751 11.096021174386923
Pb 2.217071765188964 8.837454026623103 9.937709792063103
Pb 3.1252520413402514 11.086216283366229 7.956675706942262
Pb 6.278742721204726 7.477211400079661 12.137986226748852
Pb 7.6602106318053655 9.936169794783847 10.057577760296283
Pb 6.24813334845813 11.136885106679784 7.291191856576766
Pb 5.8631316199589305 4.7999320556923415 10.236491472971656
Pb 2.6137032742437456 7.962045939012094 6.8663104436304625
Pb 5.167977520643483 7.934503101735973 8.928724215750245
Pb 9.34362139599944 9.566262714406188 6.631141953970761
Pb 9.501885416719317 7.972202920268161 12.16548887859456
Pb 3.998561800363706 10.203810744100885 4.713976327572918
Pb 8.40407043499929 6.861974638987724 9.325263538934903
Pb 8.454270946562744 4.965115568055254 12.119982171580633
Pb 11.2058003700474 5.508097562744739 10.360463778669075
Pb 3.9373791877782267 6.806828040708231 4.138826406656156
Pb 6.416310909511641 8.000587413611635 5.796113500300372
Pb 7.278241634116642 10.893198090656087 4.242512960763025
Pb 9.260139827369091 6.335113682845755 6.248112666902783
Pb 8.825605779924262 3.5485531831131873 9.045913472825495
Pb 6.237460916340865 4.772576396736925 6.893554257021222
Pb 5.9602028177083275 8.552907194188226 2.4645000014315115
Pb 11.776397201898218 7.841790048189897 8.17170240460661
Pb 11.968814197433487 4.666885171733386 6.875015366480038
Pb 12.11835975298237 7.507077822079213 5.013089204167368
Pb 7.29631720087708 5.417576750166585 3.638024237085856
Pb 9.203439944378976 8.108055945563569 3.3828199835422583
Pb 8.991814895053562 3.154634316275954 5.756580493139122
Pb 10.766629605539627 4.874304455421779 3.6877277395093397
