24
Energy = -79.31484608 eV
Pb 9.746082813322511 10.056724264475525 5.040142138678153
Pb 11.822160893563694 7.929811135045881 6.009097167097538
Pb 8.982283287848395 11.7697512842757 10.062594379082759
Pb 11.26245566367785 10.661393859931726 7.858407312086395
Pb 11.284058918339724 9.744240301898309 11.077945489260081
Pb 4.6053512220332 10.224005928144114 7.053913941180045
Pb 6.582221864545551 9.418113732860318 4.45694792129507
Pb 8.262510503728741 9.526812037251348 12.264993885610117
Pb 12.16129220517513 7.24241529169045 9.183180631740463
Pb 7.603857375500615 11.419127462499764 7.114373539896325
Pb 9.112311547352068 6.80991982170975 4.537481796784459
Pb 9.011626185730986 8.41316835577736 8.930426897697986
Pb 10.032034292062418 6.832905897198324 11.78370079861134
Pb 6.566687872420634 7.315385184443476 7.094009480854774
Pb 10.68049383183794 5.201549479377875 7.08174574657404
Pb 6.02668161090897 6.029258967057908 4.003822123754128
Pb 3.6201222854727955 7.789830583918812 5.295007861244767
Pb 6.013372559709493 10.149112802094287 9.994885090613769
Pb 3.7444741358626246 7.396891625250869 8.67548373903711
Pb 6.636192082167393 6.954399704595855 11.198301633285995
Pb 7.587146885261411 4.18826313354891 6.467114252014578
Pb 4.149154529751716 4.902794476564941 6.384920113993904
Pb 8.737684630701716 4.6854089104767445 9.62798660062722
Pb 5.587161913992247 4.61590899582268 9.184594355219877
