27
Energy = -88.44157645 eV
Pb 3.562365331144289 6.5415927683682895 11.249406057568184
Pb 3.3149693846520374 8.360307273965386 8.514359207654396
Pb 3.935839661618088 9.643941524486962 11.550618885844766
Pb 4.5834402798724865 5.462874474502677 8.125898966165208
Pb 4.698273114432935 11.274375790028731 8.857920914731706
Pb 6.243491989923913 4.821966672044438 10.810424715823494
Pb 6.399038775238266 7.728962808084893 12.567173979337474
Pb 6.481619941073995 7.984149993112592 9.179088613211196
Pb 7.069257350765056 10.884441167016954 11.211538166478793
Pb 9.269577831360117 5.9449213701916594 10.787749860827933
Pb 7.863071293837206 4.9138412565866005 7.926246772721268
Pb 5.796284224625213 9.886464715379804 6.057326920721008
Pb 6.688775837588857 6.840183578193566 5.604588837419158
Pb 9.829991130476827 6.0714610998556795 5.232013257776636
Pb 9.392202540834662 8.354860607399294 7.729248297790203
Pb 8.994718434088927 9.094784800514695 4.41995591320865
Pb 7.7969815954535315 11.955928737447152 4.845554817327011
Pb 7.660304599136316 11.976082554956005 8.044241131719472
Pb 9.477339868317745 8.937054591205964 12.055908627043985
Pb 11.297489023400107 5.503755302288715 8.25371832118078
Pb 11.93573587282009 8.13169248044319 10.141016956856916
Pb 10.382419842586717 11.135967401565145 9.766529910244262
Pb 12.950028682508744 5.654292665398449 5.481800675012756
Pb 12.275806671415557 8.876658524033894 5.136668552985812
Pb 10.567909661934525 11.550774393889526 6.390930390706756
Pb 14.007737982811491 7.569030726854395 7.6183629224307845
Pb 13.093098519936927 10.467402164039841 8.009477769065933
