28
Energy = -91.47226685 eV
Pb 4.540759169034552 10.617655270757737 4.457899178797879
Pb 6.725031636928712 8.937626056922227 2.9223971803686597
Pb 4.419307095597993 7.264950899906505 4.507544815631711
Pb 7.732495434614801 11.406036611417784 4.80136148248946
Pb 4.854314022142952 3.9180924905944448 5.005560430876156
Pb 3.558920523637586 8.998260625540587 7.231682565687884
Pb 5.552524813129509 11.786579061671498 7.310859401120941
Pb 7.318210193995284 5.669313754947917 3.3812856794748467
Pb 6.7990281301413775 8.810273668580953 6.279565319858944
Pb 10.479824312225936 8.399685540244914 5.646072232777141
Pb 10.123968317043357 5.2270915387090735 5.011157241117105
Pb 4.104533650980144 5.3256903838903 7.976770586935028
Pb 7.993905328254651 2.7631744761007284 5.179427528020235
Pb 7.0866515650977275 5.531300419996349 6.721927870302132
Pb 4.470917803076487 10.491030944089296 10.151008041199457
Pb 6.095429669329528 7.776910654342889 9.4332338219021
Pb 9.546859300267256 10.841755284594383 7.7923244049839875
Pb 9.193201387460219 7.4055593396163655 8.434547473143756
Pb 12.00667727060358 5.868534254771342 7.607353586654096
Pb 7.412233604896376 11.636148184314687 10.186849228591289
Pb 6.493678420464919 4.46606852070091 10.087332062838057
Pb 6.02864652475493 2.428150317694316 7.666551640230433
Pb 12.200660065299582 9.021607868729026 8.449194261172131
Pb 9.180462158085534 3.5114790270543303 8.12800834056299
Pb 6.710561758886504 9.281679217083077 12.257448869772077
Pb 9.966379343544379 9.657195902468818 10.959327108241125
Pb 8.346580312764521 6.597983038816421 11.757416512814151
Pb 11.41158640765481 6.701283832691916 10.60753989545316
