27
Energy = -88.88534054 eV
Pb 2.5826761082236094 7.335716637645287 4.715145521333261
Pb 4.960186209883722 6.012864590069959 3.2422611416818157
Pb 3.9716161044750957 4.484096948940925 6.009125199370238
Pb 2.287693445892464 6.799515396579002 7.845197826307512
Pb 2.9691286501474448 9.774173025931866 6.666094383527111
Pb 5.114710748731362 9.429283447152859 4.064817757667359
Pb 7.510562407725396 4.518350529583443 4.760437175224062
Pb 5.726899059858689 7.259667453343703 6.585053517630364
Pb 4.655636898699798 5.420031571078211 9.438963585877097
Pb 7.750099915027822 7.430108028773497 3.067670917206629
Pb 4.354333794489312 8.80350612537107 9.556015054983142
Pb 6.591907659099799 3.483642998765538 7.724671423005385
Pb 5.885315421992811 10.842941560352553 7.193726935405001
Pb 8.48786833031658 9.851359142830974 4.933893540686475
Pb 10.145891892813577 6.669672691836644 4.92933829408676
Pb 9.708377822362966 4.1368590855911815 7.268179595605019
Pb 6.5229516907120475 7.2589412120328145 11.362408766655934
Pb 8.20400953952594 4.729087553446947 10.259052842709309
Pb 8.915346999298135 11.540131257799027 7.553058984365624
Pb 9.14291277870295 7.558933943417666 8.311325099778598
Pb 7.322146242175239 10.21686364302183 10.217227870403724
Pb 12.379068628844374 6.145905470303282 7.089711058664733
Pb 11.48523187411325 9.393904576097494 6.703748608215242
Pb 11.339876933891311 5.12693422842528 10.019507129798008
Pb 9.772150296057339 7.708599608561522 11.58217742073611
Pb 10.624206400076435 10.461159976661952 9.946591220941466
Pb 12.534223262472425 8.052230693767473 9.588537926058187
