21
Energy = -68.16519196 eV
Pb 12.550543630093811 10.481924450068664 7.077403500330081
Pb 5.829637531265584 7.617489987929026 10.668259465184205
Pb 5.785295017485711 9.78758840584774 8.413212910434279
Pb 8.204433688892077 8.542621529680988 5.3165851354386735
Pb 10.043222225021816 6.038576790738292 6.443237216693395
Pb 10.87292485448426 10.535263539724996 12.775063778230162
Pb 8.351709490090231 7.538744799172016 8.610391082282282
Pb 7.960036317751006 8.805508677690238 13.131572742857749
Pb 10.45900179941703 12.638202419605976 10.430997284411532
Pb 12.835293342846127 7.289290463204279 7.408013019581037
Pb 11.640817374885387 9.038300789064044 9.900720449365991
Pb 7.1179831997731595 11.612281107494052 6.198525470955473
Pb 8.152609875764814 12.109246414149977 12.667017655546635
Pb 10.076928651466682 11.277959956733241 5.285474668027531
Pb 5.574841365332709 10.724504990300115 11.536338606405664
Pb 8.301009652256868 5.888014460536946 11.47266430874774
Pb 10.930742869612335 7.3624458265097905 12.557371967279929
Pb 11.459198808936387 8.383995659459362 4.750552471737154
Pb 10.978630023989984 5.722569864578449 9.695540222917668
Pb 9.324669085424297 10.589941175251496 8.336045378402035
Pb 7.259367208686398 12.676557997208919 9.518134002770253
