20
Energy = -64.66452031 eV
Pb 5.327772504852273 8.190392231085031 5.478831100118439
Pb 8.482505284691017 9.01761844757159 4.493371682591977
Pb 5.694302237136942 5.2031622163969775 6.667089017456587
Pb 9.273975058931198 11.937956803105722 5.710401017119566
Pb 10.53907649894195 9.68449368908855 7.266527480644022
Pb 10.560811779457392 6.621004566174877 5.965776186092866
Pb 8.6997439518167 4.359157456624741 7.50205935331454
Pb 7.23168441394117 12.64012959395652 8.048668688016667
Pb 6.232517768821239 11.215292736506855 5.359300898766433
Pb 3.975599045636849 7.170836300737691 8.458924992133271
Pb 7.72737709310595 7.629688892251909 7.591832352102047
Pb 12.858935210940896 7.873142373500194 7.887065243598971
Pb 10.897415293210738 5.948749032788223 9.343014818813483
Pb 8.153605838652638 10.085036900067545 9.590314708711706
Pb 6.256409843106876 5.250113869970512 9.909822561916242
Pb 9.005586556760772 3.8903439759170584 10.701806458967168
Pb 4.9157464665522514 10.261228575734695 8.188587973014004
Pb 11.004252652757165 8.942876406900206 10.545647465190044
Pb 5.734284110148611 8.334929169439143 10.892065191309047
Pb 8.650206011308239 6.965654382952345 11.620700430894185
