27
Energy = -88.72272386 eV
Pb 11.330884259131082 7.218477176961551 7.8948797997642925
Pb 9.192900904281215 6.245710513064924 12.882989795637751
Pb 8.64717902614605 3.5826311642352904 10.98232973036739
Pb 9.914648309934988 9.109395644680603 5.599745437525385
Pb 10.336168521159983 3.9785011199511415 7.9735930442219445
Pb 6.198911529292792 5.713924401159761 12.11298769881125
Pb 9.112574302219649 9.972282769173884 8.769325908338246
Pb 7.25275057714833 8.789501363129954 11.410224629729235
Pb 5.584470169360404 3.9393271853850904 9.53267187896269
Pb 4.352571390020117 5.411763972183543 7.035081644551595
Pb 4.504523423151368 7.2886687913090995 9.892659444194072
Pb 8.10996400463611 6.377265251321512 9.092828491490769
Pb 11.310652275292366 5.312504870130326 10.660911605300903
Pb 7.844929588535726 11.470492368937578 6.3053682303352705
Pb 7.259460116826879 3.7047897657984734 6.792488154971365
Pb 3.233113171972504 8.662715363743814 7.134640945950138
Pb 9.465239655865254 5.79712984892921 5.387638579233541
Pb 4.660921356277586 11.480874342815884 6.08982233598127
Pb 6.379161977691046 8.29822493670995 5.764132217879126
Pb 10.645027241504284 8.455355826127992 11.031228526071299
Pb 5.714513766188555 10.347745319768844 8.8983192290925
Pb 6.376353703463264 5.227384473825346 4.008833435105345
Pb 3.2565715104927384 6.629355524004026 4.373494884710649
Pb 8.383927149965272 7.763681188552136 2.996952886769723
Pb 3.3129266249012916 9.805085951384596 3.804633504908
Pb 6.477233745294108 10.654074229685527 3.2924850636332303
Pb 5.326782818849927 7.873463906113426 2.223274743031149
