24
Energy = -78.48947666 eV
Pb 11.201049209509828 7.65448141260572 12.768885939724674
Pb 13.149783440393994 7.548361744417422 10.2607749217158
Pb 10.863018229239243 5.193369990799482 10.483560995022048
Pb 11.922695301602497 9.793235747340256 7.840492301327275
Pb 12.210366620820748 6.4645724078383 7.435809462262406
Pb 12.046226968527181 10.452171506990025 11.092232174417381
Pb 7.896332941386931 7.269768505480821 12.486486624192688
Pb 9.38519963551719 5.030244849176966 7.278749710232031
Pb 7.636749451271094 5.010973770707231 9.895356737423837
Pb 7.217487496942347 5.838934030495208 5.001683548309066
Pb 9.97205736049581 7.696788957374228 5.348945142388426
Pb 9.742103866187495 8.201389858955864 9.684776389162513
Pb 6.50459760007656 10.156309840618086 10.877309391426426
Pb 7.201721612072644 7.91441360699099 7.632161852618116
Pb 6.915015300475132 8.86687430767618 4.119115110524067
Pb 9.319443266445388 11.664177138471542 9.461134337566188
Pb 9.289315807924497 10.782326292616464 6.173600139035165
Pb 5.370868407271651 7.032490626321644 10.53805744726916
Pb 9.220841170666933 10.247936870151296 12.580884398774469
Pb 4.548508324892558 7.223436827437197 5.899511944328468
Pb 6.467782533932867 11.714469101917073 7.790850273280277
Pb 4.24651500253959 9.335995271846 8.579474136724574
Pb 6.824659391175373 11.923566148366826 4.580263565453984
Pb 4.239944493610934 10.375994618383551 5.582166889799495
