26
Energy = -83.9133707 eV
Pb 8.771987928486311 5.404410052181984 10.435473438773986
Pb 8.524974718579161 3.2068610959277883 8.177075281588792
Pb 10.778645716373209 5.461539822192873 7.731197501206059
Pb 10.388806288427562 7.427418004608293 5.019560509127859
Pb 5.7989984759054085 4.717113763406772 7.981007455037423
Pb 8.816100153658605 9.483686503406549 8.407379305180596
Pb 11.573580503285594 6.998883346453543 10.553983377567045
Pb 9.050156301639516 8.247431042315416 12.237423980257045
Pb 8.10610189618434 4.742188387321725 5.545570806274498
Pb 7.870134848213206 6.735886613216177 3.20874127871015
Pb 12.204298763548962 8.378442279642579 7.543621980888896
Pb 3.7353432045193564 7.101616276868442 7.906920558874319
Pb 5.51257669761563 6.938261650540178 5.3392954135487845
Pb 4.178395860817027 9.579049462261139 9.923181415793005
Pb 9.164998203605595 11.110230605707688 13.79968312443593
Pb 10.468385620790112 10.703232362087295 5.83436436545654
Pb 7.61862855053737 9.548520086654339 4.5498220988985585
Pb 13.665187101215263 9.471394396314803 10.192315823174928
Pb 6.524025854064633 7.537255780892039 9.585414919804094
Pb 5.084747509165293 10.030260789242185 6.751916035203561
Pb 11.645182237961262 10.206605587016224 12.315676382240841
Pb 11.604066858536854 11.517670498082733 8.852307160779128
Pb 7.681366510476065 12.072499792684592 6.554541202291571
Pb 6.519148099888731 10.09355113589686 12.081021818377097
Pb 9.079634775695382 11.848901792094221 10.748212141268645
Pb 6.238593316803005 12.04115486897757 9.328358621234884
