20
Energy = -64.81898037 eV
Pb 9.413517722123654 6.101032634734911 4.187360416107857
Pb 10.227748831500692 9.042236502756111 3.5854496054708687
Pb 7.333679149470457 8.617730851247744 4.772316077438159
Pb 9.38106625232013 11.161891907276056 5.650557683811442
Pb 5.218976763482884 7.490622307438457 6.767966709231007
Pb 7.836865121858243 5.559081447865744 6.9412734630013855
Pb 6.243919021027251 10.851351919021921 7.115673058966166
Pb 10.086625963466783 8.2367615464698 6.8400200120332455
Pb 11.160073889464213 5.238427643462365 6.784297447491499
Pb 12.63274145257583 7.127583273473565 8.778219487120671
Pb 9.055035565223454 11.442017807470252 9.026918340198261
Pb 7.7964073566459655 8.617614943683439 9.247583625165039
Pb 10.00645628142774 5.5532002394501285 9.90443294199395
Pb 10.988425301447283 8.62697026165787 10.91037616759227
Pb 4.2240289003722244 9.08779802201131 9.267768861058324
Pb 6.015186000576953 11.526126269283234 10.36594587840752
Pb 6.228836104608033 6.088095805177522 9.958259997537398
Pb 8.513432606681032 10.46755068189358 12.159708213013262
Pb 8.525567724706745 7.107859564181723 12.328342356019897
Pb 5.764928694730711 8.709565075155078 12.061048362052048
