20
Energy = -64.83914668 eV
Pb 7.688165993671982 8.70103559926806 4.4253008989476585
Pb 8.860196641530145 11.335666751525443 5.822731488535461
Pb 9.408538558070548 5.852270698277841 5.589932533325327
Pb 10.852100044720931 8.76593176464574 5.478393571718223
Pb 6.523520325109533 5.224788810112948 7.371188435193917
Pb 4.666329345233409 7.66411807583615 5.894816728834933
Pb 5.824345698607539 10.511593239001956 6.8012059814416626
Pb 6.433238316698224 5.833240364081549 4.2053060327643665
Pb 8.413112795782734 8.253847452459834 8.03297957006331
Pb 9.51463363353502 4.736808627179972 8.61453389799698
Pb 11.753544025011763 7.470902507323152 8.391045740817912
Pb 11.184605112075337 10.721082837354489 7.9985973163767365
Pb 8.233694298501815 11.676478440631673 9.09473233126695
Pb 8.979067355481618 7.693876042816315 13.144263574108875
Pb 4.979431678432956 7.750054570613343 9.088866676229534
Pb 5.154624962521794 10.95970851530269 9.819251091542865
Pb 10.510731916566614 9.54983821097977 10.936160266394898
Pb 10.661690828496829 6.150335673054889 11.12593053600381
Pb 7.094576329542893 9.25673317324153 11.400934704771212
Pb 7.305620861093233 5.933457366976991 10.805597344350193
