34
Energy = -112.09943373 eV
Pb 4.174086926825542 11.050738424115725 9.760673308513327
Pb 6.691622180965104 9.671816504227035 11.144470267346776
Pb 3.887291294063773 7.683152672207199 10.36726448451801
Pb 7.163064775408439 11.968534083995884 8.530032584759358
Pb 2.649833670117254 9.039254782382185 7.668598661360853
Pb 9.383406095620057 11.655858135282788 11.217800924730085
Pb 4.317344959786793 11.609972133446096 6.665396437483801
Pb 5.969286991527905 8.861016431632159 7.708084074690713
Pb 7.035847018618935 6.393095178235704 10.807323761355182
Pb 9.82651981440249 8.44451286851203 11.906402843170959
Pb 4.434354379356689 4.453534296292897 10.389699607756226
Pb 2.472992564423076 5.3394322411360955 7.902557842788375
Pb 7.1831083211966735 11.026574254373212 5.339276492157588
Pb 11.237687079921194 12.341828731397683 8.666939711410256
Pb 9.70948427754537 9.27080977252602 8.792655615484472
Pb 12.32560755468081 10.422674437811413 10.995715473586657
Pb 3.727748032252981 7.126905151999893 5.276917820723395
Pb 3.6376704189707714 3.921079666273645 5.212930663003919
Pb 4.084525518700348 2.3666200972989397 7.985220472705534
Pb 5.852570923460405 5.446730140935442 7.3398830086075195
Pb 10.340432521645038 10.974648612654661 5.907435799539939
Pb 9.205300023876166 7.785492370071664 2.606096959790127
Pb 8.854349918984923 7.535039084495094 5.952950606488428
Pb 7.167720102228788 3.0244057025786772 9.01112878060239
Pb 6.293780142535877 8.39020301013446 3.8261321127594043
Pb 9.75448045956495 5.539361727681721 9.415752380652293
Pb 12.40035536121417 7.380890910919294 9.994440415998607
Pb 7.327941009138661 5.241164517259262 3.91303759155393
Pb 6.446742638288369 2.4499028509174896 5.826023528383648
Pb 12.935634522312302 9.720032745136606 7.7437662835336845
Pb 9.336382395281097 4.007853406923561 6.505965366031307
Pb 10.678959294860206 5.3343500173615235 3.9358737010991938
Pb 11.732208147170667 8.386054848762932 4.516137993326366
Pb 12.034074074351071 6.2319844904809685 6.949304991416042
