36
Energy = -118.45315346 eV
Pb 8.736442021944166 6.068768198097406 7.5680771840510666
Pb 8.79711232139186 2.73925230490141 7.965117050328442
Pb 8.564659380917682 8.223017547417047 10.273938789661978
Pb 9.349386231794458 6.785706370609399 4.339947895694163
Pb 10.77728827864867 3.8345033725587983 5.740988745581165
Pb 12.20224980345726 5.84364327556613 3.70121006900297
Pb 9.795815742341903 9.207849202093302 13.470006171927992
Pb 12.724106624312933 10.03939877542152 7.4298732724940955
Pb 7.340377949938235 4.036014073117454 5.320258384672335
Pb 12.102033090229021 9.096842784885277 4.4006097943068925
Pb 5.848575947870064 4.227766868971757 8.383912058270289
Pb 5.822738582540768 6.502716862009896 10.949149522218233
Pb 9.223003408844004 10.43393884164844 3.5542055602317935
Pb 6.632454620775453 9.47803316725945 12.661687353321993
Pb 11.43109708064303 12.168405341845386 5.175892036669104
Pb 6.389690760555567 9.978919703539056 5.385684866466934
Pb 6.121368067813174 7.025555831483729 4.189354434357797
Pb 9.546008085904289 9.477459819375127 6.7088968574664705
Pb 3.1906613047960417 8.386936754701315 5.149641512072243
Pb 3.985622077419601 5.1108836465247265 5.807852036963435
Pb 0.9844887401791677 6.320350745743494 6.145855959073045
Pb 10.57029897083738 12.233747434687507 8.353277838477977
Pb 8.380945236210788 12.684245443368292 5.863065265705269
Pb 11.330860078094794 4.606995924360146 9.011936913583735
Pb 4.007425997612983 10.66959444728566 7.472204672278726
Pb 12.238074539694178 6.698418492970153 6.799312731393346
Pb 5.612664291413053 7.6340879962288435 7.631323311054966
Pb 1.355636171866102 8.843262028739218 7.949454701777393
Pb 2.7522874070291588 5.966643420127574 8.778092509666957
Pb 11.494412661578034 9.475697730590921 10.67887887159697
Pb 7.081581265804471 11.300027871132023 8.514465195393914
Pb 7.954784523717768 6.614454547542971 13.459256542545502
Pb 3.6868879122147713 8.79867062279568 10.164619438111128
Pb 8.532111911026384 4.55911004418762 10.767879840538336
Pb 10.93214098535562 6.491881500023412 12.066206078906832
Pb 8.850135092672627 11.382103373991702 11.28420368802596
