36
Energy = -117.57040214 eV
Pb 6.698183993292221 7.226599323032114 5.303631372164201
Pb 12.898817203713689 5.992987441276359 5.644165016829571
Pb 7.309577344026814 15.366450516927658 9.17351715069521
Pb 14.243544486926732 8.300199133795486 7.492621110871215
Pb 4.308895399710796 7.198330331882972 7.402290543908292
Pb 7.593991037635903 10.66662876969978 12.55023380062376
Pb 11.508255283522105 3.378063263117785 7.247244213984371
Pb 12.326965380644358 10.756394021573357 8.03398835569768
Pb 7.876992204514751 7.548987300051153 13.91320312905963
Pb 12.08432355451472 8.089246655374255 10.014044307565959
Pb 13.541549251234427 5.450138084637359 8.784757150085383
Pb 3.5623134560076086 10.005717003116096 8.77934478994953
Pb 4.840552717488085 13.211485789313464 8.818905467040414
Pb 4.765225669574305 10.994644397857302 5.996963225360218
Pb 10.128061735530064 14.079347400204018 8.120472204163244
Pb 8.654649224347484 4.7435509522662755 6.250523228265818
Pb 9.512452178737064 14.171678924434412 11.24015815124012
Pb 10.00265001852972 7.222324527075667 4.133635726561373
Pb 10.281232003106739 11.679809955573287 5.806254959543901
Pb 10.703473330217156 6.400131376488695 12.949469286676063
Pb 8.738075339673436 4.616697579321722 14.77979719848547
Pb 7.527307400098603 5.089336344123879 11.880652478811095
Pb 6.376033695370052 13.915741684806923 11.81812591654462
Pb 10.846931982695672 4.067944344577498 4.187182837819607
Pb 5.586133406431822 8.248381328384735 10.872833116028897
Pb 10.07717379068867 8.457644063229234 7.123046524771069
Pb 4.554701371241822 11.238423105398747 11.649586332331399
Pb 10.203020162163426 5.311488030382126 9.485838418403866
Pb 10.15722740249145 3.3478035517055305 12.28505143457331
Pb 12.50012245308177 9.323571326806485 5.002027236892724
Pb 8.05405218492284 11.969566807739454 9.538439958761158
Pb 7.252818857271755 13.232421357989027 6.571817268560963
Pb 8.866236622518148 8.152733041267 10.721544305046836
Pb 6.952752272475016 5.974697467026508 8.701378270552873
Pb 6.822397732968657 9.386682099639893 7.9321411962479305
Pb 7.660684661475323 10.201527508747649 4.81248912472509
