30
Energy = -97.4342765 eV
Pb 9.615385037865835 7.5976444763720545 2.0301989776702682
Pb 6.318833480548328 8.053333278136751 2.348409526520314
Pb 7.768311220087118 5.41512901796692 3.470929881645885
Pb 10.718939362517556 10.510540497928357 2.167801772503111
Pb 8.124909614481748 10.18286168136017 3.7104444462336783
Pb 10.831461059833781 5.691190121991446 4.391569662175298
Pb 5.4866750087676825 7.083117613627674 5.278660665876851
Pb 11.05402579265371 8.84923839348174 4.828996349968914
Pb 5.548640680634437 4.016148101822023 6.276572198015658
Pb 11.377183194088952 6.306448940584763 7.720669903970263
Pb 8.807886699658056 11.090017796360184 6.857205570561429
Pb 5.497206001620692 10.142426442362604 6.474122588068185
Pb 8.49737873186312 7.572774369304767 6.299034616320892
Pb 2.693398787714249 7.632042817109067 7.300874173232153
Pb 3.0756371434031187 4.297744442222093 8.601413597504454
Pb 3.837062021297413 9.882043276797283 9.461482529579605
Pb 10.71442169502756 9.213438872860054 8.906728720488776
Pb 6.462449580702242 3.2866922625066954 9.228566921499292
Pb 6.279724311755451 12.278569149926827 8.740664491251897
Pb 10.823989644478518 3.8024117972330327 9.592447086387578
Pb 2.5006412400654368 6.898908311703751 10.417054488145608
Pb 5.38946563749088 6.480286467033667 8.698260527619365
Pb 8.865724906680265 11.591310420899546 10.342830002640975
Pb 11.417425071662674 6.585023204454869 11.030494563561511
Pb 8.869323211908274 4.125349234420571 6.941541555911477
Pb 7.148828342804562 9.109224802764645 9.138440959294249
Pb 8.457345710958807 5.943931008045044 9.86743138130619
Pb 4.766677735584148 4.845388588906522 11.473881325766062
Pb 5.307965603105912 8.056479147776004 11.806682891941865
Pb 8.93929162745761 8.65649362075851 11.792796781055557
