38
Energy = -125.6153552 eV
Pb 1.2795979992263695 9.171201557127675 7.479871682613697
Pb 2.929283904505284 11.414937667723015 9.032691099722957
Pb 3.5632385220864995 11.023125921103613 5.82663820539967
Pb 2.6950973455826404 8.34895807106719 10.390295143494395
Pb 2.330613407476305 5.931622678761214 7.728188027157905
Pb 2.680909351293466 7.687887039543336 5.0021028165887635
Pb 5.575709927653774 10.271529813277962 10.646111167701333
Pb 5.887358844234785 12.089081270133743 7.955206629076096
Pb 4.65933204137539 8.678965585625132 7.716954446111206
Pb 6.8981664379073875 9.92327321542257 5.35463734906777
Pb 5.3885933179891214 7.052622919197457 12.230132062142115
Pb 3.224697316402503 5.09348822704625 10.809138677324633
Pb 4.280271647210713 4.679442014978955 5.048079729650169
Pb 5.373399263369338 7.28117750234234 3.165465025376771
Pb 9.189052435453647 11.983501093196582 6.723250814591378
Pb 4.652321890059992 3.3821421073341207 8.393045122625184
Pb 8.013726819757387 9.428385698834303 8.520715947590386
Pb 6.15391097289304 6.105761481945212 9.310910709040563
Pb 9.747166458006875 10.710674342954146 3.68107961591485
Pb 7.001389988481288 6.485553695957561 5.8528344049995304
Pb 12.2188345700892 11.526252971053744 5.612952640972791
Pb 11.38137880399718 10.403287031705643 8.64052116440384
Pb 10.264138979108262 8.584989549505424 6.025491014336464
Pb 8.383851081678015 5.677093250006193 11.939037122455169
Pb 8.587790449224286 7.335329177443137 3.1032890113453537
Pb 10.443478685118986 7.978064451809598 10.989132590642106
Pb 5.908330039265524 3.6423484355097417 11.663626603077947
Pb 6.860025187906106 4.419686013729504 3.01057435846949
Pb 9.393467762257295 6.281752509331588 8.437639603857582
Pb 12.518203434806315 8.841229295649164 3.713521054347325
Pb 7.04214903719583 3.1809715375323018 6.041761124355289
Pb 8.216207493208854 3.3283788153237124 9.430724053856254
Pb 13.80524466626044 9.006380897127311 6.728597332297887
Pb 11.21063291544262 4.676057383163884 10.846678143976183
Pb 9.594614354065714 4.802207301065279 4.770376979204866
Pb 12.723310956503457 6.837994241385756 8.948648924771863
Pb 12.58405178768395 6.160141743958119 5.563655392683318
Pb 11.46607589831346 3.9324665830879173 7.699692923427068
