32
Energy = -104.05260593 eV
Pb 6.882278267385681 7.387708058542154 9.556393321127526
Pb 8.965473278559445 7.18527048171375 3.738758033496912
Pb 8.581772141568443 10.003120608173159 2.360433822232621
Pb 3.779150470154666 6.634278769292909 9.4588083968845
Pb 11.656142434346355 6.553494604440011 8.50183987839278
Pb 10.808657947750016 4.548157069967384 3.7784729563360098
Pb 7.056025808848504 9.77870201071743 13.54904177817259
Pb 3.5094731867790534 3.552160592856497 10.247382044367567
Pb 8.865199405909536 7.880192025579437 6.939403488068647
Pb 10.322198380340996 10.152689352789478 5.085342498477108
Pb 11.509906936094342 3.360461233219984 8.952354459973643
Pb 5.9948802511356964 4.75625414303892 11.869970927811668
Pb 12.83438070212497 4.185266659580012 6.286097138743595
Pb 9.566385760347384 4.540536844769295 6.670994191115233
Pb 7.340802406714448 14.122934112725115 9.403001709711585
Pb 9.068489166042228 12.713684918675531 7.100166830213294
Pb 4.9260578341050785 7.876018417813735 12.24667233834254
Pb 6.125444098945745 4.442320055109687 8.41850185121503
Pb 11.898529503338667 7.143407989918765 5.399922441029168
Pb 10.683054431186463 10.165621731879343 8.492932417772339
Pb 5.773445485246445 8.681756018443782 3.371424139758971
Pb 7.020325724662029 11.307931387884592 4.708745585249808
Pb 10.243018372268317 12.993218648562719 10.204305247823525
Pb 5.382486216895273 9.030094928705012 6.509880297010048
Pb 2.9056098915992816 5.532011692057374 12.528250285051692
Pb 9.834035092172403 10.119203687594412 11.780618367073739
Pb 7.590540438650847 10.6963452479838 9.458178283498281
Pb 6.430304464491278 6.219443726059622 5.371649989973626
Pb 7.727161108169919 12.571501920971487 12.158269137688546
Pb 5.669751805496826 12.18051850241091 7.351559380775939
Pb 8.979870035042573 4.940933476022611 10.034878971864293
Pb 8.33467474187077 7.0675643821032175 12.468575244391056
