32
Energy = -105.31933659 eV
Pb 4.8019058362181966 4.193554094294377 13.194532854531152
Pb 8.750577166117063 5.301728058342396 5.636754728001576
Pb 9.715735305469426 8.040132821977457 3.671708246119775
Pb 7.939608603675281 3.7973385385883485 8.748787442908123
Pb 6.587036183072325 7.13251280672248 4.112248127396857
Pb 7.843797619285045 12.898990916249213 5.0163461493240735
Pb 5.008818300273318 4.59022027399522 10.032546172211186
Pb 6.81575528503192 9.286149738900834 6.931556113118387
Pb 7.346216568686391 6.869612649810285 9.390091199574297
Pb 11.0959424346593 5.186748241246422 8.235161041920666
Pb 10.13461520910189 11.282364213210657 3.7409026688691998
Pb 11.448581918771444 7.765490002258454 10.354617633300235
Pb 6.109451875900579 10.067011651441838 10.417597828654138
Pb 4.025881940638549 7.662766379104855 8.900591276698476
Pb 10.049137790457515 8.305149855078925 7.315084542776826
Pb 12.364703261857608 9.588301974612875 5.3040958328673495
Pb 11.937298753724939 6.234258302635239 5.241542473949196
Pb 4.88675262691841 12.038789279133836 5.441902086116321
Pb 8.488283492193833 8.118804917972945 12.08378055186643
Pb 3.8823535039944264 10.721763635536464 8.110858001979075
Pb 9.756547830227957 4.978940839298742 11.391276672107994
Pb 6.819424818560724 10.232934109805893 3.3898033131678567
Pb 3.966960471516548 8.771636907080875 5.46585257455515
Pb 9.440154886285695 10.887620628777016 9.937451567090578
Pb 12.397265440524436 10.44663686329667 8.598632542036007
Pb 6.95657855364997 12.440273047717612 8.165011621432852
Pb 7.629645196238717 5.493467043375114 13.739157092840275
Pb 7.352792574737922 2.876026966677317 11.853158433550908
Pb 10.308173481533219 12.264516309521369 6.989936876029816
Pb 5.4640068861126965 5.764766175918777 6.757776845890113
Pb 13.410342463646153 7.54387714595274 7.71473199024268
Pb 5.239439339782067 7.191401230328168 12.090291117735866
