31
Energy = -102.10869765 eV
Pb 10.015129128551704 5.356268985114167 1.986934625884555
Pb 7.039907822732452 6.601901741969772 1.7634551989980836
Pb 9.731510872139435 8.517473333631782 1.5761354135235734
Pb 7.729970759181958 4.210852392720606 4.076532882737586
Pb 11.71587887939658 7.424138373060956 3.9343332781793854
Pb 7.0569127200410655 9.81371668081111 2.783272587762165
Pb 10.75537220360419 4.464966891081604 5.041436522521758
Pb 8.410929879582925 7.267154189105163 4.650698577485456
Pb 4.753570443658023 8.222881968071485 4.510754703216051
Pb 4.830593327617405 5.044453103639173 5.593366505382831
Pb 9.812606486064753 10.1307204051985 4.479425883195206
Pb 8.93567350595274 5.474704865882406 7.4595497995976725
Pb 6.755915278105534 10.470844012502234 6.17062060723819
Pb 10.334914746282939 8.403753660474965 7.4211630663043255
Pb 11.285524269459657 6.2743047256839555 9.819631662376949
Pb 2.4825130528917336 7.204356237909872 6.594872333240703
Pb 5.736165458139726 7.52607769431434 7.673736740977218
Pb 11.049311335244555 9.464930810617448 10.490729365186928
Pb 8.634662014265608 10.883857869411953 8.829177261750903
Pb 3.525681251932112 10.193956124299492 6.909341702163414
Pb 6.402664908327367 3.927244756034244 8.536173480295606
Pb 8.101959728090753 7.66592836556882 10.025692844070637
Pb 3.4196958907018584 5.093168503436016 8.702971290475368
Pb 5.434731348572504 10.724452420205976 9.633857755513212
Pb 3.0514815707961405 8.297202449676892 9.667292345907573
Pb 10.276269517296006 7.250159184397336 12.7155195885497
Pb 8.695954331761872 4.673386457601327 11.14080537885701
Pb 8.15412802106735 10.087599483743567 12.131291647271452
Pb 5.2338371645209145 5.413186262421516 11.33822058574513
Pb 4.9404061240680965 8.74994998136441 12.193292022730484
Pb 7.233305011045382 6.956678941741077 13.333396631071574
