30
Energy = -97.55028453 eV
Pb 3.219351814358785 6.398224369686507 2.9189828465158834
Pb 4.91753532859914 9.179860737274804 3.364590375467258
Pb 8.315845293939075 9.404458564817629 4.40030106585466
Pb 9.275965808455108 6.32296804254797 5.431651566262216
Pb 1.6224739865870406 8.852050021596298 3.596759563442276
Pb 6.041466850679747 6.410460182479428 4.519205670154611
Pb 11.024109607662702 9.037998917703497 6.282022569132848
Pb 12.521328920715606 6.307162245901476 5.979785410388664
Pb 6.49018321159847 11.917634416633714 5.611595121628393
Pb 6.001966138780375 9.007151751553423 6.817850812852033
Pb 3.1671976288120915 10.822413559545131 5.563407528725098
Pb 3.25952691419692 7.294636285151342 6.0189829370080234
Pb 9.640448828553957 11.804655127783855 6.474937444410323
Pb 10.628565227181252 3.77484361937276 7.219067434816976
Pb 7.446732985898167 4.8705096852371845 7.868957606546293
Pb 8.92152891576567 2.6730102381238625 9.714978363062114
Pb 12.15754233666077 2.627963439393859 9.886624195928638
Pb 4.36479530212017 12.353726462758067 8.07667617137482
Pb 7.531527402401751 12.141339539031328 8.967659009851811
Pb 2.9733723291656387 9.360929781392617 8.560783214926788
Pb 10.277894251880618 10.300621744104326 9.248234722558442
Pb 12.525426762115828 5.736321545045948 9.00970228651206
Pb 5.573076667238164 7.580176043567931 9.585461132162195
Pb 9.541053972271406 7.132458336114462 8.688431099176418
Pb 7.895379268627533 5.539115981813017 11.12496226460326
Pb 10.321659103127608 3.843738755681516 12.370563010282437
Pb 5.046896737443825 10.63752992622543 10.691998047533584
Pb 7.875649799709499 9.328055986209105 11.067129687722915
Pb 10.791594984914486 7.01677644932214 11.634084947708295
Pb 13.234947248955997 4.928251872347494 11.909657521807727
