31
Energy = -101.79229513 eV
Pb 4.558883254593216 3.919870498779216 8.659143196251096
Pb 7.736121702527467 2.54348894833051 7.4611855284850455
Pb 2.0763112094198592 5.886129789367728 9.56407742966416
Pb 7.766323687710442 5.3973296651528075 9.365918009913422
Pb 6.468987204341703 2.7017244957293896 4.489612963838774
Pb 5.048008962446744 7.3919556790558945 8.510675956163759
Pb 2.955749251480793 8.605171564923918 11.013029684358541
Pb 3.1075850980801816 5.738059848105843 6.4048962083124295
Pb 4.791438250821259 5.808998830137946 11.381041741718667
Pb 6.388512178437242 5.293658498507481 6.292319879072828
Pb 10.90038289894058 3.7765795495613066 7.488501485627346
Pb 9.597015437945661 2.6598334385669324 4.778823327095987
Pb 11.344486968520131 5.927061164093625 9.894279206520203
Pb 2.109775343167529 8.639257168251143 7.816245149947743
Pb 9.420971185517676 8.303445332517843 10.843806219232361
Pb 8.14373574419918 5.2745092292574824 3.471288448936404
Pb 9.642604030951277 6.839549650895483 7.066201050739143
Pb 13.023994360608203 6.383209005739032 7.198723614840075
Pb 6.291047712132521 8.85997764512287 11.28659583022396
Pb 4.6230909780810325 10.771524962660799 9.11235496462419
Pb 8.11372636396623 10.788599549975142 9.202586822724928
Pb 11.291380848489121 5.461038549809496 4.525845441018633
Pb 7.224807919495355 9.178976121329697 6.582725016652182
Pb 5.957594676702702 8.026730266953768 3.9724860187374516
Pb 11.646749237558108 9.00784172092678 8.666668969560492
Pb 4.1565431185765656 10.228569804193247 5.689347512323102
Pb 11.668470240437179 8.900704373251795 5.515171704309498
Pb 8.981159825431336 9.152899319084149 3.684823051859146
Pb 6.234724641629437 12.518147224935396 6.885412384163465
Pb 9.367085110433765 11.550903137843605 5.948627744921828
Pb 6.76860521460186 11.392303350728378 3.9719209255418604
