36
Energy = -119.31750987 eV
Pb 2.67047846431595 5.545847084905784 10.360106190820732
Pb 1.3821898154930456 6.3963724560539275 7.5449942163408465
Pb 4.853106540465035 3.0561293891197443 9.869631185870835
Pb 2.217253633660851 3.252884338865964 8.044889031196996
Pb 1.9342772818540241 9.682018670527086 8.18097842932914
Pb 5.722811637552013 5.984784295306646 11.071548570500186
Pb 2.3963859030956387 8.539349953123729 5.11088109988186
Pb 4.556283163784152 9.162156484466676 10.341930622715482
Pb 4.688302227689888 5.691885266068244 7.727006101401205
Pb 5.045347180655773 2.5738564383403166 6.603823642088789
Pb 7.846512795923275 4.598733567751993 8.895141219168336
Pb 2.8730684881080255 4.566930256302278 5.084488062365388
Pb 5.145142129970909 9.139638124510588 7.1485951117008515
Pb 5.17226134800808 9.987558354428847 4.0301862825816634
Pb 11.987558798132874 4.103916833755966 8.887450763441267
Pb 8.431483597917522 3.483573781937587 5.977197458210735
Pb 4.594999895954969 6.81614765580585 3.3045028304890494
Pb 3.0074847637456092 11.706326574023247 5.8141219841059675
Pb 10.45016391092298 6.557449331237552 7.334017912440626
Pb 13.09763510975298 7.089562997985886 9.741182582982612
Pb 6.142911831494079 4.072356072241096 3.7617412714591105
Pb 6.289745141042181 12.137587764801978 6.298597761037508
Pb 10.243098993228966 6.084494740049538 10.852473252027696
Pb 4.106252303897261 12.099432256742965 8.802905132678623
Pb 11.776915149387735 3.9286505383323953 5.497737858905301
Pb 7.424711783191441 7.046308527250551 2.076168414990443
Pb 13.899569984429228 5.945956053846245 6.896107953690265
Pb 7.306442704253342 6.724537645206009 5.5788797897884255
Pb 7.718808104314577 7.903005250789952 9.401864075366735
Pb 9.580725256839619 5.223958905704541 3.4840289513072666
Pb 9.513340733732099 8.534694801342663 3.9202055064380588
Pb 12.617401174722511 9.01836593549701 7.049502540430003
Pb 12.353744104697054 6.938194625554587 4.226294849053786
Pb 7.091422045323442 11.151861003713808 9.325606135175965
Pb 8.898264243306013 9.684105272737142 6.927023153400141
Pb 10.729631652143444 9.238911491821577 9.72677342238904
