30
Energy = -98.58822986 eV
Pb 7.605643192737922 12.2110811950354 3.3952468454689417
Pb 7.170418247373155 8.887718151910963 2.954543378385543
Pb 7.08327834799917 5.7593952843863585 3.8243664957630035
Pb 9.696368840123878 7.237923975783201 4.971869081395322
Pb 10.250403046373474 10.168804224465127 3.568260417278197
Pb 5.090793648179233 10.712707815826569 4.804845450921778
Pb 12.442764362130614 7.032073084657314 6.81738349219607
Pb 6.885949150436957 12.737010676946657 6.644744868248425
Pb 11.793866936148495 10.3227471132279 6.650072819479695
Pb 9.982897406154772 5.265294608406251 8.139909675399482
Pb 9.861834795656696 12.689252183373643 5.535047386372241
Pb 4.732250614070986 7.567383743508762 4.8713272320908
Pb 4.411964508140124 5.645957696656633 9.217056338177995
Pb 8.01556725524639 9.656739067969951 6.1858635898648195
Pb 6.976626296175281 6.172408226821965 6.964388272945565
Pb 10.333586100583563 8.283597195079292 9.241775290045602
Pb 3.8786099604574797 8.460839239860485 10.850193025737713
Pb 13.538111361053666 8.876420899878866 9.250618487547857
Pb 5.2567762171687615 8.89476291180963 7.827805360855052
Pb 6.818991849053663 10.243104638801231 10.630340537690234
Pb 9.36370217985597 11.488510293564818 8.538622954270767
Pb 7.073756931933699 7.1264615335026695 10.371495003611978
Pb 12.948704988235662 5.78147377489703 9.744362989259127
Pb 10.198740479851578 5.38361805476128 11.447498532775615
Pb 4.488464510217392 5.751105995215892 12.517536740862573
Pb 9.089952878595273 8.69825573071906 12.557970396145073
Pb 5.853294562837013 8.534884685253598 13.417699274158776
Pb 12.193772777479081 7.9330015145860715 12.002298093769962
Pb 6.809157462993753 4.075629924834311 10.892990759603233
Pb 7.572128541806117 5.820214007328307 13.582244658747353
