35
Energy = -115.6129686 eV
Pb 12.172592338692375 5.700432537884846 7.835923772324665
Pb 10.979440991191451 3.6284665087242587 9.993608145556722
Pb 9.674450807708064 7.089723001762884 1.7113026137298222
Pb 9.829118460360842 3.6076414584828074 6.921109640574473
Pb 10.077758171154143 9.912869121169242 3.31193859600679
Pb 11.376119521201073 6.864698344441213 10.805477668322276
Pb 10.934051222360376 8.792674671413565 8.294216279656887
Pb 8.3088176684164 4.806526250011119 3.9529008613798964
Pb 10.166850306747696 6.934136326398615 5.526323868745309
Pb 7.99279319321426 9.697483176236538 0.8387200814257482
Pb 7.6947380710018765 3.2013313607023473 9.468319884026542
Pb 8.926312573774217 5.1823525906471195 11.951012812527216
Pb 6.447456493948814 6.562319750194934 1.2940222009571336
Pb 8.891830660581672 6.2041101328113974 8.781022825053345
Pb 5.311673161917008 3.9687636899394563 3.312113021627387
Pb 8.253440651872333 9.79590863972796 6.687989287528831
Pb 6.287597253729822 2.63452221496905 6.2175784651211625
Pb 8.660205564904194 10.550194454870198 10.085153454014208
Pb 7.425850852173357 8.140124951489117 3.9174713787254585
Pb 5.768698573964546 5.607910792226082 11.577992332577008
Pb 4.456828971147413 3.9769981302922193 8.672871114682788
Pb 7.586663766208185 8.404008553474657 12.421083037984706
Pb 6.144985773781038 5.918632981618371 6.42969485979776
Pb 6.198322179170768 8.29968147620259 9.406798530941016
Pb 3.268466473588951 3.868723642889954 5.725694792392376
Pb 7.258051383586995 11.39733559405664 3.5120089444723317
Pb 5.013473834748159 9.459345626802342 2.202955324028407
Pb 6.017912559050984 11.609261151350667 8.346841649897792
Pb 3.915582086708781 6.805202275168729 3.9658334534366695
Pb 5.75451520517977 11.135695590846435 11.459561263377264
Pb 2.9724796038229053 6.586561415883784 10.255822527245087
Pb 4.345204365342368 8.51973355506657 12.432187935435579
Pb 2.8869972937558748 6.83526188655834 7.089861071992734
Pb 5.0333420497751 9.332123086935868 6.007878396986251
Pb 3.3881959451661725 9.79756648403836 9.365773338902518
