33
Energy = -107.34477638 eV
Pb 8.886683166961976 6.74710374675628 3.920815185455933
Pb 9.90203115372496 7.1179153780583615 13.375527420436491
Pb 5.1023937943429765 11.450939788968244 10.486192629571244
Pb 9.501720250122066 4.028634592701823 8.540594006136024
Pb 13.812180422874288 9.158607906217764 10.02839034652054
Pb 12.789734119814737 9.278947300316611 6.914017273645938
Pb 6.4954759461177725 6.6107574076765365 8.582293519659638
Pb 7.597441153056099 4.758702064635024 5.866130378623288
Pb 13.820610776505767 12.14006437027167 8.714941931580732
Pb 12.42098846432859 6.233802959250759 8.807654846330786
Pb 11.3780407800069 12.198085114901446 6.094916246571858
Pb 7.450057597407322 9.913559687691805 8.589574026175324
Pb 5.86014484122089 11.758559943372331 13.606212439452216
Pb 9.571149647292634 7.954706431208831 6.855015494186612
Pb 4.456950321600285 14.406484421642006 9.484118938528772
Pb 14.511680061384018 11.740943777073172 5.636805970886718
Pb 12.867028729649165 6.846891255296862 12.118576283215797
Pb 6.543054136598805 7.9420751148422175 5.626395762220775
Pb 3.418789483532074 13.465353039147095 12.249827796712085
Pb 7.49832425468118 13.341606768753218 8.934818405191816
Pb 6.517014936976486 14.445614458135017 11.930956684913998
Pb 7.677058345796806 5.284337097316279 11.33023249140331
Pb 10.758579615721137 10.78593883458556 9.044384861365177
Pb 7.002612369187149 8.614604010040923 11.537124610622719
Pb 13.456109680273999 14.566658400579096 6.625003231740587
Pb 11.002360643600843 5.296591981588582 5.891960879817849
Pb 8.424312900208534 11.77103309643036 11.470812893203183
Pb 9.875255769977844 7.595045326976156 10.15562199521645
Pb 11.5159380235482 9.837490910514045 12.220185815463067
Pb 11.197294459175184 14.002236270868067 8.78706363159478
Pb 8.732140497144465 10.103791945108982 14.08306328718448
Pb 6.477433637970362 3.468219081357389 8.474400821459815
Pb 10.836022333160146 4.49130983168121 11.372982208875625
