39
Energy = -128.70049483 eV
Pb 8.897686428034003 2.5496878862244 6.086143024225228
Pb 12.263573417631903 5.2767058484031315 9.181212615637245
Pb 10.242444771812178 6.16171330886475 3.329838699289383
Pb 8.469107494723884 3.562158474478368 2.874236016426123
Pb 12.576379032850923 8.006443208618794 10.775353157193415
Pb 10.854186262816846 5.184445094232781 12.227033659776897
Pb 9.465075478518797 3.470725885566959 9.249088636706846
Pb 9.405196948409051 9.06332836594989 2.5310922217713068
Pb 11.321742377849773 8.262508373338003 7.755025186987352
Pb 7.506326487192306 6.679264858759563 1.509479133204137
Pb 5.971022070439592 2.2770832216701287 4.6039145249851305
Pb 10.351508341928739 5.40453816197381 6.555873714168801
Pb 9.256769593301874 6.902303442146819 10.18815681967896
Pb 10.483369844436178 8.435487432244857 13.157074296303668
Pb 8.401239088557714 7.881859279744569 5.490304994262691
Pb 10.12729607151554 10.152591620077978 10.219311538133741
Pb 5.998193367091277 5.672322488607141 4.690689771677189
Pb 6.174208957972311 9.843235684675046 2.166275076585122
Pb 8.043013231280794 11.018180840646552 4.702942040701939
Pb 5.54535288247397 4.1152334997739155 1.8173604489443291
Pb 4.3001005191393356 7.1012617031209295 2.0870058411574903
Pb 5.004653072741621 12.147224701777887 4.213593620551745
Pb 7.884021460331008 6.474414135212198 13.396509045773913
Pb 6.199918840795683 2.2115847231166907 7.871174374754367
Pb 7.26918476103678 9.016545391517445 8.661729752011254
Pb 7.007528167725795 5.509565440918151 8.092847840082138
Pb 5.075008196710539 9.095790566646617 5.728250158874158
Pb 5.949460367399763 11.946745664690823 7.367023677054561
Pb 7.1668121165421566 4.0686630710870775 11.383552121596868
Pb 3.6362576440315824 3.7053464941925562 6.396861233573098
Pb 7.576383006716459 9.488568316637043 12.086411893025915
Pb 2.639926365532856 6.473278966119588 4.742850866235865
Pb 2.7274657923059027 9.868952719509316 3.5971005927677546
Pb 2.8238654433671875 11.79934737936884 6.496297219769341
Pb 5.6522381776280275 7.0543079207331925 10.972053200593756
Pb 4.314312624080949 4.150548888273342 9.643287276231675
Pb 3.7141795679552794 6.776233254670578 7.866843759479679
Pb 3.931312989714651 9.856399589795139 8.927195883828636
Pb 1.5519515474694414 8.884750725245995 6.617489743208588
