32
Energy = -104.92550105 eV
Pb 9.847744777320134 11.661366591107624 7.376062266727217
Pb 8.950851470388452 11.018364121273343 10.541640608930896
Pb 6.580330503662707 11.979112182381396 8.45385160096329
Pb 11.257543030750764 9.082588697728506 9.378935893875775
Pb 7.445111584745281 12.766168126908713 5.31181653889539
Pb 9.125758466505685 7.969670296850457 11.934866155215541
Pb 6.10462653883311 9.596090295999463 11.41788099203026
Pb 4.260290135885139 9.542505335387975 8.606010840530391
Pb 9.616202533631748 10.709581592372285 4.129128233768491
Pb 11.519281313282221 9.12031762948432 6.140275743429714
Pb 7.414357527137822 9.394298068507789 6.5758824142898
Pb 4.659159087502012 11.488878654457897 5.8310458108239995
Pb 10.89551431311715 5.9248896026948605 10.089383890599684
Pb 9.507332575885545 6.8861559869154725 7.3326298326856865
Pb 6.228544696392044 6.606029676202294 12.958052744513733
Pb 6.550575757853361 10.06099893165031 3.504318075549613
Pb 8.39801350573906 4.652250229015067 11.641411521410483
Pb 6.934435196793575 7.075666390271457 9.467485097847453
Pb 9.32186651132877 7.166702177733072 4.048032063644543
Pb 3.810106962606468 7.262178146290528 11.11956171036477
Pb 10.41725914069835 4.221664759396843 5.326340355272279
Pb 4.33711377863385 8.253941613320075 5.342585027592593
Pb 8.655877368179883 3.8287700024377966 8.226383956770453
Pb 7.0917579284195975 5.276773186870381 5.648421163859792
Pb 5.413915459740687 4.399401539909246 10.535265372883755
Pb 8.485984828440872 4.015953940926094 2.7486374053855744
Pb 5.999067942356778 6.316642680391021 2.8080789134594366
Pb 3.900379722193202 6.128492775947118 8.029305309104894
Pb 8.086525577098707 1.9888618434117646 5.2877762127310355
Pb 3.6812989239594054 5.091521824038139 4.965559759167577
Pb 5.329440969533541 2.9566931285698983 7.013613149082606
Pb 5.507234351709898 2.983317598614755 3.5647722553048777
