36
Energy = -119.19625845 eV
Pb 9.520158198371487 6.169738999721348 12.874050976760307
Pb 11.94578059330296 8.063030764116725 11.534330998039941
Pb 11.077068691350672 4.490438320256502 10.374117704677504
Pb 3.6821352432465537 4.471470025477409 8.166368107743407
Pb 7.759287692273789 4.787334343573256 10.407514006381898
Pb 9.168284392485525 2.8635191198797143 8.058891534734745
Pb 9.442429625021509 9.355372501482663 13.376360008062013
Pb 6.680086854675015 7.881303823963433 12.409858140912085
Pb 4.168848136710008 4.000933739371765 4.930717133497676
Pb 1.3917842403427827 5.269868392897952 6.045213172113536
Pb 8.994993567212413 8.214040800911445 10.136905074029338
Pb 5.4904245764953385 6.868449381147027 9.440133320578173
Pb 13.12649007638278 6.4449824364905375 8.639250605914395
Pb 12.136594683455272 3.7400341680941187 7.2462718980048955
Pb 10.66011700799305 11.145564062989665 10.987190961358898
Pb 6.7599918170370055 4.9623703976578994 6.958874166803155
Pb 9.914524995992503 6.209301571256032 7.722792510304384
Pb 7.41928847010792 10.877640151746926 11.234618878261369
Pb 11.738325316523573 9.37737498157838 8.343154324451833
Pb 2.1136922458332386 7.449757475179194 8.461720876818012
Pb 2.9428642334106008 10.43280502179699 6.9604162105499885
Pb 5.881884768275884 9.765763936581639 8.325381158193984
Pb 12.15766324913763 6.55795028905606 5.382912373305937
Pb 9.709610399227492 4.302667422173893 5.051533078470125
Pb 6.794077183516296 5.4881781741889 3.674052054566115
Pb 10.530414425329335 9.590044370295036 5.387317275757188
Pb 7.637105375348185 8.125611307594047 5.900593680553928
Pb 8.928514092079807 11.135765923901427 8.125645972273508
Pb 4.301514699783182 7.439736449834057 5.928103566246204
Pb 2.708721265086131 6.596661949018506 3.2602314122468448
Pb 9.392854953874863 7.435978127058712 3.2012547955389756
Pb 0.9130696426517337 8.339897277035824 5.499590429194261
Pb 5.8865349242010305 10.833799744444011 5.20287553438802
Pb 8.408218023292026 10.518919059151797 3.181220107500577
Pb 5.997623704364396 8.485202668204652 2.7838622019000567
Pb 3.0825819117760718 9.879252685049353 3.689175346587463
