38
Energy = -125.55223791 eV
Pb 11.199870708859114 5.918545398196151 9.10671098434918
Pb 9.523826332893377 10.805293683000931 11.538224722037583
Pb 10.059201900460057 7.595732672842318 11.790369882191394
Pb 8.83698188524482 3.6717335838564638 8.668256503555767
Pb 7.172394927215043 8.96229112988774 12.491443707926411
Pb 11.572632816616672 9.332516711619933 9.365449296659165
Pb 11.636073013758823 4.686429397552991 5.911845382885763
Pb 12.872598500089296 7.490891431928847 6.841489246933342
Pb 6.40155220785756 11.142582274284413 10.191041789183059
Pb 7.22418908559812 5.828165639497919 10.935058771035553
Pb 5.999897465109281 2.622249504135014 10.248559629358292
Pb 9.346827295230163 6.833034189097562 6.521431568978806
Pb 6.93226299346026 1.225806444129038 7.526318640795235
Pb 8.160785255246767 8.520588401372873 9.209080154832817
Pb 4.8947662455649015 8.0230894383571 10.369608379446042
Pb 10.871892717339263 9.976187208974347 6.001843179154383
Pb 11.487243997751456 7.430007539831828 3.9708463545011354
Pb 3.6995767789849627 4.936432723385766 9.945329038245683
Pb 9.18044282172759 11.590323765638104 8.389563873271335
Pb 5.980149456457271 4.644652661678518 7.590354199007083
Pb 3.6324838486083713 2.0993524892335786 8.006691724969093
Pb 8.368216973193732 3.6520220527807767 5.394924746592644
Pb 8.50867346896569 12.141085280119599 5.144165318250608
Pb 5.270906453278985 2.3535094429412515 5.068005124173719
Pb 3.9344821179668217 10.07228556232719 8.094865257297807
Pb 7.026642085953588 9.231024483175691 5.648632643048802
Pb 5.409000371397396 12.06942418978038 6.082649745162367
Pb 5.366789729514555 5.974019402625525 4.674472631600915
Pb 3.5824037221219633 7.027894165033533 7.197249423266724
Pb 1.315658051181494 4.602855001106174 7.669525893491632
Pb 8.633388976557688 6.178736585650018 3.3310178725528687
Pb 8.971207407705519 9.672167483498301 2.8991591611306538
Pb 3.89640949998494 9.542584077383978 4.510170808906165
Pb 1.9446221458263326 2.6185228490042296 5.2396751175687974
Pb 3.636366930801157 3.9041973726969266 2.844731988179577
Pb 6.137708563740336 11.424190770213817 3.0150798118736897
Pb 1.967912112269079 5.810961219149579 4.738784671648998
Pb 6.114009512710443 8.285056689163484 2.416497318933126
