39
Energy = -128.94136981 eV
Pb 6.310825333879122 2.971309433613925 9.636842522203127
Pb 3.8802191032159135 3.1325588504537283 6.326732232930662
Pb 7.486783985609426 4.176469347647221 6.6295866865713124
Pb 10.661076669780575 3.274699300075154 6.4503517658699465
Pb 5.221831809943757 4.005484640061793 3.464622499005037
Pb 9.529549023267561 3.7307607564075576 9.423283024316877
Pb 9.677742847773231 5.450727499338661 4.3295867417101945
Pb 2.0543310628585845 4.446513583492906 3.9281239354017097
Pb 13.483723397312392 4.833047209852537 7.009059628321646
Pb 8.018018861474907 4.240977869855167 12.140826719950317
Pb 3.750773567420496 5.874222896274711 9.03053695557507
Pb 1.3711617252422228 5.318338061615566 6.92338265653014
Pb 5.023202922566795 5.160370739516729 11.798870799517275
Pb 12.973881725123688 5.961158958271158 9.946853188479748
Pb 7.170477286368427 6.1767303816195245 9.159329349215461
Pb 7.21773297475247 6.6020088788504445 2.639560410825558
Pb 4.526159488351312 6.245428274783218 5.741095549262629
Pb 10.861061552604609 6.775566216259975 7.411742681492583
Pb 13.043554697039058 7.424362595355326 4.8975361388097784
Pb 10.308373348696358 8.51895367688984 3.757522895955206
Pb 7.6600775911579575 7.7376708421583915 5.76117596821818
Pb 11.787142993321662 10.009804843420959 6.625173733185511
Pb 3.8109771094700724 6.791648813739955 2.479169446500282
Pb 1.7424845855172935 7.750650721298269 4.857934716768505
Pb 11.96174600277981 9.159752995877431 9.819725982505547
Pb 14.184401564969388 7.981383064887832 7.806749968638806
Pb 7.045543220995354 7.719774875483991 12.062378632104787
Pb 10.016979240672034 6.642792998419544 10.96273840277887
Pb 1.8078142139063569 8.698678799732429 8.617918069399574
Pb 7.52422775420095 9.846439806568547 2.8904227091948544
Pb 5.086132853052067 8.837615020441685 8.094946602834188
Pb 3.8260169564421203 8.619104329963067 11.222484831088469
Pb 8.798418415494421 9.267516890165863 8.555075688481285
Pb 4.926590942148963 9.358593986775936 4.516646235339313
Pb 8.617951956236723 10.954172692656009 5.65721367800081
Pb 6.295932495662951 10.681542090772236 10.615027768988524
Pb 3.352804222774607 11.524855029904815 9.617157516432963
Pb 2.9322204318118303 10.85096078977623 6.501513571823665
Pb 5.948857433490636 11.866309380579985 7.572056060351585
