38
Energy = -124.42216383 eV
Pb 4.729410703086424 12.522832918910368 5.0689049062135245
Pb 6.52000999025616 10.063715713895366 13.121862485942922
Pb 7.02859259058209 11.938959105527564 10.1855611328349
Pb 4.273012286937593 10.397946564264688 2.7656192250753766
Pb 4.115961586819523 10.379837504455937 11.080077348775703
Pb 7.4395718709124905 12.408236314646969 6.806470036611109
Pb 4.491833664243526 11.353257870696657 8.052292287629951
Pb 7.332989539874574 10.999845969082992 3.7357496038124816
Pb 3.5580276736620586 9.25293665566813 5.624063428548238
Pb 9.586400345836077 10.868280506359648 12.252699749882913
Pb 10.318423752968172 12.0882843303718 9.198809811145557
Pb 8.756873852705858 7.771925981986166 13.230368944610108
Pb 4.817844555277377 7.330325724945427 12.18036086026451
Pb 10.046895757515145 10.646279694614657 5.710886486305629
Pb 7.060995639322509 8.437887204452108 10.184769571113092
Pb 5.884006261154875 7.779541831072995 3.6603161903800325
Pb 6.977117028602908 9.069790840325616 6.5853082452393386
Pb 3.7610473256678163 8.060965771991775 8.837062669346713
Pb 12.604129789474603 11.557166467502784 11.395287287017696
Pb 10.061147704154182 8.996260326156742 8.637337878187244
Pb 4.630276153183875 6.035876470303901 6.249831769122543
Pb 9.074358805311304 8.13890009738351 3.6824350740867318
Pb 14.575166372991527 9.225690287811606 10.963731747063628
Pb 7.431273407272753 5.152396013676022 11.766918531533845
Pb 11.885472902486232 8.403485230002488 12.501177609188359
Pb 12.988692623295739 10.4696460219825 8.304051258439642
Pb 8.116834451208993 5.949859931028114 6.810449419423634
Pb 5.231558531668988 5.224105028172919 9.486128737833834
Pb 6.915719886934742 4.454775271858834 4.075836570666939
Pb 10.117063346744674 6.344856021444488 10.522662380819655
Pb 11.424759186771412 7.660891473095691 5.885916969131174
Pb 5.960596606041536 3.0317533414234745 6.9621203904631805
Pb 8.367782804612725 3.4196593084950773 9.101986259168953
Pb 12.844192640465245 7.337365846965858 9.136451486187866
Pb 10.125919907034746 5.035143464556222 4.32816680239112
Pb 10.982990221530784 4.515072323846814 7.459551824488109
Pb 6.789476878719775 1.3063977429620586 4.437786098316976
Pb 9.132789245211795 2.329064718602352 5.970204813276987
