38
Energy = -124.0171486 eV
Pb 4.312295986287043 10.153987106902811 12.4404519212064
Pb 7.294525357923682 11.471063508406631 12.38768771986759
Pb 5.51927627699565 9.54482762847311 9.641965501235553
Pb 6.839293727571781 12.685280613238826 9.371389997769757
Pb 4.803065111917219 12.016320594657165 6.846330309200469
Pb 6.551974320043175 8.805440480211933 14.261818293877766
Pb 10.5503229161523 12.151102326179076 11.766516475600048
Pb 4.886163171818376 7.0210614871213295 12.01052757048835
Pb 5.6805356068513895 13.18334666653661 3.8972413276614253
Pb 7.758437468979358 13.227733303894883 6.307753166086596
Pb 3.8149695349510813 8.876890961037427 6.936784784179556
Pb 9.090891518472521 10.080130241452864 9.732668657237474
Pb 9.510878315950569 9.191923059383932 13.171864883746723
Pb 9.99297512750575 13.315708293909225 8.686978872048233
Pb 4.424358328703679 6.229317917451682 8.789904296752045
Pb 7.345816668214815 9.47737791924015 6.553885762975106
Pb 5.0054220790947745 10.121555434129416 4.102273345353048
Pb 7.998509933400796 6.2187222850017 12.867888665302486
Pb 6.1944311383531865 4.277408044082975 10.92637468867631
Pb 7.580565129185153 7.001071291920094 9.734366341252365
Pb 12.329609812254969 11.162222050847204 9.027466924027888
Pb 12.41163728668604 9.416469696157955 11.815516420508093
Pb 10.974740710663562 6.483417839866582 11.141398480369215
Pb 8.214413980654635 11.126484740954918 3.659491414983732
Pb 10.259645793352853 7.183429478777378 7.706207579144395
Pb 10.650846471657573 11.452669223946664 5.931639215567601
Pb 5.569403147220843 6.356631364486579 5.651656538893193
Pb 9.44272572389851 3.853651309481764 9.922308500666842
Pb 7.2408408544173835 8.025229934119054 3.3914538896863675
Pb 10.381110716998284 8.38360386066376 4.36463278806973
Pb 12.793091521365215 9.026484845335856 6.31831104761811
Pb 7.0029226790413475 4.273081712115969 7.664168329971672
Pb 13.290880839796998 7.88767039008386 9.18165292590446
Pb 11.998520556092817 5.634225402380323 5.444512467434445
Pb 8.69375913930566 5.437597535249581 4.778898389572207
Pb 12.49117311992353 4.722669238557275 8.47459834443035
Pb 11.48889948258047 1.7503527405746704 8.884227414760028
Pb 10.033485602503736 3.196254629955819 6.62960190466057
