38
Energy = -125.80107914 eV
Pb 7.724924100247604 3.5809294032084003 12.600101129719096
Pb 4.819895872324614 4.650066702121432 11.70800157669534
Pb 6.150252388815302 2.1315454126561355 10.08442236654342
Pb 4.823545538594026 7.420492455206841 9.864102856821635
Pb 7.174443118667669 6.881455255435522 12.387762610577054
Pb 9.435194357215446 2.603985716636796 9.73692823232184
Pb 1.9686561092936303 7.353984649301768 7.858270771955416
Pb 9.975395382400272 8.701907939832138 11.006837883518724
Pb 7.263673676764452 10.41628127501495 10.922635429211931
Pb 4.474635121115929 4.591988110043787 8.036565176257996
Pb 10.120008973063447 5.462212048662097 11.51296723066096
Pb 7.34881731692995 5.09261553545665 9.578755474993995
Pb 2.9664874348105155 10.342138835298263 7.1893088101038725
Pb 7.218222526664261 2.3955448470733054 6.874551140978439
Pb 6.114183557877423 11.093507917435952 7.925199114108519
Pb 4.847583566717868 7.684878420897392 6.356822901448353
Pb 7.63632883460946 8.213940938935597 8.529254421319763
Pb 1.8108054236455313 8.55772002002975 4.751260747264432
Pb 8.638392540947526 13.217088979178424 9.405096301420473
Pb 2.565344687833858 5.437674683602674 5.306242471866942
Pb 10.349723773569709 3.3771202655843457 6.570768028052678
Pb 7.849255730599229 13.061216271875537 6.121216371404235
Pb 7.877520605078024 5.6722908631632745 6.116802720721999
Pb 11.905314954057642 12.151906832630766 9.735344489973214
Pb 9.722545613928354 10.698551331589135 7.877866916511439
Pb 10.409872408535357 6.3560609191675965 8.296524778052602
Pb 4.5169259817246115 10.256406924363523 4.299412283640117
Pb 8.544382416895292 3.083839348410089 3.899565409137698
Pb 10.946939660337117 13.83633662587277 7.107745956383977
Pb 5.433227934486146 4.0470342497309035 4.390309332092692
Pb 12.442755568417846 9.006729244070314 8.836841393035442
Pb 4.364029001496975 7.245609009309316 3.1201199065198786
Pb 7.685445695328309 9.626880188763769 5.358939690209789
Pb 10.544850651123799 5.56366277708104 4.1512749803901166
Pb 10.37070596456818 11.69375932764499 4.608279748425602
Pb 12.92662164864137 11.294459969762245 6.635543092479101
Pb 7.641833498785794 6.073023932391224 2.938365016690768
Pb 10.993762027865031 8.61338253555423 5.718023318334957
