31
Energy = -99.76376904 eV
Pb 6.3846236922642765 6.873397215397744 8.762258572382951
Pb 9.244503908829229 11.794347098696708 12.949679404380975
Pb 6.982773708512628 4.64220461417118 5.0301599277499935
Pb 5.426739225064273 10.70249230052335 8.071938988935429
Pb 11.680388734938953 9.718659969893384 8.235000466640667
Pb 9.006405039249666 5.587095451542323 10.438500111639922
Pb 6.399217463388718 7.13912161753541 12.013705286334961
Pb 10.085419571885245 12.040582297169871 6.492722076340639
Pb 8.424352528252864 9.685667476920122 7.993703701430618
Pb 6.006598359574692 3.933647584070348 11.040576958955999
Pb 11.686370135729586 7.1003669898122865 5.16091141687616
Pb 9.710485689275503 8.86026492562865 11.023068253932584
Pb 6.868155389684677 10.474247320282398 11.036894611990895
Pb 11.343440383137333 8.370572173821383 2.1008470008091575
Pb 9.127151981467328 6.376938887824905 3.112974532070739
Pb 11.208230989331716 9.598561234933417 13.724703174268411
Pb 7.756701240716838 3.7363651081025258 7.995298343774803
Pb 12.289535522637165 10.188843349728776 4.74170315220971
Pb 6.182993769313742 7.791773219480011 5.239299853635495
Pb 12.441009301070949 12.809830531113477 8.629677444700505
Pb 9.334168252135612 9.424839858335819 4.196286005847729
Pb 3.567213706256249 5.762413737258595 10.51629707678709
Pb 3.3998268350849834 7.533570727179762 7.53970450149567
Pb 9.454940492510506 12.569974367634494 9.803073547069346
Pb 3.9046156483706125 5.73058994584568 4.9579976011535845
Pb 4.043688552554487 8.906297137131645 10.46378666293936
Pb 8.946796426327735 6.740257170270251 6.653236892933551
Pb 4.502669775959871 4.183157808921367 7.751474697896548
Pb 12.104121755781406 11.252152992811144 11.25827748787043
Pb 8.636819144421537 2.5271121823378437 10.803694471886866
Pb 6.751397077361681 10.846009006713786 5.163902076147686
