35
Energy = -115.3159269 eV
Pb 7.496674920681939 4.010474847005345 1.531844435060968
Pb 9.36582358696287 6.812928401750137 1.7184151215573382
Pb 10.408212414909693 4.048685337002052 3.0092189410973225
Pb 6.124103476999313 6.873901702533826 1.7496493897313135
Pb 10.773430526934966 8.471057830973743 4.2236834735427395
Pb 7.6858206186847395 9.356302295840445 3.4888202492234104
Pb 7.7460826943233485 2.3274365833484283 4.213200144817505
Pb 5.144424539951001 4.331639077181863 3.7729075302808415
Pb 8.169071884245735 5.71925952450857 4.734689862555337
Pb 10.205489423792216 3.2484175931398305 6.06467056836079
Pb 4.648282418970688 7.837229042434192 4.395279660797751
Pb 8.795966692541285 8.295485435880789 7.055456633066139
Pb 11.998107241135266 9.521300110273756 7.009552973255756
Pb 9.452789653354865 11.206792370166657 5.7108862049960125
Pb 6.349899881871647 3.84510379014998 7.061477765625627
Pb 11.603879135249421 6.2214243776717915 6.383056975486749
Pb 5.700452287083775 10.661011783408773 5.720934568377656
Pb 9.348681586017209 5.111547939890413 8.511255961254614
Pb 7.29373398524573 12.054196126482962 8.160967993959753
Pb 3.2644191641304 5.494595831163468 6.289519371752064
Pb 11.066744891889247 7.658373345937484 9.562998508147569
Pb 9.967584130199857 10.747779899953251 9.208725576768622
Pb 7.135793330861614 8.213444407654583 10.450834853715207
Pb 2.889213793379513 8.961597094018204 6.7543118020159545
Pb 5.623189228443825 7.2081693463022845 7.686210089450227
Pb 3.8430958222453353 4.790479435411833 9.368786735416768
Pb 6.8813066503738565 4.632114316607563 10.387703690875739
Pb 4.640170345709258 10.591374139636105 9.046702941939602
Pb 8.29357006289577 6.24872018179108 12.901578732363198
Pb 7.062019900608575 11.321885984202892 11.46062772787008
Pb 3.0172852527706038 7.786505292467407 9.824933721974375
Pb 9.656750686840565 9.221892805782073 12.241547844798587
Pb 4.2679406040545675 9.710959825586379 12.232765500599351
Pb 5.039387073144974 6.5113871832667325 12.498548335130097
Pb 6.87115230400701 8.890714815952789 13.877022065457204
