30
Energy = -98.39566155 eV
Pb 8.613991967207795 6.901967157174713 3.545022518031269
Pb 4.315554163522834 9.721225932840685 4.395319053503238
Pb 11.6621537883993 7.770505509976068 3.663005602370616
Pb 10.708799615715852 5.182694383816565 5.524128509990149
Pb 6.238031019540201 7.506843362002936 5.663107775444058
Pb 7.3663589643761 4.41916372160067 5.364780996873199
Pb 1.829330987031816 9.44617604760409 6.41130066039592
Pb 9.620500705837934 10.2693762444598 3.795802428075409
Pb 4.027628200856137 11.636418842437857 7.04104927470197
Pb 6.517223505251976 9.956157134670768 7.6593099339425725
Pb 3.0931664610311813 6.868876452194223 5.013034122920821
Pb 9.616840753625402 8.314511808453751 6.50122271991885
Pb 9.750067463621184 11.665957552930289 6.725218956063648
Pb 11.334142714095206 6.042528144658314 9.017515382556503
Pb 13.004730897674726 7.432765935130166 6.620730736943662
Pb 9.180770312831982 3.6235849192043545 8.236617332435621
Pb 12.416675761550328 10.402664941868343 5.439874892046114
Pb 2.114475768731484 6.845012839605293 8.201488758068727
Pb 6.2960906277630455 2.4543139471808124 7.598629367463516
Pb 4.757408432603528 5.24009183020047 7.442633378310379
Pb 3.419105822990348 9.56990075779659 9.382194407887331
Pb 11.721415081075456 9.793712324327013 8.6486751737876
Pb 7.627046018509695 6.7764602157214116 9.004000778441062
Pb 8.851401510818746 10.894581477159404 9.70119982643453
Pb 9.536130537627903 4.832074851982277 11.327350764987402
Pb 4.480813136776568 6.587648443712008 10.585449538414577
Pb 6.505057571152263 3.832854783785795 10.465472955364193
Pb 6.392894758153261 9.255076604905627 11.076698837856375
Pb 9.750745600811861 8.14588538798224 11.340067095816943
Pb 7.188536856524496 6.54805745032538 12.546187226662136
