39
Energy = -129.05797606 eV
Pb 5.161018004945047 9.820689154247603 6.1326285127625555
Pb 7.30967237198855 10.705995508202957 8.58354980888869
Pb 6.748539352263678 10.327289799014979 2.7616474298673683
Pb 4.227830153447938 11.403909912583131 9.322719376836657
Pb 11.054177717460705 11.30721487291117 6.058396517082394
Pb 9.025164628919624 8.960103643414747 4.757217035742981
Pb 4.659898131708678 7.766573232189293 3.498186929102612
Pb 2.542472310674657 9.421367078635331 11.231955385566605
Pb 9.144461716240524 9.674590063617172 10.952392725324467
Pb 5.024676339613265 8.034101964652267 9.081075109071785
Pb 7.480424330016266 6.8159837683872055 2.1421882859145356
Pb 9.51551521012273 7.5795967957988735 8.086806675312904
Pb 7.815633745109909 7.544045301313176 13.252954817541857
Pb 12.380773278995214 8.047725619981847 5.787871262559028
Pb 5.842287586902502 9.906031826492743 11.815106807605785
Pb 12.792301792892038 6.474557996031895 8.536494177723347
Pb 11.957326535293118 9.560846441247987 8.813395281285892
Pb 2.1215903901925905 9.278678927351862 8.052215658237268
Pb 11.00756841055808 7.106301312534447 11.197641528040625
Pb 9.364900951653214 4.57541606223174 12.641223746732852
Pb 7.704449833090543 11.894893227921132 5.525736306334709
Pb 12.099901078400665 9.957600821557913 3.2411399890253665
Pb 10.321460048252924 4.399195357029276 9.3924380504208
Pb 7.472735892996426 6.24670017518705 10.362328616444197
Pb 4.198439629482511 7.002358704018382 12.582658509562071
Pb 10.949659582096247 4.940421662633551 6.035043749637529
Pb 6.741160729840408 6.739118128202118 6.030951149165196
Pb 6.272250522429059 4.54866801853586 13.133744873499063
Pb 9.74068484473425 12.055456354177318 3.1396482271216852
Pb 3.286037158755748 6.804033225232321 6.351596597739807
Pb 2.1757943586368533 6.459688103648437 9.723179904169434
Pb 10.855100871647451 6.640262048988745 3.0917188638744815
Pb 7.444935504666305 3.007681062784611 10.346816516275448
Pb 4.9015518123870265 4.309087289581209 7.4124542379191505
Pb 5.517510555839155 4.667943628601793 3.8527460262038047
Pb 7.962752849957182 3.739886868495206 6.8903218907052795
Pb 9.547037350706882 9.290249612745727 1.3781553113619063
Pb 4.348107857178394 4.198165908545324 10.634458198931702
Pb 8.722544348333074 4.245713840372186 3.7848019706309124
