36
Energy = -117.45748257 eV
Pb 8.242025638659252 9.082291632362496 5.7054775958799775
Pb 2.880141502895863 9.696982514687635 5.2346936251822545
Pb 14.380346498074772 7.008658068440744 6.802521079141069
Pb 6.734705288884983 8.868432128304976 13.360295184979815
Pb 6.635723609688808 11.15562753310503 10.822776862295955
Pb 3.909299151211109 7.180328973977471 6.891160857411954
Pb 9.452720879873697 6.3586720557995395 8.571017953188733
Pb 12.141577281914637 4.7778555550163695 6.969360111302468
Pb 11.402947514934633 3.887715911057834 9.891873200341102
Pb 5.782691081126412 6.0722906117183655 12.00871574547121
Pb 3.3077569636083224 6.660218196203383 9.992100721805446
Pb 10.527677884862044 11.36446677605905 6.967375843055927
Pb 8.407381471614121 12.76357787962882 4.678813351348517
Pb 13.150621727884086 6.441104188816712 9.601350803957015
Pb 11.661850991762826 10.791937468142 14.182932741206816
Pb 5.62646911982716 11.212818568635214 5.06538730640261
Pb 9.609244772818997 5.859565578003962 5.298742818294539
Pb 9.656978790864983 8.506071900434506 14.817847705114575
Pb 12.594891151373133 9.472076831508332 8.70619752743083
Pb 5.782594870285952 4.8063646609978345 8.90349337997142
Pb 7.258743401502311 11.974559379266129 7.698603125600383
Pb 11.802884017615215 8.385477432474934 11.981709984920451
Pb 9.006407189266378 6.924257980931419 12.07235757885724
Pb 9.838508576619676 7.928078806454468 2.8984856643387205
Pb 8.360734944264252 4.138484311851206 10.862809212855058
Pb 11.639744444982501 8.28909911002223 5.746960358585626
Pb 4.319704641615422 10.291686984213964 8.07574269872957
Pb 10.801782918435507 10.86594480777797 3.7471669957233327
Pb 11.492296626400439 11.542391121702067 11.07705074495367
Pb 6.283197363130779 8.071632514160674 9.2199521492208
Pb 4.065270256898822 9.382667059973071 11.464742800641387
Pb 7.731953832390552 10.373281228273381 2.5778369721004264
Pb 9.375901390376464 9.47178770826963 9.76846244512939
Pb 6.508548472519876 5.6371600947821845 5.8708092136625325
Pb 8.793963854148972 11.352044107665442 13.114794707668253
Pb 5.530578792120678 8.102257233736733 4.048247847685582
