35
Energy = -115.74521616 eV
Pb 12.066792331085981 8.496958149060294 8.972344940097562
Pb 13.531387522382895 5.7217465245835095 7.954104844262557
Pb 11.382122218547705 5.517753687609203 10.338370285657229
Pb 13.044307540972923 7.9413817064427 5.769482254811711
Pb 10.539693385199957 10.060985653236106 6.262718483527505
Pb 8.64247192670884 9.245439368136054 8.748206005417625
Pb 8.264727091617896 6.797577107013833 10.701815661776267
Pb 11.548506000311441 3.2000107507716575 7.940053620288246
Pb 10.184799254798317 6.4361729097004625 7.261756042090117
Pb 11.893965786247897 4.858893852249461 5.123003000443876
Pb 6.761668612865581 10.83452662433563 10.933527087465983
Pb 4.503690687123017 12.033264266391711 8.872864771027299
Pb 10.696914752279312 8.256018702852261 3.4631050623570045
Pb 8.653367168684673 3.597103202058389 9.610599633956223
Pb 8.488663863436175 10.804156486171546 3.6492474652643034
Pb 7.744520942469375 7.938562579328358 5.211755393825602
Pb 5.584244859102594 8.0192679280178 12.171832277577838
Pb 8.821142376669624 5.519823430289907 3.4294536889760328
Pb 6.860881419628878 10.865222044678944 6.610830063573639
Pb 4.990246818922894 8.67681707323432 8.981639882486139
Pb 7.953632863445633 8.355650441973362 1.6506592248312828
Pb 3.6325211626044127 10.622408543289858 11.729928123299514
Pb 8.582194325171004 3.2592726705052937 6.267366722177574
Pb 3.4954508835067974 10.109884847227182 6.269590582313151
Pb 6.794144863201166 5.858276603061657 7.711032637607093
Pb 5.967171493102771 2.4769115233774945 8.089124264240581
Pb 5.616768816585775 4.740283728053584 10.509337467745429
Pb 1.809746947273121 10.28798432924074 9.188419435336039
Pb 2.5906605412311885 7.5598810006350226 10.952490953939913
Pb 5.460985842257812 9.537991692323653 3.5509236766594783
Pb 5.785258319435037 6.290505406524957 2.6588776306092634
Pb 1.9353196058423767 7.477620988237018 7.670004802147892
Pb 5.554304181430874 4.024547826424419 5.125348104620065
Pb 3.649989834833287 4.671854866001013 7.838373612281432
Pb 3.7048101275726966 6.7830777521062835 5.115573337581375
