38
Energy = -125.10477743 eV
Pb 12.15722894964794 9.068488708035021 6.359107425606363
Pb 13.300203332329142 11.418659351835537 8.361058845189515
Pb 12.857013746069534 8.485467921328896 9.606785956733106
Pb 12.464486415435534 5.937477792304903 7.458292224840446
Pb 12.255731532717338 5.409942357393314 10.748559417624595
Pb 11.000656521848807 12.576489958478938 6.381668336173048
Pb 11.287977886911154 5.81461660302611 4.454149933077742
Pb 9.025301688135926 9.789297641869483 5.306271387448597
Pb 9.53583265458484 3.755097486040839 9.730445181987944
Pb 10.05030474334503 10.473573243047843 8.780827822427202
Pb 10.398032247048354 3.442763499533038 6.54925659052027
Pb 11.912779319982446 11.038316753247859 11.522776902447948
Pb 11.27961773506934 13.592968587657706 9.554435131468171
Pb 8.672897721858526 7.208434530004689 3.3647327332931383
Pb 8.319508841465774 13.025011617976848 4.766634525414553
Pb 8.523430818269054 3.9889115181815806 4.045345175917627
Pb 11.220898305491044 7.884210857476171 12.744055167404419
Pb 8.431753081446105 14.030745760322784 8.01769091631888
Pb 9.947760000358354 4.783635938320092 12.940221202441986
Pb 5.890717658040359 10.659948328993561 4.686984266903287
Pb 9.05970533545731 6.606595346533335 6.738502255003428
Pb 5.6877430356709775 13.48361094236897 6.4783873568251495
Pb 6.194258236632711 6.152834474413582 5.081471886775816
Pb 9.242840745430078 6.953692711138741 10.22112189055411
Pb 8.740603000010507 12.543509267037248 11.26345491485208
Pb 6.745261625630686 9.753202430324196 7.690916575483968
Pb 9.311149975158441 10.454266775169396 13.784781360454195
Pb 7.191789867881453 3.789573230625793 7.037503163285276
Pb 8.101352134218319 7.105041741330334 13.859069842358318
Pb 7.022069517103878 4.730174690284099 11.540437630542362
Pb 6.254608700234616 9.615517031153118 14.098500494925396
Pb 3.6743440954592157 11.24442601985704 7.1147019594848855
Pb 4.067491213879119 8.10975933015124 6.652709002123654
Pb 6.084818413348071 6.592407905326146 8.699947933734213
Pb 5.750255324031307 12.419316374929949 9.62784693523829
Pb 5.139706318287218 7.360718784017003 12.145799223132432
Pb 7.352154589411829 9.57674751947176 11.04177676244049
Pb 4.077587811138408 9.354420109831599 9.77364480858614
