30
Energy = -98.33470269 eV
Pb 8.723797191266582 6.207485897530066 7.3089621100150035
Pb 9.49789503732476 5.346374019313353 11.22446778544411
Pb 5.509141249459726 5.6961616146040965 6.871526960767487
Pb 9.97296978961617 9.413804848266984 5.25847607714018
Pb 11.510766738791082 8.85895109811409 8.057938466479348
Pb 11.720198075794302 7.497121390393289 11.017326759185897
Pb 7.333204670024811 7.17426060088428 4.475581054746917
Pb 4.616412099114905 8.354996214476635 9.09750011427196
Pb 11.158546329887487 10.583861750814375 10.946122301469247
Pb 5.3797421968331145 12.267752660399841 5.278880650620881
Pb 7.259113937954882 2.8720933745227044 7.6305524620690175
Pb 7.112081447098177 10.228490447213122 3.6156076468882374
Pb 7.497175413814239 3.945243141414664 4.638500565306435
Pb 4.639060619540608 9.006570708370882 5.719340352676015
Pb 10.190541048772845 5.844111111083865 4.296663286965583
Pb 10.286467116102441 2.7630060046612654 9.253751297647138
Pb 8.62379312607514 12.607537330690418 5.180136558060557
Pb 10.24633202473755 3.2505284445674096 6.110422066443473
Pb 10.178899458318776 11.903543290708734 7.954517682628476
Pb 7.319727327629943 10.09872660769565 7.232700732808953
Pb 11.664598149110331 5.515656777433977 8.270705134266628
Pb 7.02210349418342 13.268397933624525 8.076713177345628
Pb 6.355926474075031 5.672765151887098 10.09076518440586
Pb 4.195902814254941 11.451835958487752 8.090781382263577
Pb 8.76338808694205 12.650250772075273 10.898825594700144
Pb 5.895627209711935 8.160543838083449 12.089256837127726
Pb 8.560451427615938 8.410562209923077 9.96147996712268
Pb 7.606703536937076 2.876044906232126 10.865795387944866
Pb 5.793667658784098 11.128264079670052 10.845016681742633
Pb 8.434532895126372 10.013824461754727 12.710452366343105
