32
Energy = -105.30849182 eV
Pb 5.859272137898849 6.777663674344623 8.02196457420254
Pb 10.706756064203216 4.953346663507321 11.957515905238484
Pb 4.916613977086074 8.889796990251854 5.669536489450745
Pb 6.956639323108013 10.536122463710278 3.886738154400415
Pb 5.578501692602712 12.07276775625776 6.394185891691122
Pb 8.275718063802326 6.635555194024354 13.316746167246793
Pb 7.885757967521061 9.932999337717602 7.514433604733761
Pb 10.057352833739087 9.937889856734543 4.41115278226117
Pb 4.797068691933467 9.80699682188766 8.80381021978784
Pb 8.302045035485369 13.180715849808964 8.678235523199458
Pb 13.795308115465863 12.440938947492587 9.786957354260629
Pb 9.881641694604307 3.2674674799674053 9.406527695807645
Pb 7.834144342167686 7.486492421836418 5.064391283184227
Pb 10.70017903348015 11.053324311875512 10.784239412481702
Pb 8.314304202768618 9.943585395693741 13.27511317776112
Pb 13.076716634293554 7.084639801873531 11.307060456726681
Pb 13.634034235970946 10.396234079491627 12.349122633293735
Pb 8.790978783261655 5.316864077938694 7.31868798474655
Pb 11.14272624951398 11.370783745104609 14.325633448304611
Pb 7.494951706268343 5.146825406791527 10.481152472415546
Pb 11.204697203762331 11.635226783267049 7.4281941674745
Pb 9.702166562265292 7.810592065617012 10.389397832624864
Pb 10.780654686418085 8.113389129260865 6.945720723272038
Pb 13.09628973984098 9.35872256293495 9.006308476019836
Pb 8.628966549472146 12.713675754289275 5.518374469686996
Pb 12.517333872434817 13.561157797142174 12.527110815920919
Pb 6.190727000859261 8.166514105608758 11.266114265531009
Pb 9.184271069759648 13.347983291703176 12.457498344707716
Pb 11.089827730006494 14.280722223729894 9.743767463599099
Pb 11.934930041211086 5.624992310527565 8.63979222548446
Pb 6.672458945043307 11.472292382226396 10.896194758257389
Pb 11.172547608604727 8.15538127983144 13.621988952660987
