36
Energy = -118.80494906 eV
Pb 10.550903371132186 3.4832524673090055 9.167660952595401
Pb 7.235243401879196 5.99490201054629 11.583209437515299
Pb 11.858859941408193 6.381998056662743 9.075313719619258
Pb 7.54663051850452 3.1080106083784025 10.08047410387716
Pb 12.015320519763236 4.441747105318865 6.227619446831208
Pb 9.898969663859445 8.106595719994502 11.159883635993262
Pb 13.231258497589932 7.707001025072412 6.403836151505518
Pb 8.590229141912872 3.1276355183868834 6.672334438800232
Pb 4.190688286823478 4.285118090404773 10.950923078084061
Pb 8.385617200767989 5.897607338034112 8.549199600279344
Pb 6.929205670435699 9.59805085700426 11.47495967871797
Pb 11.506445384643298 9.747084747977063 8.628015188410338
Pb 10.012910640485728 7.158831782010128 5.771230513064113
Pb 12.565146289683932 6.340418958549938 3.610374855946896
Pb 9.740534328679765 4.496972481975662 3.83321025885873
Pb 5.480595788276461 3.6161562085320442 7.63108172939207
Pb 9.690918442446266 11.430996391381392 10.855059680702116
Pb 4.360825721271856 7.363824409283728 12.191724189744226
Pb 8.234530499211303 9.384883439453265 8.540082160093924
Pb 4.839667538095244 6.873014383200815 8.842162088346445
Pb 1.7446140218356483 6.503390233934869 10.607255349427094
Pb 6.349396093676482 4.763231405435625 4.76722935912299
Pb 2.46596724686668 4.465984843685008 8.203234109511767
Pb 9.563676777543757 12.20489633901519 7.700195919474382
Pb 3.0219295140774984 9.386166813797205 9.95272955381041
Pb 11.598314128499101 9.435420167118718 4.123266737704443
Pb 6.75782096653842 8.02229449830574 5.982134647607939
Pb 6.877185495830596 12.18310290100273 9.47377845443475
Pb 9.818125443740348 7.381700339925546 2.317188898759972
Pb 3.8410224878188015 6.9918360530464145 4.982173933912851
Pb 4.086342454480936 9.76537034447893 6.8575509492933335
Pb 1.6136867726454263 7.561410833078974 7.575219201350435
Pb 6.679217328425985 11.658235095698632 6.174499917072147
Pb 6.471112618349864 7.378972958437469 2.7245147639716123
Pb 8.209397828107779 10.007269816741733 3.7978374270482798
Pb 4.818304077931858 9.883978263681772 3.749112139835533
