37
Energy = -121.64499717 eV
Pb 12.065595960045059 4.77687856505827 5.619070226395683
Pb 9.338812247397282 3.2963943780367706 5.816320561165915
Pb 10.661716896856845 4.217406662567426 8.629219286980446
Pb 12.674514360142915 6.7586465850311805 8.128842738593312
Pb 9.470104164063162 6.010265265009303 3.7897425794667887
Pb 7.251271344168828 3.69042372816768 8.643224935295882
Pb 9.644960662420914 6.733194465060938 11.142339660911937
Pb 11.84375424962451 8.043218339262152 5.085334962965002
Pb 6.509371996754967 4.680107986601033 5.093268364193504
Pb 8.950802406561818 6.461809091274395 7.001795616072476
Pb 13.873645385119076 9.626608748097937 7.242837804376725
Pb 12.396169819109332 12.056684059935137 8.524363869642526
Pb 12.413857469258108 9.22551316158077 10.30908031252983
Pb 7.273436665235666 4.624996777563975 11.947523992647223
Pb 6.2532659745292545 7.329783496202704 3.0501996390663755
Pb 4.300264339211218 4.6634066154879905 7.716988113393737
Pb 10.433220505448974 9.438730807468588 7.904282024901273
Pb 7.874535404954478 6.863542735686521 14.101755805436023
Pb 4.310410675296366 4.366588767188197 10.842147648906161
Pb 10.387918895847536 11.961697719504276 11.059983255440615
Pb 8.276559447115334 9.594128192401032 10.457894669824453
Pb 8.561559817982063 9.34875603648831 4.050576041497853
Pb 11.011577470287524 11.337804910882198 5.386272114897602
Pb 4.95638536145009 7.10305886183755 12.44698935848958
Pb 5.583637323753239 7.525868549772112 6.253441730506366
Pb 3.463397955483758 7.45196654685786 9.246457556152604
Pb 7.304673769017202 10.072860169925985 7.146188664956477
Pb 9.844559035523112 9.259835759461303 13.236044532122756
Pb 6.556026416802179 6.738660015030891 9.492343449282545
Pb 7.351338026628905 12.791708569928902 10.550131174661077
Pb 6.654813654017332 9.831848999532976 13.260662080398593
Pb 9.287177546236748 13.16352075475906 7.754068331508236
Pb 7.849794893013426 12.45386311042918 4.831266900899033
Pb 5.350038465491398 10.201319739005855 4.2321623885105035
Pb 3.9500266367413257 10.223713497731453 7.1691866663551265
Pb 5.207249946541322 10.29249603698567 10.278175322139003
Pb 5.979396440967643 12.898533923282548 7.675659248515909
