39
Energy = -127.80971263 eV
Pb 13.011138113571903 10.861743838672872 9.567033502364982
Pb 11.068730148692138 9.63496006410055 11.867803287570238
Pb 12.983090235730867 7.4963556896014785 9.996056472485165
Pb 10.19336764386788 12.340340664074972 10.267053501650325
Pb 14.888248681398794 6.127573368256931 7.809616192276163
Pb 6.117962226425353 13.28971578567772 11.81321913174012
Pb 8.37744441710756 11.37676682839458 12.89427623706736
Pb 13.545646416042311 8.887311989827804 7.0334447122582056
Pb 8.2830967257044 8.028515653387968 11.574182551775662
Pb 10.296961302087752 5.772473228152026 10.249033868212353
Pb 11.593733032623643 11.433285651195641 6.624304432359843
Pb 10.27589417188653 9.014826583034964 8.544925884865556
Pb 8.869932147263007 13.071701357239046 7.38405908474838
Pb 12.438476254604307 4.078966613407411 8.29688117363138
Pb 7.240494986004997 8.818323514798035 14.40171302451006
Pb 12.969277980219042 5.5694178754500445 5.341122691421954
Pb 10.049884295073388 5.978395797285969 6.854297124678102
Pb 5.05478716507085 10.459060194893494 12.70631275879629
Pb 6.415945303230918 14.374898719323879 8.879926327661785
Pb 5.0991159255306036 7.311629616701155 12.232624851347442
Pb 11.126207055456037 2.730260120903907 5.591903627742836
Pb 7.090372082576929 11.015969523827774 9.498729346661884
Pb 3.8977597988094774 12.463568356400634 9.373370451074782
Pb 10.495473754829689 5.072196955329383 3.454527863065475
Pb 6.994944094364827 5.223212470934414 10.38991056755723
Pb 11.132977578892827 8.447764860579323 4.87760428108464
Pb 6.537086792932623 7.390698518905439 7.879722705257972
Pb 8.532923805140886 10.502408907390762 5.3844900513605065
Pb 5.684244719720746 12.448444322381581 6.398035615921885
Pb 9.174513226919249 3.130239437758931 8.244586396316455
Pb 4.128370438295479 9.183338678585125 9.621883863848511
Pb 8.052589630388837 3.9084607459762575 5.235103869307233
Pb 8.02092927768667 7.2529225077891954 4.335117767524315
Pb 3.8019577708911108 5.9243292328842205 9.527932900029287
Pb 5.419390266577853 9.275711972752632 5.301650797519849
Pb 2.9364090778859366 10.751301236649397 6.77626582510048
Pb 5.836349587859368 3.978417380990509 7.728389708359613
Pb 5.217695402834175 5.793827986744584 5.153770914440726
Pb 3.1190719511957177 7.5531572351335825 6.861610121798698
