32
Energy = -105.36640068 eV
Pb 13.270926732038374 6.640310901441773 7.400108503480748
Pb 11.72337486464658 4.67245541729646 5.182091910361533
Pb 10.837511094042318 4.761405476243133 8.399625499520281
Pb 13.034803903299792 7.677397649727351 4.394604289142072
Pb 12.105600323431078 9.741447303823184 6.90967582768603
Pb 6.445941306633707 3.6747621926054994 8.943257867260217
Pb 7.310723596903186 5.741804527445411 11.532899051657976
Pb 11.090851791726811 7.8559838715829295 9.457347799166817
Pb 7.628959430091702 5.453714954219937 3.4034108082760106
Pb 10.01120985074651 7.397026774714656 5.9193858735983556
Pb 8.401182990007872 4.079448400921237 6.255042373548733
Pb 6.850842254357379 9.050303748875208 10.786695281475458
Pb 10.584567209218154 6.706130035369417 2.5609813158244603
Pb 8.10243472455213 6.665695991272366 8.598660721158616
Pb 10.852282094044295 9.90661762605886 3.64061771843746
Pb 4.348708282613298 4.281812448270703 11.59414706032764
Pb 8.864491802777952 10.047321868324444 8.298631822289881
Pb 7.921160625072617 8.690317760743103 2.6784298449081696
Pb 8.08376112010295 10.822568141038795 5.233431068911249
Pb 4.577032316780624 7.245630880125482 12.605412164046475
Pb 6.619175687009491 7.7649292949083115 5.761167440404385
Pb 3.2655438215235764 3.5827958016496937 8.656427863506106
Pb 4.714860203881479 6.825444276303736 8.974026940642295
Pb 4.883427517928682 4.819678837530831 5.9741904330400954
Pb 3.7292292429049336 9.745524402549574 10.781294305736193
Pb 4.958077942973968 7.161449155939993 2.8837096204775063
Pb 5.292126453364451 10.163630623175298 7.823399746281175
Pb 5.212247200758171 10.208818550818672 3.916396110927039
Pb 1.9815195182329488 6.484063794535219 10.54789220929214
Pb 1.7809455964665564 5.934167627297631 7.150893452015269
Pb 3.2658511517734974 8.160117554240246 5.414971522804269
Pb 2.0173841506358694 9.023749097853816 8.219497053421623
