34
Energy = -111.53698754 eV
Pb 12.99811171893848 8.493915287678817 6.797140924550163
Pb 11.369528183037552 8.169745015788406 10.315452678403853
Pb 10.950297500632182 10.731346931053087 5.338639632456453
Pb 10.96048710564044 10.822129673412219 8.504515123252537
Pb 11.900170259532107 5.5046250670910695 5.418420103514332
Pb 12.33528514407693 5.708591449863269 8.550187793556956
Pb 8.305635890241689 9.99720217701878 10.291313356170079
Pb 8.812131184091333 7.536176760481694 12.370104326190965
Pb 9.913029373404875 4.926190437828286 10.61117084948585
Pb 8.17742543542934 10.373174283602207 3.661431626898203
Pb 9.901419616954707 7.822699109052786 7.089706661016019
Pb 10.85962002330091 8.028659694093271 3.6553004857072016
Pb 7.981032445584475 10.985389767235073 7.0797250392280375
Pb 7.489719839807423 6.8567056874228385 9.257379893820389
Pb 5.248287744758379 10.007435108388131 8.992684517484701
Pb 5.5695915529118 7.984335089011521 11.805426068996315
Pb 9.468339302205042 4.202132346327064 7.2757949084805436
Pb 6.939934381394013 4.95279215487824 12.073614803561776
Pb 5.040479861951434 10.416223485030155 5.647384102762693
Pb 7.018570306687661 7.6596608114309905 5.319271234291802
Pb 7.979699538433881 7.468600616380207 2.0167281626257196
Pb 8.906092381108579 5.116983658588053 4.091843444313105
Pb 2.7254059184762007 7.99302161484977 10.212192394344395
Pb 6.766901312702135 3.5418471595208576 9.129182445860568
Pb 2.421168554976182 9.397054724831731 7.389069261955664
Pb 4.6127370268166725 6.691850462422168 7.486671298746196
Pb 5.284442442508987 9.067361579327889 2.688481307933533
Pb 3.9236713988272793 5.066204827477282 10.591762847292493
Pb 6.308731827453569 3.914600609669796 5.821772863971586
Pb 5.353643036983439 5.757362456990497 3.079273905858745
Pb 2.8514028471995614 7.808746300263846 4.600810663649256
Pb 1.5154702610931825 5.995690711425263 7.792673721182297
Pb 3.73772164185351 3.332054410207164 7.851567499870129
Pb 2.994188895457804 4.671307066476346 5.075227742560159
