37
Energy = -122.2719677 eV
Pb 9.05458926501848 3.3977858620952377 3.3523093761169047
Pb 5.626723474317409 3.8030756022230676 3.7721255719295965
Pb 10.77760296132366 6.0883113425013615 2.4973226609063968
Pb 7.205250099322583 1.3265871430709903 5.112561105782819
Pb 7.612453942477077 6.197020956623683 1.4347903067370202
Pb 10.23692819081639 2.0885759924461644 6.172869743113282
Pb 11.23573020633094 5.173535234504512 5.605475440341776
Pb 4.4515459366574115 6.1031400468394414 6.10077428759571
Pb 9.614550069472592 8.926404279575143 1.7340253341965153
Pb 7.826593674443058 4.531306087345536 6.350120580291827
Pb 11.079514131799522 8.52373412063085 4.828817823368306
Pb 6.49683322608772 9.348938365419977 2.0298723735048423
Pb 4.724068822970644 6.9033336110223225 3.006018365554351
Pb 7.789612093383806 1.8264454732426743 8.254062203223977
Pb 5.03416807785408 2.9285112570076386 6.999508511836844
Pb 10.305691526630364 4.335798444034999 8.785802545793219
Pb 7.990262630409195 7.313694825162822 4.41619812670005
Pb 11.018807219841886 7.474009175897035 8.063088955604242
Pb 5.502335200807838 9.408145790014656 5.3894062088925105
Pb 8.496166320770678 10.67650608376719 4.192384316426557
Pb 7.32641154886037 4.442118738219792 10.192881420172379
Pb 8.724524816236126 9.818381106808804 7.3011738535140225
Pb 6.857351658776555 7.291086301502945 8.011047374381612
Pb 9.601377624397077 6.728313737413694 11.005769310413799
Pb 4.491306130222116 6.0022156038432 9.704117734840393
Pb 10.508107434724488 9.880975642173306 10.588977691831195
Pb 3.820102400827617 8.915241821992481 8.490714333245915
Pb 5.643155941911846 11.74401900194527 8.153364087927944
Pb 8.71782386371351 12.400463615967144 9.298880898605868
Pb 6.940883083536412 9.632661032289201 10.498167534484086
Pb 6.4932148904323626 6.652357167146285 12.501169754342786
Pb 8.885654210412085 8.830243895190847 13.315539817518816
Pb 3.6793380624841507 8.219727991955857 11.91850380578148
Pb 8.80027345586327 11.887143654076201 12.53126999936494
Pb 3.7043620383399793 11.171477468701699 10.753965532890474
Pb 6.178511147780055 13.120930798117636 11.174789042531254
Pb 5.822476728823441 10.44597707449139 13.407610637426602
