30
Energy = -97.50856919 eV
Pb 8.537158118375626 6.88527996327991 1.460483596165484
Pb 5.647575045023027 10.486192236667165 3.6429572271320905
Pb 9.176502422021244 9.043691683182038 3.6903817399377874
Pb 8.07763697350847 4.37820886943372 3.5017336830605377
Pb 8.254796179533486 12.073862225623998 4.417056548094907
Pb 10.84240131828312 5.987658709449256 3.444631643887589
Pb 6.161325279273333 7.086540194324068 3.5835115839845106
Pb 11.32358443069569 7.551842830516145 6.264817304638493
Pb 3.5286575105921085 10.317771513570564 6.2699283120964076
Pb 5.664329609540928 12.5693424984053 6.356835427234474
Pb 7.998294380700581 6.377549739774252 6.092809173673294
Pb 7.0855469648248155 9.548735920895204 6.502922914668423
Pb 4.384711289953194 7.266147302490844 6.4939033730412845
Pb 10.73165832179408 10.791794369493266 6.078089551538544
Pb 10.322404039940373 4.313495900846086 6.029978098642021
Pb 5.300082190836003 4.608297005092055 7.792123737309024
Pb 3.5121344392049805 6.754241375841974 9.704441271504116
Pb 4.747568343499971 9.736523996761363 9.154509008731996
Pb 8.442789679556489 12.172324851644614 7.983940477257876
Pb 8.323157840519062 4.104207286542781 9.131838749344672
Pb 10.063729872862918 9.4165279858241 8.940448567457581
Pb 7.0639672950906505 7.207909036574692 9.245067277109744
Pb 10.745032745760563 6.295021190636535 9.351183913371209
Pb 5.455958205807599 4.716189665448821 11.117097940131508
Pb 7.484956128448024 10.454223586258639 10.67895350958166
Pb 5.690496952970362 7.86316673280617 12.146135929944691
Pb 9.226616286568467 7.874647688046578 12.077881738697016
Pb 10.069361915280124 4.739338545214049 12.073550983586898
Pb 7.668355098271998 2.7376115471148914 12.088450487811539
Pb 7.438031718458608 5.610476145436635 13.653156827560698
