32
Energy = -103.75706484 eV
Pb 10.319361336204862 6.511748511590209 3.1810725882758315
Pb 11.894216835447748 4.550026830379617 5.3353967312492285
Pb 7.176827478604615 6.8933775572424025 3.1696935055260904
Pb 8.805673870731686 5.615948864081624 5.963048937014864
Pb 11.828142157009589 7.801954979645597 5.640881702032973
Pb 5.698907793626503 9.60670916311775 3.8205867402551057
Pb 13.996787693135847 5.8504889914083975 7.181617215230202
Pb 6.228176956821179 7.613997651226202 6.256681354823966
Pb 11.03912728470314 5.609173470431669 8.425634911419358
Pb 8.844200611524547 9.386295006157031 4.369347867809417
Pb 7.634732758153827 6.479251834390465 9.884474022914183
Pb 12.719067997487004 8.374486067038651 8.574730288250628
Pb 9.16583634767961 5.441644927272228 12.670384161885107
Pb 10.314939049659179 11.447664668450374 6.667395986810074
Pb 5.490719536840563 8.90248261866486 9.222565262206407
Pb 6.428194018008486 4.104633620991189 11.621389157381245
Pb 9.251461320774762 8.57782387250937 7.931943063612304
Pb 6.628010882959434 10.864778285948526 6.590501291529996
Pb 6.376130326001204 5.689329289604124 14.380249259020589
Pb 10.178400372320683 8.177438906782532 11.418629613128017
Pb 11.518926576399657 11.523922317714149 9.684556765223839
Pb 4.74129598970996 6.754423058811162 11.751558000672947
Pb 8.224245054137342 13.842572128346198 6.601176466653693
Pb 7.106323144283708 9.335517864245046 11.7987096807802
Pb 5.340040762527417 8.660855059095994 14.284444594399497
Pb 8.556186582672058 8.116278204493737 14.44365736420626
Pb 10.957547950910618 14.4120959667262 8.267700095548225
Pb 8.269891021686048 12.034757573065328 9.470682287861534
Pb 12.412281638373917 12.023654972353988 12.509195597597696
Pb 9.42380452858336 11.213600976872392 12.85348864677508
Pb 10.182307866159048 14.135349305142242 11.423895992519958
Pb 8.08407975512895 15.283562954466852 9.440556345650888
