38
Energy = -124.15440252 eV
Pb 9.965169450636223 12.078613377301956 7.519406021414186
Pb 5.558059160490876 11.698090858308765 3.8000030481937914
Pb 8.655509038262569 10.99242095850373 4.487104894129913
Pb 11.00921549790298 9.146756157413348 6.126660637689027
Pb 6.680745537048372 12.507348387562931 6.700183994958029
Pb 9.86585275908367 10.665566231755694 10.910798746064815
Pb 6.499238563841924 8.790747027551308 2.750817378822365
Pb 5.158910661530565 9.247142447653241 6.025556943918206
Pb 3.3209318334413607 9.534613540384447 3.160031374076351
Pb 12.183966177636654 9.940284819309966 8.916249461460707
Pb 9.703363687178042 7.967095547620631 3.4307563988080827
Pb 4.822923153350106 11.336076511639298 9.229879755519567
Pb 7.617349842366227 9.723506118626151 8.583524621964996
Pb 12.332799611131055 6.531393161574968 4.704237507338946
Pb 6.7600092973790264 10.969647149771136 11.944607822552072
Pb 13.163751648800556 7.156329986001524 7.820509611021107
Pb 1.997427268052518 7.951149735504612 5.510145775124956
Pb 7.824464458505564 12.959234001426433 9.763315140452207
Pb 7.400409940939064 5.73470059569818 3.3152282877199126
Pb 4.2163406291147485 6.439784565178451 3.5830308010387766
Pb 9.228118990183502 6.019941833871067 6.239906242406362
Pb 11.882084797607954 2.03942236328336 8.84377641584248
Pb 2.710620871561451 8.879448822185896 8.550027981271002
Pb 6.505473968026794 3.935304048102203 5.731574740075052
Pb 12.382976103746273 4.970469130285573 10.078978150204518
Pb 6.144266418705784 6.598338721748225 7.926811404743862
Pb 9.862476277984445 7.217771211156501 9.351712326193857
Pb 8.204109502336918 8.120685682426128 12.42568763758693
Pb 3.506021949105217 4.999650830675081 6.511050060409916
Pb 0.9853188132325563 6.266511763764029 7.941995712799531
Pb 9.20898761248535 2.684533495304792 7.164772922673235
Pb 12.102363515804084 4.205910660212542 6.695771783637865
Pb 5.096609749602644 8.381029554065943 10.881887679389356
Pb 6.54291195394068 3.3637924603815246 8.859466616246486
Pb 10.217083164139611 5.723321401616244 12.23941069341632
Pb 3.5942393758112163 5.760118062464975 9.732428522920037
Pb 9.367379121455494 3.1788962408318215 10.462586913078962
Pb 6.886215863724139 5.448048804983152 11.243802240981635
