32
Energy = -105.11515061 eV
Pb 6.9322725127524345 4.212234829476667 11.43990735778632
Pb 10.295521998201194 4.089814482196724 11.54245171661343
Pb 9.031965393210214 3.315173158007225 8.836524542042916
Pb 8.739816301603904 6.143053324101639 13.431370864512642
Pb 11.514544832670017 7.079452638397114 11.874840741824931
Pb 4.473689596293411 5.956632860298365 9.857554601292133
Pb 6.239413046143956 4.393654080190961 7.699206135559404
Pb 11.413567380348006 5.8964965907117755 8.830287818160038
Pb 8.35716299479006 6.590251966673059 9.790549030186186
Pb 9.258993474196169 9.250179142206319 12.742634831079501
Pb 6.217101525308004 7.705691281862032 12.049019250250549
Pb 9.256685648722156 5.306848170054589 6.240604060437278
Pb 4.1559785769625215 7.108187978116866 6.820563415452944
Pb 4.526688516383153 9.144407060394702 9.466004492696914
Pb 13.342181516385978 11.171023091283878 8.925577204519257
Pb 12.515166834838112 10.43803406586809 11.935300244839715
Pb 10.543098992222445 9.29682638652601 9.331333516724442
Pb 10.896467930262695 8.16423211711559 6.09044129092467
Pb 10.402530248477698 12.477784613981589 10.734490456629084
Pb 7.591654332417557 10.525560696443854 10.399876309124261
Pb 11.916523779521192 14.084257009352017 8.42150715960748
Pb 6.360916678179317 5.784848687358325 4.768239542227384
Pb 13.4465462170867 13.486336392451475 11.048356767375633
Pb 3.9095831510413355 10.283677711752263 6.402226384702205
Pb 11.765232313440247 11.376763572915708 6.235829642135319
Pb 5.712348163623946 12.086889676098904 8.394793367409093
Pb 8.835589644140862 7.471987455077533 3.762270063020976
Pb 5.670284354343429 8.884064542893732 3.9555062164545953
Pb 8.959942222708834 12.121100642357058 7.536112148389736
Pb 7.2697004167177965 8.77417458258923 6.845209877395522
Pb 9.12162420690177 10.579635363980712 4.43265956506052
Pb 6.399873113963349 11.873391743124412 5.231417299423062
