30
Energy = -98.69300321 eV
Pb 9.950430859364126 8.22099065434678 4.1025490807220235
Pb 7.657650186086906 10.362904724934687 4.06631741765834
Pb 9.472067474795125 5.036866334275905 4.326466971397828
Pb 6.752922589648974 6.760133561951142 3.5129445058442275
Pb 9.66878594356921 12.44311614665281 5.818676168917706
Pb 6.337709335907269 12.313899649007489 6.102537623056232
Pb 6.6252833989768884 3.826697093875827 5.016279810589307
Pb 11.809357918751473 9.803963113462808 6.317381451032401
Pb 8.381267964464433 9.848897327632889 7.3411027146768255
Pb 11.27251652518261 6.596188740166032 6.72816260832809
Pb 5.032231528238261 9.238731772141522 5.833013305091465
Pb 4.351920810462007 5.932436247958844 5.661542001793111
Pb 9.060334849003493 3.9011155668934694 7.433574549543974
Pb 7.571207944396107 6.709547673185922 6.639669538261911
Pb 9.68375466246451 12.827130351955667 11.433097796911676
Pb 5.8316507129465105 4.3406623365817785 8.17809347925286
Pb 5.312449878932223 10.771872336449299 8.921299653546795
Pb 7.9031246718187855 12.94707553978957 8.798321454100481
Pb 4.521129851771354 7.411359871525977 8.642839878094733
Pb 11.008979745119118 11.610278358901677 8.80525914072162
Pb 11.21598859316116 5.268607543647048 9.668789625198254
Pb 8.673005242587044 7.652952983859336 10.019956815334226
Pb 12.13860643058847 8.47777620540754 9.468885040525626
Pb 5.886184108636596 5.765887745644491 11.205554610780275
Pb 7.337540064808669 10.882672206380565 11.921100819071146
Pb 5.10144604240733 8.807416916065472 11.554805564723292
Pb 10.571458156699594 9.862702081439622 12.00779936117512
Pb 11.119902070598627 6.82553421569246 12.497180832475497
Pb 8.801211812470832 4.8351994745082845 11.770188789750721
Pb 8.024170969652154 7.791673569174184 13.280899734935065
