34
Energy = -110.97090402 eV
Pb 10.999477881225786 12.6527628220158 5.496851138444468
Pb 8.684888961015135 12.619237345652996 7.573158320051506
Pb 3.1617546676413815 6.370269920785401 3.7311432946057046
Pb 6.142376803703777 10.245828902038314 6.588962393583549
Pb 13.348416021616224 10.482812075273232 6.019487131972417
Pb 12.813071586785412 9.274106944908219 9.039762413926262
Pb 9.339536069807469 8.133761610209117 10.178490663363736
Pb 11.565284604014073 10.530035912058219 3.249838344838741
Pb 6.159546011692539 4.439499523229978 9.328724503298911
Pb 8.531374438412294 10.61838385839736 4.407036947844973
Pb 9.891468902099296 5.601253994105066 6.826977762889656
Pb 10.1578599118175 7.557380372863958 4.159568224185659
Pb 0.9686608813038392 8.290384087591523 5.156738158665194
Pb 13.370045446750625 8.084596467862902 3.538923901386754
Pb 7.255715538957835 7.259406664714874 7.621026002113182
Pb 5.860791308609525 7.669217827479561 10.658332867670136
Pb 10.69808086229225 6.261694469699209 12.399277459696782
Pb 7.200282043816544 10.690512225451696 9.58977371821906
Pb 7.476410246609754 5.238189366359644 12.379127448206296
Pb 9.421162902179002 4.472004735295662 9.840505780230457
Pb 10.616539764128325 11.563087217173472 9.933825458031142
Pb 6.154006688760934 7.4881413058561845 4.563908143733328
Pb 4.866214547689125 4.923321310442962 6.213370143545541
Pb 12.195363941427123 6.098762159323732 9.361901712799359
Pb 10.119908199161404 9.553004051828134 7.060793867763434
Pb 12.635419356465386 7.212404083720779 6.392667146700879
Pb 3.0450436357689346 5.652730943421737 9.101492774022487
Pb 3.663271345191744 9.561965025388165 4.169263920204603
Pb 8.489030977235208 11.080008297626614 12.414300383672165
Pb 1.5566353527322745 5.409835881612974 6.327840427077485
Pb 4.332895065965538 5.108852797413916 11.842296298558802
Pb 8.216654714643198 8.139183258590727 13.50897928730586
Pb 11.215329677471493 9.456012079209108 12.541923583261513
Pb 3.6444184450492245 8.020153185660945 6.987701307869261
