38
Energy = -124.76734623 eV
Pb 5.87854275905092 4.75170115585873 11.307150553870436
Pb 3.0764181702035436 4.4871247688312526 6.016746315311836
Pb 2.497322764367688 6.692840934247386 8.205658186688753
Pb 8.463528517181976 4.936714015541162 13.29880124260079
Pb 6.370390610685417 7.333847941618447 13.106611254483814
Pb 8.691796894957145 3.6775182098422174 10.288367418298698
Pb 4.953580856096554 3.1222926123228376 3.7183149129680673
Pb 3.3100114927872073 5.935463100965038 2.8591193891265787
Pb 6.168031498381918 2.858666349736013 6.725357085899403
Pb 4.88206432970113 8.287502339462854 9.744098434891011
Pb 1.7269169569728922 7.402489263679427 5.183533289343564
Pb 5.6795814325939995 5.720489354628519 8.037138591800476
Pb 11.083520405132997 5.5827059849407155 11.442277968450197
Pb 9.654367530502501 8.043696759925421 13.028743753080553
Pb 8.192599217480687 6.873124138503128 10.304346908924305
Pb 3.1079247818549485 9.747867345373104 7.046431055570847
Pb 7.227085651913232 9.90289157281557 11.265223968999301
Pb 5.682889697166064 6.690944785522886 4.895264571678221
Pb 8.836153280049746 6.020780308871552 6.754404408115614
Pb 5.461399725273502 11.387991628974806 8.562892694411389
Pb 3.7587493223730446 9.353319539986302 3.5821876210725474
Pb 6.40813719867063 5.378939443956021 1.938881385015662
Pb 8.125345555342248 3.7071680668406763 4.190478734808398
Pb 7.065505563359677 9.35909531322074 6.737987482851882
Pb 12.408475861536825 8.67867877212909 10.538722299887766
Pb 9.372366787674228 2.973875242893544 7.158241361014572
Pb 11.971825225253944 6.211636175610972 8.207338563344754
Pb 10.13047415174661 11.040186104596781 11.085660290727303
Pb 10.094677403399261 8.92854613152029 8.276251782882817
Pb 5.022571839485356 11.82481073160104 5.370610288569843
Pb 8.804225323761969 6.865125785619417 3.5500394197367022
Pb 6.96754585948284 9.579328644750463 3.498363391750831
Pb 11.462191418898602 7.696561790347501 5.296188671786823
Pb 13.489603681689301 9.058882881039963 7.482205653837161
Pb 8.783752037720124 12.154630199669686 8.157123529388647
Pb 8.183920794368044 12.09759993680722 4.944620674720651
Pb 12.169470035048022 11.67050976295281 8.732970327066335
Pb 11.057622406938927 10.868424683877606 5.777818360638962
