35
Energy = -114.66103091 eV
Pb 12.577699453767696 8.970250692580299 8.730288845286033
Pb 10.325296294881598 11.128996313765397 9.445859901998684
Pb 11.16230675501344 8.688692782345852 11.805183880889903
Pb 12.25693019376853 6.025194320447691 9.791190184968793
Pb 10.205210032136781 9.2111639076607 6.617681491675928
Pb 10.641770741249605 5.729378664466531 6.775063667491189
Pb 8.922637364030178 12.341259773684694 6.728411646468554
Pb 10.325620104198283 11.066078288104386 3.9776400782236245
Pb 8.011887434743743 10.518554803845287 11.500644110436486
Pb 9.132812635228355 7.432708008638845 9.647957602243686
Pb 10.302890007305969 5.518121196531147 12.426718561762648
Pb 9.61150557410355 7.906865019830382 3.339488996284194
Pb 9.861028031856382 3.790321506477521 9.62361568418728
Pb 7.405308770801904 9.825164910661814 8.224719737317672
Pb 7.658921157261173 12.94446043844124 3.9261768342104757
Pb 8.128998818822376 7.660548326690487 13.120075312854528
Pb 5.679555139317998 11.155190581343644 5.717069177398127
Pb 7.288038259192754 10.162578784376885 2.6944456166395825
Pb 7.390199932750411 5.354975488269489 7.533696065325748
Pb 7.1688163998937044 8.046296644383437 5.3659591783771265
Pb 9.332496951704428 2.7353180114007736 6.632169852643531
Pb 7.112564309568257 5.117404101364848 11.225808140242886
Pb 8.25612559799414 4.876283935028967 4.241205944581733
Pb 5.72040375179619 8.269275090660143 11.034809789649755
Pb 6.735814905489525 7.153556698370227 2.0626440489860145
Pb 2.3794719292310638 9.453218599521374 6.8028173389336315
Pb 4.676177044609913 7.500522739012969 7.566970424901655
Pb 4.085159406786692 8.590621888877426 3.9833025624730904
Pb 6.738315026443702 2.5653682104664375 8.910362889909168
Pb 6.269740247189698 2.6600292776507346 5.79667622361348
Pb 3.992839639477206 5.707498589025147 10.460776415676092
Pb 4.877349367504463 5.3965406203341395 4.367999813442484
Pb 1.5770198264191704 6.902868380950526 8.623410689342167
Pb 1.9443140632217382 6.527414013623057 5.50646815115876
Pb 3.612055755651383 4.428468135393091 7.410244101410525
