37
Energy = -121.38302333 eV
Pb 9.390764827879078 9.533669333845491 1.721129212068237
Pb 11.486002681725669 9.915204597073366 4.404519150894029
Pb 11.923455729657821 6.4540668384512285 5.519493770146336
Pb 11.44070689789478 7.29912802158028 2.420878390098784
Pb 10.482400232521762 4.4412509135279805 3.258833745103148
Pb 11.734067128797424 5.89386976033423 8.784102744981675
Pb 11.573479975084338 9.090081325769617 7.646742706758377
Pb 10.149740543884178 3.8209320533781197 6.522827375837508
Pb 11.804188654634418 8.402059764468255 10.829312245079954
Pb 9.815292264315392 3.487684468638548 9.804643357588915
Pb 9.065597999395992 11.933473880914047 3.632529006771434
Pb 8.230289753304877 6.467372316896729 1.9469029992696514
Pb 9.643452831126124 11.695955111620213 6.823186371341765
Pb 8.024606993377892 8.705183126443513 4.686663215139475
Pb 10.306676830452503 5.797581005119137 12.086501087217881
Pb 7.554716850680118 4.840476925498858 4.818335360070438
Pb 8.849162806888485 6.846502140572217 7.331528998744691
Pb 10.05696895998446 10.96230864767575 9.946004448300194
Pb 9.44194842667146 9.028479118587406 12.94174226420147
Pb 7.885301446794168 6.437098725502577 14.189534477702919
Pb 7.082704091866345 4.1414192735037245 8.154344534333456
Pb 7.275195755704696 4.041675339175657 11.656413863400486
Pb 7.520675692928844 7.298543767349193 10.77104414771314
Pb 7.417832591590358 11.253045554151209 11.754776727140325
Pb 7.014859329945801 12.499343175507917 8.758758115249282
Pb 6.510590901211304 11.927220413598398 5.5333361094311
Pb 5.427365700705761 6.85609377235488 3.466490819476059
Pb 6.4987724578401895 9.333560283205742 7.992367170244705
Pb 4.949335543727308 6.400629474902586 6.6747698036017
Pb 4.705189495546285 5.5092278677121715 9.841139003714273
Pb 5.0042729463540825 5.858782977411125 13.09125157592829
Pb 5.846580095896899 8.983085738730203 13.370547344362722
Pb 4.4641202427874225 10.641117927983915 10.550757096049626
Pb 4.514606231785239 9.416064268147224 5.13915112236785
Pb 3.9860942459714037 11.670018531739325 7.5301099120115715
Pb 3.13326642924645 8.607892571578413 8.253724887234764
Pb 3.1440097905563293 7.864194365785792 11.499900219158642
