34
Energy = -110.84330195 eV
Pb 12.621814831994985 11.440896931438889 6.887627217596606
Pb 6.627968079125979 7.590975986463651 12.541063283387983
Pb 9.081803015808461 6.792894420445397 5.7952254538628045
Pb 9.759630929060881 13.151973626642423 8.577791047039488
Pb 11.011941728258863 7.679219714228434 9.640116004104796
Pb 6.409588475473935 10.729664248776245 7.981755765508016
Pb 12.869197841359451 12.432660450257444 9.95375389085202
Pb 11.43674571349677 15.280933108245893 10.2498897996174
Pb 11.303530372153713 4.2412313284973315 9.49458592519048
Pb 12.125510233873936 8.124741175689406 6.362557933142819
Pb 10.29460337203983 9.854507081498024 4.288459494081689
Pb 5.317834631780488 10.223834176687854 11.36477460570141
Pb 7.518512607344565 8.447837941064071 15.567634336166527
Pb 4.665647745560229 9.211973610593008 14.467267675855844
Pb 5.766556271854298 5.328198893731671 9.524740907115648
Pb 12.494633142725153 14.560166627180841 7.371783470652378
Pb 7.742840927564187 7.644826189140021 8.597147695059538
Pb 4.459172837225471 8.078488226008904 8.411501447737901
Pb 5.765556162910468 6.020076074270187 6.1533000137196066
Pb 13.50144344558442 6.04405507644081 8.239417393598869
Pb 8.581720095909064 10.018767004421033 11.081625628295555
Pb 11.367824192507747 4.707128846859269 6.283739285628226
Pb 10.157803519764515 12.822977342442465 11.857618247051903
Pb 8.3792317550539 4.157352046686723 7.729208636736402
Pb 6.924702216203529 11.276134617586923 13.930804787702527
Pb 4.884526634093099 9.15780597091852 5.480464604653445
Pb 7.28480633629979 8.103777855313595 3.6860341313526535
Pb 9.610703992564963 10.114629178272201 7.489241745673225
Pb 10.110255858325996 12.955334125738773 5.4144845027888024
Pb 8.72292891774148 5.442363473294134 10.860698798894003
Pb 9.852110467675498 7.712893872552408 13.336313435988064
Pb 9.948553457750831 10.728551016957706 14.462058581913695
Pb 11.866421100632792 9.84401847219338 11.941187844664338
Pb 7.3356268787560195 11.18046178510009 4.867335526250473
