39
Energy = -128.12399698 eV
Pb 8.28927679230366 12.059665383668664 11.619895001838307
Pb 11.648390960984578 12.09598889420108 10.063432143719478
Pb 8.581735268753613 12.744037848898524 8.559791957184647
Pb 5.336703954979566 12.579813915523749 10.181407885884228
Pb 7.001595467170065 9.964254128491326 8.985949366598359
Pb 5.154107478861571 12.089251012119234 6.98494212275659
Pb 10.833145162871835 11.022289911823387 13.18897377990119
Pb 10.785100866866523 11.082507745167813 6.925282967738532
Pb 7.623239865296723 10.672986663375543 5.654753187952343
Pb 13.410950714061306 9.69136732404309 11.72434936817219
Pb 3.2715438662470824 10.421994380135741 9.005065638037266
Pb 10.165120352940548 9.090743403534848 10.419578230590185
Pb 5.198328155688906 9.733756861960007 11.789372307784634
Pb 4.249728515070524 9.02574777747615 6.110553582577016
Pb 8.158483418727418 8.903972649928651 13.128990089447186
Pb 13.31340628799918 9.427086923147392 8.573467237700212
Pb 11.349706872052543 7.913680457052961 13.53102835152123
Pb 5.498734204876928 9.337992726287734 3.1684236416244653
Pb 12.44942755044432 8.867920561266219 5.38926660624833
Pb 6.0221163686651975 6.5043094201493705 11.580593508993228
Pb 8.569990197704984 9.798031361539461 2.7395202820695057
Pb 3.015540894610801 7.580734932199827 10.427223758943743
Pb 5.706539066347061 6.790169850596814 8.271833229903349
Pb 12.591264286546961 6.651492379074769 10.679820806472524
Pb 12.943450104521697 6.2868822524039025 7.317707500085126
Pb 9.934882482407424 7.8304939169688925 7.11335951164319
Pb 10.339817914682179 7.24731331499718 3.448890471452729
Pb 7.410542460924774 7.3884829175397675 5.177522023746483
Pb 7.252377564847572 6.9518894240427915 1.8426928744814328
Pb 9.408209005034717 6.068699441854739 11.735491987765716
Pb 2.6443734512245314 6.286134970266298 7.389914323439489
Pb 3.7249412522545553 4.544764409465598 9.925868616660939
Pb 10.30064822315352 4.982787965308174 8.719118926017504
Pb 6.961697861581098 4.033673467008558 9.463604801181031
Pb 10.810125523308207 4.681741386304949 5.465714226984496
Pb 5.682564512466943 4.9629782579025195 4.147422457330402
Pb 8.654544504004603 4.369583465508678 3.1559164634509136
Pb 4.691670470330071 3.7679572799270957 7.030541046895221
Pb 7.940599969621918 3.471442889275508 6.28734158564359
