37
Energy = -122.50100214 eV
Pb 12.721637302029942 5.247801596298068 8.997838376761276
Pb 10.258721934493854 2.872334640974261 8.191946050248347
Pb 11.146289326870372 3.441312958804044 11.278425455471817
Pb 11.399516944397678 7.02760389170149 6.247065677830087
Pb 11.85118915405482 6.5564552098736035 11.884613420322545
Pb 11.129777973357283 8.203959309676017 2.783034048542649
Pb 11.86533055752592 8.454989372648381 9.214618316140278
Pb 9.481198608215859 5.842795388418405 9.38224753093534
Pb 9.048213193188987 4.9587705957680885 5.757514838500011
Pb 7.938857401532927 3.0366326638419125 10.71061888140013
Pb 11.153140768706143 10.193901437688519 5.59452123742876
Pb 8.62020944560469 5.98721212321722 2.3429152900946053
Pb 6.945734919336257 2.8337584352964336 7.353018423315579
Pb 8.975667282887816 5.392727464518889 12.765268788459103
Pb 9.763899790387413 11.218864968767203 2.804786818627848
Pb 8.460330661754572 8.989151717064106 0.9619302671800795
Pb 8.933567406110853 8.911937528861278 7.742197052607033
Pb 9.145819631965336 8.553733326235085 11.288628796671102
Pb 8.12650976379153 11.57925049918524 5.777792662240934
Pb 8.364354527292372 8.422796168018165 4.447497427113584
Pb 6.17527930109327 4.543854831680615 4.372987225627335
Pb 5.770588743201327 7.658311352260232 2.445947549433221
Pb 6.485636256327065 10.826268230096057 2.8491290386221184
Pb 5.929881109958186 9.373072967447232 9.365189403783791
Pb 6.4030445630662935 6.596052403971853 10.898476599873524
Pb 3.9526233209400163 3.857173463051947 6.695327260750829
Pb 4.858715287673094 3.895629798402246 9.72584139363627
Pb 6.424912898354769 6.2890793027237715 7.345386418959935
Pb 7.288369953218553 11.88824202045921 10.774380942479779
Pb 5.811765745592439 9.68471605291506 12.627792443090922
Pb 3.8402279470116976 6.714246400424156 5.186613365284282
Pb 5.538296753367033 12.311035694544595 8.087316795707148
Pb 5.544291066632408 9.413115132891619 5.8270890941837905
Pb 3.1677257945762687 8.746520857554971 11.147071441547252
Pb 3.4037950833286916 6.6861783381632 8.476288081581009
Pb 4.017405904195047 11.895744154882944 10.98404097573786
Pb 2.963179332809152 10.382964235535391 8.29247410698627
