33
Energy = -108.9424361 eV
Pb 11.348091366310033 4.135261763473926 4.340429661735499
Pb 12.754404963735269 6.743133423805493 5.442060423561893
Pb 11.730927603169498 4.521619817856926 7.637967482032372
Pb 9.08714271156018 2.854369714827273 6.3081396580170805
Pb 10.216071431087824 7.101955651605955 3.241399010351488
Pb 12.41540217182375 7.832820506687645 8.531224573207655
Pb 8.408447485127288 4.284764934099687 3.290955132661095
Pb 9.210978229435602 6.2148238002157274 6.139952762152671
Pb 7.620206209748481 4.633192733750638 8.670688571871368
Pb 9.99093639763728 6.130286643224026 10.228269155648384
Pb 11.078131803619238 9.631689440723399 5.887280063316964
Pb 10.916976265098473 9.119493144993772 11.20738683074162
Pb 6.100597413553493 4.410106140351904 5.632734061507115
Pb 7.977829879578108 9.81150424511946 4.156998292740331
Pb 11.77001680767917 11.02497604014415 8.710890536201266
Pb 9.080955061010851 8.850586702781975 8.55630180358586
Pb 6.365698866393239 8.27960441849492 6.476970317333184
Pb 8.890373081608145 11.838822261455771 7.104090917269161
Pb 6.436285787451303 6.924378195406149 3.337372599231344
Pb 4.368314683215197 4.747662058412269 8.328813812084311
Pb 9.073117952975556 11.59427518493083 10.430550983625919
Pb 5.037667272069665 4.917544945686964 11.509615127407155
Pb 7.450325393042633 6.854479292995357 12.503996312626287
Pb 5.943017489180365 7.582780273354564 9.74681594140429
Pb 5.753140860973882 11.669192649519754 5.808009631091282
Pb 3.6838643995519056 6.761338241589679 5.510386514783821
Pb 4.580324237120196 9.528519568317137 3.8653942507441292
Pb 6.064857079791023 11.676518626274802 9.059688554310663
Pb 6.545348321020779 9.974022409811724 12.032337751396124
Pb 3.4556729173190894 9.625225084955721 7.072997860508344
Pb 2.742622295186223 6.955087552441475 10.01527181570286
Pb 4.2616236245922705 7.757085641653805 12.808421948138532
Pb 3.6405561496654566 9.97733439262205 10.466579434226079
