39
Energy = -128.75111645 eV
Pb 8.781580079409123 12.448574134581193 4.217822971542793
Pb 13.449745134131849 9.007311247426529 5.633364734526874
Pb 10.792069351745877 9.860357916185304 4.026777279125313
Pb 11.068899232120899 12.139964771566728 6.57450477798258
Pb 12.976463611741863 5.781342127382959 5.201168058786396
Pb 6.024456438746691 9.394953245537462 3.3144901839654106
Pb 8.074191383664234 13.663662531124578 7.104564269631206
Pb 5.781285696931956 11.927575666918527 5.449273087179044
Pb 13.761366315878243 6.879533328410631 8.072060289914669
Pb 12.438264279489243 9.859357799960994 8.657048920482984
Pb 8.311586486557172 10.091323709449274 6.438518771701563
Pb 10.612760489996097 7.630902204412845 6.630862598600281
Pb 8.631718819797257 7.473574802209329 3.6688300747195086
Pb 9.914559752892437 4.734022155070069 4.6827291733864085
Pb 3.1602756212310252 8.203274666700437 4.108738134458851
Pb 9.397451746146665 11.570859766964727 9.270102590054236
Pb 11.367241457068241 4.586583031160624 7.862092400587153
Pb 5.511666066000264 6.079145480707369 3.6323696196746207
Pb 6.157905940278628 11.441548980165694 8.68695559880856
Pb 9.361417228805484 9.804801645740161 12.044010500062559
Pb 7.398043549824463 5.965615943088779 6.443179124029074
Pb 5.302334749102751 8.622656661710227 6.536599357434008
Pb 8.565705380480406 2.850643926314717 6.929378951530463
Pb 10.86972125072323 7.250951653056721 9.954265293650106
Pb 6.393054277931721 8.883689960739284 12.61263938748469
Pb 4.381780772027154 8.914322472042112 9.991354098089875
Pb 7.665082279259092 8.386513728663411 9.513727881194205
Pb 2.1270583321834127 7.6819694291708895 7.306891747261146
Pb 8.229613852783665 4.951983044345631 9.516569447178199
Pb 5.610830740993717 3.2314199910427033 5.1551897357201515
Pb 8.710812571155424 6.668698940617362 12.413182020918232
Pb 4.426480334301181 5.262640295091135 7.846078702187283
Pb 2.4689666451036896 5.1299075331485 5.0117314925945955
Pb 5.679814896500954 2.1923390014699207 8.335785784459205
Pb 5.6674674680725365 5.990893643574567 11.314282822699068
Pb 2.526356933975018 6.273762650656978 10.47817544788211
Pb 2.8714660472750673 2.30274122348461 6.790812563210119
Pb 1.041226178262571 4.620770512395488 8.002788321807968
Pb 3.1240495481327977 3.1207818399813374 10.031717991184607
