35
Energy = -114.74100917 eV
Pb 10.282321412841783 11.24799198216187 6.45293535316209
Pb 10.659629858495501 9.456955451203793 14.910785771020786
Pb 9.398010704241008 7.59795905978123 12.567757606792082
Pb 3.6776250821583534 11.51289619667787 10.868243079674404
Pb 10.404744340309126 7.559504714916797 6.6331965284603855
Pb 8.968704700623324 4.602092487583288 6.109945834750112
Pb 10.761027703013633 9.153503231931749 3.7440308671741374
Pb 14.273697210517046 6.590940853657331 8.07130138507307
Pb 7.823057722092668 10.821865488684436 4.078680396865751
Pb 13.015964434238574 9.635142284445267 7.639243782599913
Pb 5.472254646383362 8.785122084179948 4.7949934209567004
Pb 10.096031957724128 9.538449057410455 9.61171253975965
Pb 4.4158580284609465 9.282242870588462 8.331764446182808
Pb 6.722552227018568 12.55344799529854 12.020150524477344
Pb 12.146859562219321 4.725442355108128 6.465858937548936
Pb 7.663845934338991 13.085209113909679 6.273643359627895
Pb 10.194513444102526 11.702165844763572 12.56105534294059
Pb 7.689935628949305 10.076815545225672 14.11015561649946
Pb 8.716011408646247 6.453751279467132 9.397442603192763
Pb 6.758412760118576 9.4880583525304 10.817100788459287
Pb 12.61592199961411 11.563381265276329 10.246285249625583
Pb 12.0065749204932 6.839105865393881 10.271093760264554
Pb 9.12489161264949 12.651697746646398 9.358430784739445
Pb 5.471859921181417 6.5296853634538445 9.894422800430483
Pb 12.517837050036277 9.222418021169874 12.469935139056282
Pb 4.613122345750922 10.338066933246568 13.723149325891816
Pb 14.740191191837422 8.878322976694655 10.241722289273612
Pb 5.8352036405733125 12.404769351683496 8.720947930107249
Pb 3.411497700960129 8.358539753329351 11.50501358363872
Pb 7.449076575950831 9.762890037536591 7.178676866076572
Pb 6.404392679172423 6.423260120661469 6.7366775516236554
Pb 10.926120853865806 5.7726841234645 3.6523674087227738
Pb 5.996486155850801 7.32297905734044 13.220074804969563
Pb 8.077947294856592 7.162222443093998 3.868386357428995
Pb 13.367240919919707 7.434823181209928 4.993467027410534
