34
Energy = -110.27594796 eV
Pb 12.209732854100121 6.2622309334074995 11.431872074533926
Pb 8.69164053625898 11.34122089864584 4.638546439620829
Pb 5.820162101234396 4.000509551856626 10.14271912691278
Pb 13.43719725759131 8.977140547805181 6.989683854526414
Pb 6.284050961988533 7.3007046467799785 9.30347639691162
Pb 9.65777940513001 8.531380522054466 10.85590913633369
Pb 5.2643079610952785 5.944731756989415 3.984048602565857
Pb 12.694685164978669 9.332024962123926 10.157099856384614
Pb 8.242534762708589 9.615245748277369 7.669992097812096
Pb 7.461242089573741 8.32731995109923 3.948347463460042
Pb 2.5580381707910007 6.309515857784348 5.816463266975632
Pb 7.790695680918636 3.6444184124941033 13.03474150818001
Pb 7.759713068802085 13.376433639537842 6.997815925091119
Pb 5.779501965317854 11.519138961125057 8.456015409360997
Pb 5.165629949236842 8.366160019574467 6.160895908058217
Pb 6.787568390734576 10.044728390362074 11.02372618699812
Pb 12.489303310319825 11.315418885447373 4.616265174558127
Pb 10.738406687503677 13.866148063303909 5.7149359721233735
Pb 3.5543213532119466 6.096602883171312 11.316559239468914
Pb 14.124816180751681 6.662000627775191 9.055473962694881
Pb 8.90712088041069 5.182281981538334 10.289510474240727
Pb 10.680442815908755 8.529545443880256 5.2685938477192025
Pb 11.062856852414377 11.314283806783083 7.673402243783496
Pb 10.994696762342242 6.979868048028589 8.279992401902817
Pb 6.491435619521329 6.566350125970901 12.66543153111906
Pb 7.814826297172306 6.2781269140267835 6.440930354868851
Pb 4.718171814119358 3.8515508096447726 13.19489169727004
Pb 8.714393777127375 12.264407694397011 9.827202724407925
Pb 3.103869899243142 7.9676003518119565 8.644094931930992
Pb 10.482930295137942 13.059547819300413 2.6685453667120296
Pb 9.6353447635864 6.354735550462425 13.288430016086016
Pb 2.548052884496045 4.694644519146764 8.526135982898
Pb 5.116600359335231 4.524970683501705 6.74682128402678
Pb 10.592881023524175 9.920564397445917 2.421154660771095
