36
Energy = -117.72659482 eV
Pb 13.23314878860233 9.855488445622361 7.06565109481149
Pb 8.35340847351641 8.516157081340253 10.595777169672047
Pb 8.993550061259231 6.286203097358966 13.195687336652155
Pb 7.168031366146131 10.762649221145764 5.3987914390761675
Pb 11.805520832779985 7.505879040083006 9.718259948867034
Pb 11.980742594200038 10.931716175818115 12.519706525279089
Pb 4.063133369904131 9.603045248227257 5.717130721646057
Pb 9.97904977659764 10.08256213828258 7.8861086964268186
Pb 5.749522447876127 5.530719823032149 8.184777939818435
Pb 8.91665994104175 6.835525599272768 7.041959776625412
Pb 2.545496612547634 11.031061686425502 8.17722230190672
Pb 7.1346912753806455 11.979188553386651 8.41538362336313
Pb 11.57972064960238 4.782621543193874 11.533188759623728
Pb 12.206347946018468 7.615926739706252 13.31764382199038
Pb 14.371874107691053 9.412691483963116 11.143751587643967
Pb 12.415055451785161 11.871714749048646 9.469442921003806
Pb 4.462664904553901 13.190338362024436 9.506284698832397
Pb 12.927044056740023 11.196133581866041 4.2725423642749005
Pb 7.652669818616134 13.984875839730798 5.8958083499185685
Pb 6.419579768851299 8.667503854631752 7.797836468524907
Pb 10.346189938052886 12.360906908628301 5.368022241165371
Pb 14.982397690145621 7.547183125472175 8.43909760758378
Pb 5.279030433595893 6.840892480161635 11.038970525516968
Pb 9.292579304069282 11.649297299794029 10.87186089785991
Pb 9.441453428548051 9.450750549958086 13.721176637999937
Pb 3.370791224552359 7.915781879915077 8.499747501117225
Pb 14.547127023754554 6.222483083714637 11.498224084333575
Pb 8.284570866176292 5.291073390899746 10.179010655183165
Pb 4.562152025261217 12.760037526903103 6.305872011119025
Pb 13.766048418687792 4.557900062511996 8.894090426683157
Pb 10.663511053130383 4.441090777910118 8.202196446396943
Pb 10.014264089332173 13.695309277160172 8.238605288886646
Pb 6.463190203181387 8.683299187291203 13.287073181606006
Pb 10.729003995829318 8.992596454263852 4.960767254795949
Pb 5.0014555832906495 10.094301421513409 10.477824441373984
Pb 12.567514772051736 6.534016337464596 6.490965061284879
