33
Energy = -108.85822579 eV
Pb 11.607344309253552 8.585566906723695 11.692730627388006
Pb 11.719634781824192 9.691246025644766 8.621021114286972
Pb 9.069295389408907 10.3514707793834 10.350453397747907
Pb 9.41836691891689 11.92284522796024 7.480903716547732
Pb 12.67723156847056 6.382887468219 9.417947167759994
Pb 11.461816418105652 5.5046039059306135 12.343769255426556
Pb 10.120575573381128 10.055395955249635 4.707416928697505
Pb 8.578825833910583 7.446783726151264 12.801699709011132
Pb 11.762701751717312 7.535301637868826 6.293304489286428
Pb 8.708935911984458 8.674364380654659 7.195634173956774
Pb 6.348864372640784 11.0507453919383 8.603047756470191
Pb 9.430894209891212 6.689221434494654 9.759553334454319
Pb 5.8423896909041595 8.851783285966743 11.196365758008831
Pb 10.869510445396447 3.5820714615447176 9.823931104886958
Pb 7.100303734656248 11.201941858614939 5.292017681868826
Pb 8.602575425880184 4.146884955159285 12.083225117074537
Pb 3.9242450715062547 10.347080884234208 6.569055704545218
Pb 10.020428701069083 4.781035445530142 6.816629956623125
Pb 5.883121407197885 7.48741578919246 8.302316549499261
Pb 4.567946514622558 10.523441061851631 3.2641240292605835
Pb 9.346031298338454 6.736292999805384 4.212836053998929
Pb 7.440364957284379 8.980035674837067 2.466754630947914
Pb 5.915825555586074 5.606452641189622 11.119945012806074
Pb 5.683299850801752 7.83104974585733 4.971806475253782
Pb 6.972322613326544 4.503429400736658 5.643548139660175
Pb 7.577279375035898 3.748877147973405 8.865447603461057
Pb 3.2168315037246145 6.934545826697571 10.250494496784043
Pb 2.7025240263975405 7.34885343801257 7.196212485403778
Pb 2.2941337063654275 8.325462393862498 4.1711817403349825
Pb 4.396842301691358 4.643546584753834 7.962243201252159
Pb 6.7151337891903236 5.7019091907535255 2.5704225854820764
Pb 4.269184726033748 7.558957800338601 1.8360648046133368
Pb 3.7412251164828114 5.380648950751127 4.271416246957808
