34
Energy = -112.01107886 eV
Pb 8.210792470616546 14.347657128015413 7.74927852139168
Pb 5.158899646296683 8.079931167353744 4.156430166205718
Pb 10.534546428115416 9.709012331670257 11.948327368745879
Pb 10.20581049166835 9.053036751896343 5.0462199588088374
Pb 12.291222993109498 11.660895540659299 9.806740261165599
Pb 10.936799887156901 14.498074219610096 13.825951641032264
Pb 12.46601401596701 9.169324049725812 14.563631922330153
Pb 9.405714299625265 8.168714237561728 15.103945255864698
Pb 12.985966824833476 12.027605189951892 13.04491433939636
Pb 10.672057446518362 2.8049722610283214 6.491056486851526
Pb 7.5627394280290385 2.776246058293653 7.347617323151778
Pb 9.898985493603224 3.7072229248724655 9.440990098674204
Pb 8.277104933909236 6.704089049977893 12.484628747094709
Pb 11.392630220317665 6.646259384150225 12.935758673324752
Pb 9.656816891198337 15.76384883400786 11.123724806871762
Pb 8.498495402639792 3.6644152999637196 4.34778606853404
Pb 7.6189723339330495 10.086834479851166 3.2742755423002534
Pb 5.446132709119194 11.122492730135448 5.389697511065671
Pb 9.875333374017382 9.909078527263455 8.225756051807606
Pb 7.292465477307704 8.682197415825293 10.065628982373921
Pb 11.265689788648064 14.545858325234878 8.411106064302167
Pb 8.069362019502728 13.382741967767029 13.046236687584361
Pb 8.64616348573634 11.881837502464856 5.667517984646828
Pb 8.109817648860037 6.865757276856828 3.5148323106023276
Pb 7.215639979307809 5.485073692189647 9.20345240703484
Pb 6.1777418908289 5.355703879188966 5.940249400821362
Pb 7.556784603007235 10.042887930126419 13.159065645238188
Pb 7.279234032120339 8.605013869160988 6.489910235703177
Pb 9.325104207501013 12.643887143460002 10.27049937352034
Pb 10.151265653574418 11.490734290475151 14.894947559781079
Pb 9.465058532986987 5.756100129484063 6.694819056935759
Pb 10.296809322127839 6.9832948610891465 9.779316697556942
Pb 12.732062289779652 14.681179543965488 11.144502226184207
Pb 6.753433085257234 11.515969610159255 8.425567994540545
