36
Energy = -117.46470304 eV
Pb 8.913705838214698 13.828554202078955 11.618135830144803
Pb 5.321528748578428 11.97791975777304 6.534613175702877
Pb 7.079214518998746 13.138731234053397 9.029776332400404
Pb 7.383894021374373 11.113383999060378 11.809697524725351
Pb 3.5407391536454256 9.99842188415128 4.717911982887804
Pb 10.636532997650871 11.100956037327688 11.557938278012035
Pb 10.354258384677976 13.091370582425228 8.89376245890888
Pb 5.763679118833341 10.022591702433091 9.292527106575788
Pb 8.584238205637607 11.60688429617661 6.546368497206959
Pb 6.481096579102314 10.794745407807264 3.6754884080595636
Pb 8.766969703115715 8.859206724325531 9.395017864499048
Pb 3.832725297315746 7.53348618402867 10.440872369814867
Pb 5.390615816114394 8.979005056615634 12.823753533228192
Pb 2.3656293110963027 7.049437751559542 4.3691645741908935
Pb 3.5163681192243006 7.855848935261796 7.253678086236449
Pb 6.626196975717495 8.693611054823254 6.155758140533869
Pb 5.231668369953443 7.653345802721434 3.0851596572085076
Pb 8.675264773176655 8.20293316485542 12.880120220829602
Pb 10.239159970778925 8.800027646700142 5.8625452673661
Pb 6.267565853488727 6.2581792908474245 8.55558819558068
Pb 11.601048554493694 10.188446273381157 8.545435436256861
Pb 4.440918987332763 5.0863669827212314 5.720185657783768
Pb 6.197869178230285 5.960433310131987 12.082158838718854
Pb 8.423619370082502 8.162107186404706 3.241613166026324
Pb 9.234359389329239 5.701579024685968 10.854129600900222
Pb 10.848850627337672 5.660950983801888 4.092538459621563
Pb 11.54674464280652 7.973311465147745 10.976928937379583
Pb 6.981768715082448 3.4509315486673904 10.160132368861005
Pb 9.514993460671613 5.823285945499404 7.234023696558489
Pb 12.692614191048818 6.8725105756917175 6.5705103625057655
Pb 6.7196305686330655 3.3078258416196373 6.938742039487683
Pb 7.376813081926281 5.143875126871716 4.073028656818844
Pb 12.218000558929987 5.159786557926553 9.24876118669333
Pb 9.955024993529603 2.887222223227363 8.588203835587663
Pb 12.358527628689046 3.7199467659158083 6.307159777406216
Pb 9.500804590182423 2.9025299385521373 5.234029978692758
