37
Energy = -121.98561505 eV
Pb 6.148915617643186 7.968391009900288 13.678799684914859
Pb 8.56132135779082 10.288794366165755 12.548516780044556
Pb 5.127456769375828 9.65935203234467 10.965286658475458
Pb 9.309589763965404 7.348014480233809 13.860312575541826
Pb 4.243530209660635 6.326693619872181 11.24505033849603
Pb 7.185186450819501 4.992700561963176 12.804426632716936
Pb 3.683659907683027 8.183972685073956 8.38671059706559
Pb 10.9642243171488 8.505681182210877 11.191619704030046
Pb 7.798329365459467 7.576506442938182 10.870008839957546
Pb 9.828838684469991 11.120316344134459 9.30375297539345
Pb 3.0839932698613977 4.7517097023712696 8.617152927777488
Pb 5.635966037613623 3.49851997305786 10.150684178363672
Pb 7.130596945444286 9.552348864592602 8.080622002287862
Pb 6.236454293635083 6.144875139349153 8.3041390567041
Pb 6.92103287747869 12.137778484861588 10.172205661182565
Pb 10.066687307196743 5.295374389950405 11.402224991488238
Pb 4.700549223064319 10.937630834451326 6.382467011820281
Pb 4.198784813119064 6.068364678021022 5.823599929559369
Pb 8.656926244007751 3.4793226261178436 8.346571844806704
Pb 5.549714466567003 3.2812980745251346 6.807085409167005
Pb 9.621358971487233 6.605094976689619 8.152899740333433
Pb 7.342025391762771 12.724736866449772 7.049596692045337
Pb 7.999451089065305 5.530279832846005 5.388487924700064
Pb 4.131767499025829 9.879457829239978 3.445988091420697
Pb 6.84344959301013 8.638821657858042 4.858272247518581
Pb 11.441438167276225 9.056527267339332 7.5269325759148344
Pb 8.585548462824706 2.296871501923161 5.294569318278124
Pb 11.093938275080044 4.267856631149868 6.097358194786777
Pb 4.985115577139824 6.765551334623748 2.688551784867562
Pb 9.860776494022048 11.152271907945536 5.77029071748543
Pb 6.791132439539168 11.773495378899302 3.7771814500665446
Pb 6.785259633944446 3.873568643479266 2.9937952080470813
Pb 10.81033381425898 7.208684371728366 4.6619297790283865
Pb 6.5756492126626505 9.398146827666695 1.456020501935259
Pb 10.061950543262597 4.086738999406347 3.020407108656879
Pb 8.419634005656023 6.686113091124737 1.978822772529924
Pb 9.388762356709584 9.772780047949258 2.923745451875679
