36
Energy = -117.69698962 eV
Pb 9.661752483039713 11.00380551558734 5.5019923873684515
Pb 4.317450995525167 5.345796684854772 5.559153498385803
Pb 5.63870362219756 6.983549397452242 11.037165062176625
Pb 10.403801064349006 13.01586979128301 8.093377440045945
Pb 8.419339434360117 5.475985609086547 10.136481951851753
Pb 6.837440604540194 10.31966634990799 6.997851562855462
Pb 9.197606668161178 11.588377496924588 10.812033923538706
Pb 7.043948666837324 7.019294766845123 6.893558290369671
Pb 5.567057385806793 4.626720487787119 8.520451911587674
Pb 11.275861935363306 11.325011282970763 13.261173109697904
Pb 12.325061248833423 8.75960107540737 4.666339340014177
Pb 3.8717972127765665 7.426194030406007 7.985996288600738
Pb 12.636637248096259 6.220626233566893 9.373804468274407
Pb 9.007887561849769 9.641471208672396 15.104328556573469
Pb 7.750120593204629 14.306065592927306 9.55226554796315
Pb 4.986579309407111 9.98271796736106 9.950626352194508
Pb 4.664456026235986 8.525363359055104 5.050462142695201
Pb 6.683914484354935 6.456872320622758 3.6474524361030327
Pb 5.223778361636334 12.795606463038666 8.31116525710749
Pb 12.6220656627108 11.18613416502198 9.79813015313146
Pb 10.581438389812977 8.382295065055786 7.494522138833762
Pb 7.239589952285248 3.972027207260633 5.656777060965244
Pb 13.117793765482622 3.6558353891636832 7.837931707786035
Pb 11.581313124161245 8.20622669864551 14.096060612329001
Pb 13.891035588653672 8.605376053672458 7.636793104000038
Pb 8.636600374261002 7.230774456413256 12.882817876054453
Pb 10.126723216553774 4.772877278330686 7.477022138533137
Pb 9.798939404723352 6.478034989349009 4.783569119674109
Pb 8.118301120022785 8.780258719286476 9.827688939850674
Pb 5.8180656767712025 12.695912497703683 11.602546144063098
Pb 12.895204288167273 5.892326656108669 5.8322484220742075
Pb 6.429183973807107 9.665649682943963 13.0180640791333
Pb 8.235389142676272 12.366635025046657 13.792577889332057
Pb 12.718252935202006 11.360322681516504 6.559983867692875
Pb 7.6465122278949575 13.515184709000051 6.403103703135591
Pb 11.240308172815986 8.625445014301816 11.054395438584962
