30
Energy = -97.63717038 eV
Pb 7.43182376638649 7.854328893915014 1.5384776090163208
Pb 6.464472446362784 4.76812227747813 1.8104289734963317
Pb 4.523958463556695 7.062929762990132 2.8439560051001456
Pb 9.271058885891579 9.314789870812657 3.8783861957236545
Pb 9.176001482498004 5.620000682392372 3.353373518442898
Pb 7.886867022784436 2.685090458009634 3.8176333767375517
Pb 6.040128449015566 9.75918221315463 3.7723630379244706
Pb 5.5875533495479734 4.68140027084765 4.977298283833881
Pb 10.55057260570801 7.010260966397788 6.011020248743301
Pb 9.594983888792132 10.47534169472865 7.6492848453118585
Pb 7.5648949616339864 7.571759351473256 5.924306380877281
Pb 7.970736190856984 12.010669711419764 5.2829147912220495
Pb 6.892786325080852 2.2049399341319873 7.094336750772177
Pb 4.563032794404369 7.66241101012351 6.055094341342549
Pb 9.741679423742914 3.7282620641694164 6.198889322432759
Pb 6.649353928569483 5.130328358781956 8.50765206162464
Pb 6.221454311560554 11.28246791225677 7.792744638628867
Pb 9.255705934264288 2.6319244278214855 9.239028115699499
Pb 8.657763476532105 13.52962178825304 8.171989776132076
Pb 7.531741269539754 8.489303128092502 9.247065586348644
Pb 9.834328255762081 5.817501556815587 9.034333256739295
Pb 6.172918787923834 13.643438236149175 10.002703963949495
Pb 6.30666355586853 2.4603991743188276 10.498227688782341
Pb 4.467451147525566 7.756166479988645 9.484603533158868
Pb 8.465273870232027 11.434783874940653 10.664916756472204
Pb 4.813945801392365 5.200019936672305 11.270217487062292
Pb 9.413331563565126 7.602253016532004 11.657690171687797
Pb 8.068343693240706 4.7459755037738836 11.74805079697129
Pb 5.2300924871589105 10.667648357458233 10.804280634130945
Pb 6.358391468593764 7.905988694091598 12.376041459626364
