35
Energy = -114.37920881 eV
Pb 10.368777767295734 7.866644648874853 6.2379748753836495
Pb 5.435061788779192 8.363986422204999 9.911934183455212
Pb 11.59114172963613 7.304274625322397 9.616870712921818
Pb 9.122795578831358 9.81088024586031 10.426929908077748
Pb 13.151616413807455 7.321407734986462 4.083732059526226
Pb 10.830481759382305 4.245625451997779 8.376783985449615
Pb 8.430934341278038 6.655595533252832 9.002669875864441
Pb 10.961718180214433 4.871372940214191 4.83371548954813
Pb 2.3449227726862794 9.606896599799231 9.094905603351522
Pb 9.352134870334764 10.968891281791242 13.549033679738132
Pb 11.976841366045871 9.490506323700021 12.232678856485235
Pb 5.382904791533787 10.72797087262521 4.9022744976375945
Pb 10.14914837181508 7.727763006151421 2.9824460739492555
Pb 8.681333885241381 13.076771853321357 9.629328380228769
Pb 13.267803497527053 5.905386561902738 6.979313466660194
Pb 6.966860192702731 7.643134829951571 5.021437659514679
Pb 4.987386548652472 11.618606511242739 8.57582647036262
Pb 8.669559981563758 10.464371545608174 4.3593542120575846
Pb 7.8539121023304626 3.5165051431845726 9.462658944880813
Pb 9.961335089455652 4.824955385667988 11.579656453743125
Pb 6.6314236996820615 11.88765461463255 11.561975369764697
Pb 11.884868078696472 10.265207857932266 4.2303423074345305
Pb 6.6317822846030445 8.946079109785252 12.94899111384341
Pb 2.6417121374462758 11.202169294750355 6.442650055349306
Pb 9.68451670675322 7.5901113779912635 13.702834950554378
Pb 12.487889386300402 6.381973947944269 12.57129834515001
Pb 7.4240825379542486 9.592536953274474 7.476696545996614
Pb 7.6285009457343005 12.737392162426438 6.540431116108484
Pb 4.152459949514712 8.324452632254637 6.731734888147079
Pb 10.436510446920575 11.08756388735016 7.438862823126053
Pb 8.135011732679839 4.706839900010778 6.483659571218757
Pb 13.422043233072356 9.139520913706058 6.817015123917151
Pb 3.8613703938745845 10.381999980773838 11.839965644022335
Pb 11.277066315971423 12.32703528285935 11.182660829641653
Pb 7.013042068793219 5.868021280534615 11.839109705515943
