30
Energy = -97.60974918 eV
Pb 7.483232320538119 8.000574548136003 2.095249840779445
Pb 5.214384036216314 9.66596657188784 3.484146857943921
Pb 4.985996487080531 3.9144259314854377 2.012492784443284
Pb 9.980003183557399 6.924858802607384 3.9432705843100084
Pb 8.014009690771731 4.8637538319101745 2.3668212358252987
Pb 8.102945523839075 9.944071364368655 4.877226138362367
Pb 3.947227280150279 1.8597439225014443 4.149084454130137
Pb 2.647699182279984 4.939181039785866 4.145737721731395
Pb 7.67757091249217 7.1222098138600085 6.2662846784192645
Pb 2.7150271276822897 8.270349048861444 5.063247296544926
Pb 5.487672426587837 6.398292613973573 4.0378785045542225
Pb 9.70443372594773 4.637508121576242 6.518098558788215
Pb 5.119959612964109 10.130787857327993 6.713286816737791
Pb 6.784525887143913 3.3089325047904476 4.939165149841287
Pb 3.939776472216445 3.3062284682835443 6.841696434660807
Pb 11.017749529474406 7.764779471487169 6.855107996093884
Pb 4.710949589321682 6.6720507748474445 7.754031389362152
Pb 8.74457458704117 6.47334858233569 9.311834798068919
Pb 11.902101492376733 5.44756342565438 8.99018417707477
Pb 1.6047862872427818 5.910067651895234 7.599421777292239
Pb 6.7505022621843755 3.9373560052053973 8.375686508311022
Pb 8.690864206266664 9.579149180373879 8.421661370166795
Pb 2.319285664433554 9.157696894976274 8.143968386905534
Pb 13.752236318378353 7.973998337583166 8.390689641442778
Pb 11.832619347466135 10.50514651985743 8.265132670221288
Pb 5.233975941639552 9.068243420583752 9.899503669893157
Pb 3.2665818974086305 4.087022950669554 9.847596838842856
Pb 11.264254945825117 8.28862726259878 10.460177655750737
Pb 5.686488458326388 5.950284939623658 10.89826245370601
Pb 2.6577643161021998 7.136978853907256 10.572252322751298
