37
Energy = -121.95409305 eV
Pb 7.6180044604522825 2.2952642482085386 9.02569937392117
Pb 10.398437065265664 4.0584560083045265 8.196350740596538
Pb 7.083842502396144 5.158459183090106 10.747899174024536
Pb 8.346252611308682 1.8925506082424035 5.901509602832962
Pb 4.472681611095075 3.6438630778329126 9.384524872825045
Pb 5.271390485974341 1.5055370089158593 6.865146201124157
Pb 10.15629374652862 6.505068572952743 10.637108629777448
Pb 12.27565638108009 6.730423519589091 8.270705546106338
Pb 6.755039641042065 4.5921715498755775 6.7598797454517285
Pb 8.468398489623004 4.719928421470522 3.7544399963032715
Pb 9.028805928796462 7.0103309246165475 7.462507862478228
Pb 4.189723913866598 6.780140815500646 11.509877673381189
Pb 5.819955591344484 2.79599468033461 4.016815150251995
Pb 3.2950592315832536 4.307410075424989 6.359413623906764
Pb 6.782946390235636 7.690122846801823 13.140090873775264
Pb 10.490613510680433 9.566957451827834 9.337548319286855
Pb 8.675251640157088 10.042348017427987 12.398310626101177
Pb 11.239399709630888 5.594742890560979 5.353517611964928
Pb 4.882295279181198 6.9550801756997895 8.038735440560156
Pb 5.1133272575373745 6.025823836796625 3.893020701729802
Pb 1.9187209474989586 5.871886309635045 9.136064580791155
Pb 7.452915019616146 6.572789255187192 1.2399168004127334
Pb 5.2654185149805 10.281371140964222 11.866684777489208
Pb 7.242092406335072 8.38787905624853 9.944753737991391
Pb 11.388932976886878 8.850477894258766 5.9459365315883
Pb 10.436323459111842 7.634800208040505 2.388185066211038
Pb 7.7450127295363576 11.721412286843098 9.874870414507471
Pb 7.874406594381476 8.037034270248101 4.268470886226236
Pb 2.1120280077651215 7.4758854164583495 6.4277301868039896
Pb 2.63480394337993 8.990850000460016 9.540252643978233
Pb 5.232507472190398 8.851781251236455 2.0808975958779
Pb 8.283390546404425 10.238402812280274 6.750675235272483
Pb 4.843041435138601 9.067913198193477 5.438392948124916
Pb 5.1553231139050135 10.57552049450577 8.419274285330472
Pb 8.211118237842255 9.711500746353966 1.0606949666105818
Pb 10.028152319994827 10.670205367234596 3.585485034876479
Pb 6.811037852219789 11.195540697714382 3.6680214088287735
