38
Energy = -125.48255397 eV
Pb 1.900761979564784 6.562219005304883 8.61532590443361
Pb 2.1741744652908093 4.824809450153896 5.74909615614199
Pb 2.3856952077854547 3.2175396267379814 8.361860133059173
Pb 2.661822334482701 8.027244724510737 5.365891942056407
Pb 4.2409443127328625 7.716802927803596 10.785047441605323
Pb 3.8684090957171477 9.872320685006974 8.279612253062528
Pb 3.249056079180039 4.617817798726506 11.042596103884232
Pb 5.068212968273865 3.1012758340136135 6.102633035082804
Pb 4.070102875560196 11.040210911306099 5.26160186175683
Pb 4.883852760896914 5.619697663564762 8.174549560014917
Pb 4.588098194935113 8.842631832130031 2.886899975975832
Pb 4.657217422413625 5.758573046859883 3.8826222052880612
Pb 5.366667318982577 2.5119904919963316 9.46746815162498
Pb 7.289215845343477 8.346113106758487 11.819609064781732
Pb 6.1138602776476985 11.036651487018618 10.349631877925026
Pb 7.965829104580315 8.957627229632973 8.541722667050541
Pb 6.004595599830205 8.178228244625489 5.910650852517139
Pb 6.605073258469695 11.896835311587873 7.216158534942283
Pb 6.350574470497138 5.1380648389116095 11.685450369558934
Pb 7.1058418433830095 10.843437240353877 4.0675163235585865
Pb 9.102195397432524 11.939748998839587 9.28380552715215
Pb 8.455344598960034 2.798710050024953 10.387746704240245
Pb 8.377669044681516 5.542300717803529 8.11209131365041
Pb 7.680879252470108 7.689391096296224 3.064059201844513
Pb 10.23908652524218 9.160002399012276 10.781241253009098
Pb 7.837149985793566 4.820392506873346 4.797554878318954
Pb 9.582625141358085 5.826659671853636 11.20911495773553
Pb 8.393955494831511 2.5062645653990723 7.205215138668676
Pb 9.987855775415714 10.217685695327557 2.676621288468268
Pb 9.813629016010037 8.310918604478223 5.696531853676949
Pb 9.818322841390804 11.948728878690297 5.739409628325325
Pb 11.081879697372564 3.6208292233043347 8.776862452249674
Pb 10.95115080006244 5.039512588151143 5.844715977198979
Pb 11.633836841398603 6.818775342221046 8.757497676942902
Pb 11.676958546709962 7.51847827820476 3.2012355845184817
Pb 11.616652743618753 10.161084890060927 7.859258925069543
Pb 12.48148271486645 10.365635383279534 4.582563393755864
Pb 13.23118909131641 7.657370874065839 6.013115691529466
