38
Energy = -125.6155051 eV
Pb 7.881325833755329 5.8081693043043865 3.597098602380015
Pb 3.144436397756527 8.030445550578902 3.6099210788985476
Pb 4.621716642193732 5.136371642877705 4.334014517407149
Pb 9.503194762097547 11.12819145315997 2.9185245010245793
Pb 10.26137559321266 8.0168645402492 3.977288115430871
Pb 6.740000915443878 9.046221808123944 3.43101928683492
Pb 11.358088924696881 10.91809842328043 5.643777395065718
Pb 1.7704675253683626 5.963608112752362 5.814756570231752
Pb 10.829217919433237 4.8880031355373905 4.631253093812013
Pb 7.166813069193099 4.004144480772892 6.329615802377482
Pb 5.035608685109071 7.70297786489856 6.266422760546382
Pb 6.766591179895791 12.727998253781278 3.653924820317055
Pb 4.545043121687149 10.824713902415201 5.2535691737281764
Pb 8.060279559975033 10.543411005185396 5.928364686305945
Pb 11.969667851986877 7.215826850584037 6.688360451900325
Pb 9.565994200827301 13.58606258281201 5.057166796283287
Pb 8.61524806356938 7.059820669735775 6.6275770849310405
Pb 1.855307482964898 9.155778439717164 6.285858627995489
Pb 3.98677855484542 4.277885243991914 7.446488376564931
Pb 10.251066832130554 4.446539175988435 7.710920118996297
Pb 6.810627535744526 13.342244377065605 6.828629137137313
Pb 10.724995053138676 9.249197679435577 9.056903976574782
Pb 7.381381790552692 9.078305533963904 8.953141414676521
Pb 12.49032069125167 6.176570721728539 9.875201150432135
Pb 9.685927433616882 12.339043924478764 8.05507788379216
Pb 4.2943807117665385 10.090827458535923 8.41213148900615
Pb 6.146921345958667 5.995689765089014 9.148703027968345
Pb 8.660430162195052 9.772399841899162 11.921127020727052
Pb 2.7389781727077827 7.164370382532684 8.75273714672891
Pb 11.003320247376067 3.212905477733066 10.53265664035634
Pb 9.191917529942353 6.31751067524263 10.622425297417317
Pb 11.507226563320916 8.42202012736758 12.102585003068546
Pb 7.608972510506337 3.1591079589564828 9.92987555767113
Pb 5.934437497368833 8.095394156856607 11.809908022818027
Pb 11.620975171620907 5.312089389960082 12.944950481103842
Pb 6.064354569284205 4.903559232761447 12.253686679208977
Pb 8.901580260676216 3.6243557649157623 12.987478202941002
Pb 8.528854158768254 6.893341139492505 13.742421428028
