30
Energy = -97.90975203 eV
Pb 7.0260362753474315 7.630947970085543 4.785786481194475
Pb 7.600285310925576 10.739123332853847 3.873121254683988
Pb 10.24183335019027 8.639971945806785 4.4220517334489005
Pb 10.56611160534086 11.938752698763754 4.268953686780056
Pb 12.335184766878344 6.930774035759336 6.485136229545368
Pb 10.276970216581326 4.108559913196978 6.525669148330425
Pb 7.926163217979446 13.320317795010979 5.734595585157077
Pb 6.943347475148796 4.750978635634675 6.660361449693852
Pb 5.768321550736447 8.714497315233846 7.359663905701046
Pb 3.928081824584335 5.961491785258707 7.826985995352668
Pb 12.283094199186035 10.303944550374055 6.7140427291208615
Pb 8.889335269449544 10.476108106451187 6.921912563818397
Pb 9.228771245615658 6.98295857607101 7.407179168499353
Pb 10.938245917597083 13.349465198998896 7.1107876094714335
Pb 5.655088528598855 3.7638870306557584 9.490974045694854
Pb 8.990657722333504 3.7419031134249123 9.37397014253239
Pb 11.019439483228636 11.477692686869796 9.810682105572964
Pb 12.02138416155595 5.10745072413864 9.074729323918728
Pb 8.260058727067118 13.141073134707524 9.030288712733661
Pb 8.457314561784806 8.947770215319103 9.833629815859162
Pb 3.297089510539912 8.70742761473778 9.41177677900065
Pb 6.059735103801593 6.84504677987505 10.12453202571459
Pb 12.20875564078332 8.339827974303153 9.55371516146955
Pb 5.531590768329641 11.212851790629133 9.34260352281289
Pb 10.301783266213283 6.239040356287734 11.597239987239448
Pb 7.5418798344048135 4.48840127556593 12.029525033749428
Pb 10.416968634575603 9.407666985234268 12.413678078327033
Pb 7.76162214366918 11.390405725844335 11.883825037839545
Pb 4.949202539383668 9.499502615210043 12.01686931599274
Pb 7.583523503001579 7.8500364725299185 12.923589725577171
