30
Energy = -97.41335094 eV
Pb 7.004376906959931 5.705173999896544 2.9184759874008668
Pb 9.79740989259005 7.711744914576081 3.103541650475703
Pb 8.514068993537794 10.6380026908319 3.7715778224580614
Pb 5.935914870563836 8.795742071387851 2.9367764713334426
Pb 9.478492466274217 4.896460249643252 4.794185370360878
Pb 3.817094701145314 6.342131508458121 3.203054784983169
Pb 3.0148952180436623 9.145270494559073 4.6084263266260415
Pb 10.559050006059689 9.537391921377175 6.1856408476726665
Pb 5.389483262730246 4.83556699900625 5.660211146283489
Pb 11.904216971362128 6.733918884259912 5.651215682519592
Pb 2.3954431949744412 6.194713159239228 6.033675131730884
Pb 7.75924033743225 7.636571123508649 5.745603942893394
Pb 9.533236139837275 12.495016268889907 6.301186518441212
Pb 5.801378799515407 10.56296699298618 5.645864739114597
Pb 4.775957255647762 7.849665441695823 7.054677996212588
Pb 11.965853697211744 7.963400874151163 8.804267850561908
Pb 10.425522669281126 4.960025741657838 7.925087027690093
Pb 3.7128140350407954 5.08230468844453 9.40974334793139
Pb 10.294616045789516 11.107990494876306 9.14438722327226
Pb 8.556890654857252 7.9636885561193465 8.984831759577906
Pb 6.779534440227352 5.0888680497842795 8.571800177639124
Pb 8.755029311067755 3.3623969874103534 10.379199752797769
Pb 5.323440513529655 7.870667855873815 10.178277342339745
Pb 7.200924559260925 11.787002412135188 8.244359005969574
Pb 10.662764696382714 5.942985856533774 11.09919086963009
Pb 10.261370474791258 9.022950533592619 11.643446690948272
Pb 5.664443466109879 3.2249762868389293 11.137658367530715
Pb 7.4084894330107955 10.305234728981 10.987060044775568
Pb 4.372065437142646 5.8594128511966845 12.506260220189306
Pb 7.490327829922243 5.932103642387539 11.924662180939261
