38
Energy = -124.25247771 eV
Pb 5.030993325337293 11.739738767799343 12.764514815528289
Pb 7.933883222114353 12.326364328582757 11.276912043240378
Pb 11.359043056582056 12.450299822200938 8.789211825292604
Pb 4.941079917863542 12.350750686841343 9.592603872083078
Pb 7.695913012841291 9.873516853858401 13.57947462940233
Pb 13.430787093386915 10.936235364857728 6.722796268470288
Pb 4.562052803919741 8.749784462423257 13.532268246925778
Pb 11.094967846255363 10.51091742595821 11.560898789038495
Pb 7.857887048525237 11.643471237009857 7.921112478997594
Pb 13.942114257363686 10.74363912126725 9.920953790940636
Pb 10.493469553877137 11.459503892736398 5.420582624268082
Pb 6.649468944256987 9.406066837855969 10.595159601981445
Pb 9.590133439183662 7.615433918625208 11.418626599757227
Pb 5.0093766425040736 12.193781315964378 6.307897335064623
Pb 11.097616659050011 9.293856368635932 8.487601521961231
Pb 6.653685921681187 6.668970816870205 12.567943337977825
Pb 12.98765196301199 7.7299778247454265 10.944795424036325
Pb 3.2977060907115456 9.817491999906373 10.698357406826423
Pb 7.521568061199244 11.955356261633117 4.528405573859725
Pb 5.064851920451174 9.333036177635096 7.81420799960129
Pb 8.354732818738997 6.5804751856162484 8.673885476915352
Pb 14.27638456339252 8.151065077305477 7.994131220030796
Pb 8.239607498044474 8.933280361111564 6.257644807539225
Pb 5.646023363870734 9.099334204835484 4.308029990127552
Pb 8.60862750280552 9.338036981201745 2.8101617875917624
Pb 5.169962789029067 6.322875406713935 9.453787322201903
Pb 11.6711634084743 6.110450594894343 8.064553041875437
Pb 11.333536302614098 8.250274607929773 5.157804367992362
Pb 7.684347041774048 4.064887720122414 10.788876055174644
Pb 10.79271346161015 4.741138915275289 10.83036280111095
Pb 4.666008616262306 3.3270183122493586 10.509069226284662
Pb 5.827937653385161 6.244209751717089 5.963651975394071
Pb 9.320714089619587 3.5149994079399067 7.738351474484664
Pb 6.899076406278463 6.272967174503089 2.8178968326274925
Pb 9.11780748220526 5.711184437716687 5.377075688334202
Pb 5.985264657450457 3.297172044923497 7.808927713823515
Pb 10.059628486085721 6.580460024066193 2.501333183598094
Pb 7.0666155134201984 3.3120038319571363 4.969913476230289
