35
Energy = -115.13597624 eV
Pb 3.911945316975526 9.683630237067312 8.91043465969425
Pb 9.341906813903718 12.529972042689694 9.170454486485475
Pb 8.311328990118783 11.59787164819394 12.043319732507562
Pb 11.352931012196382 7.464896417145192 4.827107905809749
Pb 5.805178578587673 3.509109921636937 5.974286827913041
Pb 2.2372633720757884 6.79182835212946 8.749007767108893
Pb 3.8134325401387197 4.036334186647457 8.880968032384574
Pb 8.001221068673555 8.557072377084246 5.887723691531789
Pb 5.280781836793327 6.838106745907627 10.706855391821831
Pb 10.684656392295413 10.118278316247187 7.0653791232891034
Pb 6.140963832427858 12.687508276514404 9.978192417068078
Pb 7.336638071331901 9.986593756078065 8.92795784816697
Pb 8.655915292845194 5.36340228590745 6.222621187542803
Pb 5.295445923476242 6.7268003131913945 7.379358194042689
Pb 5.439640173801872 7.315772334848694 4.068649541764218
Pb 11.68056060494941 4.27630601757578 6.110298228280348
Pb 9.113362244249892 2.491277427492827 5.005706911179171
Pb 4.931948437517143 10.6340626777155 5.9839922798968095
Pb 7.895752424269643 4.9643869001889085 11.75427835457316
Pb 10.112823915831237 3.975547344629024 9.245017166461235
Pb 6.9943002395403235 3.399826389954625 8.993763595625033
Pb 2.7673646952666835 5.0928620869055194 6.03717114956104
Pb 10.606678404673758 9.622801515606271 10.495567668532251
Pb 9.854649217918093 10.533928981129133 3.8729123760073723
Pb 8.320825881339045 8.304684150951944 12.462164992309358
Pb 10.513284434050396 4.671014984197242 3.1438794384072692
Pb 8.387475441036136 6.941005714637999 9.215044567303236
Pb 7.236724387433828 4.53325043678102 3.202489540969112
Pb 5.441163674098548 10.07064563114696 11.808943936038418
Pb 11.564907071693405 6.990153398855654 8.271613714201402
Pb 8.874349369439258 7.484258972015446 2.6473849277359793
Pb 6.745293250623222 10.180493495900912 3.2962981363902535
Pb 2.6310085989498093 8.278301660286777 5.924292895247627
Pb 10.81666588026458 6.219618737096327 11.438568867676068
Pb 7.885537538064832 11.99167354255432 5.997116888029907
