37
Energy = -121.76334682 eV
Pb 7.587937810720412 13.887194302540378 12.971682230921433
Pb 8.078453857760291 12.09335639282656 6.588800854449574
Pb 7.141909598550558 12.834981864619607 9.686364630874104
Pb 6.233620398643463 11.14097571421728 12.1149330733063
Pb 5.727574636090476 11.453264583331805 4.361521659735448
Pb 9.233514295614208 11.056203264237434 13.609516047719676
Pb 10.68626814966751 13.61438720462561 12.270684304577355
Pb 4.945323153282351 11.193594816048398 7.455386511668367
Pb 10.512740471814872 12.70858975000596 9.042256956869151
Pb 8.920235052548378 10.381170825144274 3.904500198600151
Pb 8.867113342583867 9.98996059354391 10.228340054953252
Pb 3.902472425042989 8.337932027580537 8.495912046717324
Pb 4.562708422523716 8.536220262276165 11.554552626193416
Pb 6.194327528900288 8.731769118664342 2.76757475693807
Pb 4.049868464888096 8.694999388470867 5.197324395527242
Pb 7.058953766730617 8.922250011272368 6.593542714548561
Pb 9.01368930425017 7.1118420568354255 2.767796579947652
Pb 7.339577492432259 8.141286684919049 13.055136293704573
Pb 10.496144478816902 9.536151164666318 7.0980491669182095
Pb 5.012773997785009 5.442304644129862 7.497545118411061
Pb 11.804140204319927 10.82642470549066 11.39492074793705
Pb 6.411636011974995 6.065135581060959 4.570981176488496
Pb 6.9220329583980575 7.260150724717637 9.690448878941572
Pb 11.569122760982395 8.497348881538175 4.19304195685407
Pb 8.56296961307466 5.0981132045652755 11.933735774971504
Pb 12.867027411741542 6.845445796786644 6.800109752292045
Pb 10.532569787285741 7.982290450726352 12.504184876918904
Pb 6.71195252422358 3.8772339223341556 9.639813908031648
Pb 10.164636081417054 6.302445837200931 9.051114073236835
Pb 12.928238122686643 7.6749032287070085 9.961438730238303
Pb 7.932330253737223 3.806126259033455 6.685594530936561
Pb 9.42480400759669 6.705164233787386 5.913503258471194
Pb 11.839521386363577 5.083095779475643 11.757308927990081
Pb 10.050670248304618 3.091993741489262 9.539832732424344
Pb 13.21613290011669 4.450522791534326 8.988939287860719
Pb 11.209648146027362 4.007190468849556 6.499674224017982
Pb 8.944838839104282 15.275457628748484 10.271414845809721
