34
Energy = -112.62813104 eV
Pb 4.683373106769029 9.274775586236915 3.9058924885785964
Pb 4.231483590619155 12.049458690441845 5.757204552615357
Pb 6.932125168153248 11.634776358601657 4.068625291733941
Pb 2.9062917121844145 9.325704693881908 6.726018418959192
Pb 8.299631192763506 8.682704203964894 3.2091315154273086
Pb 4.313874953668298 6.46422089486169 5.845274186606372
Pb 7.202605179441769 12.601323810475378 7.184639343342618
Pb 11.357338694551874 8.324053388955159 4.722577331156446
Pb 6.321904496996473 9.412358993074303 6.689048054132339
Pb 4.641411283165345 11.216412483351764 8.886905130338997
Pb 5.170172843252199 2.480307562907024 5.929675088173108
Pb 10.015380664979704 5.884828256177055 3.1516316893176604
Pb 6.740284012060424 5.7877108856201955 3.713077945945886
Pb 3.2072768820409547 4.099342009572538 7.918771539414123
Pb 9.744092865208446 10.939065541167992 5.682214151380363
Pb 8.643167572704446 6.9452632231361635 6.175255893954679
Pb 4.566612408255448 7.3729031438836214 8.97870310081619
Pb 4.990621522012398 1.6472149704744687 9.105288942931434
Pb 8.801438775245781 3.6545782010735004 5.134152661402104
Pb 10.326113931806391 12.313441009736696 8.688761066988237
Pb 6.461352677119427 4.659259059691638 7.886317071038633
Pb 7.881489452424823 1.55531843516328 7.54385337897312
Pb 8.918842350722313 9.32306940889255 9.085061584592921
Pb 8.453292636606285 11.772786172667345 11.231955890553099
Pb 11.959801709220388 9.46588601600896 7.977347726140204
Pb 11.520704661241194 5.3172245774404345 5.966864755558256
Pb 6.2791187475701555 9.318581718345518 11.064491775918532
Pb 4.86201793932894 4.390576635571346 10.81882226885059
Pb 7.6584005767303776 2.833874067998414 10.52125733594342
Pb 9.77974819990364 4.528779016560312 8.5399739694662
Pb 11.514078012675865 10.535260321378207 11.086761901472764
Pb 11.191408571354495 7.352277413117961 10.425389063759283
Pb 9.229403791592881 8.816204492660445 12.53048627781104
Pb 7.8120501157375575 6.401919270761824 10.447425182843219
