39
Energy = -128.36990597 eV
Pb 4.4968158467515 6.026165726922305 5.6649478077131095
Pb 3.8082545625780355 8.279217958321773 7.929731191452142
Pb 7.33386113176847 6.281575061056473 3.7159469479802074
Pb 5.697552467742812 9.030132042604517 5.211826226529191
Pb 2.3848508803642527 7.016020795868988 10.566801718766618
Pb 8.841644337626038 8.758576329245935 1.7437020941558545
Pb 6.807339775342246 3.895000868128105 6.0109486720161645
Pb 10.620977736554467 6.341694213574811 2.6991177396035924
Pb 3.764103227863974 4.770066312316879 8.590398452136032
Pb 6.157335705502446 10.893664351548706 7.976585029886858
Pb 4.611848285905514 9.667967087530776 10.795768232371833
Pb 9.919254933904012 4.860675575746061 5.461343376082923
Pb 7.445131956315768 6.918816772580182 7.14995799899153
Pb 7.329825527589402 12.127409161021028 5.108492662419432
Pb 4.186533868542702 7.295696329842916 13.261367410453586
Pb 12.016773750051398 9.203199149580978 2.771443586728211
Pb 9.339039332771886 8.747507130945836 4.896911332680224
Pb 3.752308779226054 4.417490702030298 11.846441328727746
Pb 9.740420153128333 11.627853195454245 2.993018956814604
Pb 8.986515483299208 3.8243421035752676 8.383399073937227
Pb 5.949671461113752 6.673049261714599 10.348142715988955
Pb 6.425087305353629 3.4160958950108262 10.329464753159508
Pb 12.219494767588078 7.281973402554644 5.549466452810345
Pb 10.085982062016273 13.944553660214675 5.254507241679236
Pb 9.444904826796552 10.526635475558574 7.649925974654645
Pb 12.077435859854992 11.162309930581378 5.3566789159567145
Pb 8.33274379383529 13.526101112105676 7.921879246124763
Pb 6.681563087234133 5.044690501241899 13.217082968152697
Pb 11.355075935490301 6.0916990527282335 8.662986591069087
Pb 7.68738168515942 11.297520897302569 10.982504876563207
Pb 6.845973278576069 9.074819805204559 13.342518679331418
Pb 9.029584029354178 8.334059283362597 10.289260607791686
Pb 9.598251136684494 4.897767380487144 11.317602066034674
Pb 12.280692437118828 9.144271498074868 8.473059989162339
Pb 11.527074480295292 13.080156638268493 7.969230617573464
Pb 11.063132838434955 11.154702894485336 10.615042176583016
Pb 9.357897094335819 6.82005916211027 13.88817136700639
Pb 9.920373458391804 9.852511699562898 13.28601806984952
Pb 11.820451152908863 7.637110014905228 11.711465284432967
