39
Energy = -128.15488459 eV
Pb 5.248885887743896 2.820212942218531 10.532972468873524
Pb 3.0468485037159354 3.085740727766114 8.237477407047498
Pb 6.475570889726168 5.5595037601642385 11.88112983528874
Pb 6.332920258878932 2.923828014658657 7.461335943150405
Pb 9.661107822062192 5.658946547233065 12.27651631329543
Pb 8.404435269937839 3.4309611649072114 10.138795036143064
Pb 3.6399004784893094 5.704497841974857 10.18925320644961
Pb 1.501238023911241 5.851118207638597 7.816671425663261
Pb 5.886703933838267 8.550207254475449 10.538681651356683
Pb 7.213840859731488 6.059064110742151 8.6933456082872
Pb 11.425845422704565 5.6345654634566475 9.520332990914541
Pb 11.998026007891358 7.6654274521928025 12.073751046928127
Pb 4.575874130765235 5.4910786723973946 6.536132943599843
Pb 8.81724447548645 8.827680295642997 12.321376030065665
Pb 7.499584932148518 4.047912107000382 4.350893785196053
Pb 2.9054969303747242 8.676163501922902 8.754300122914566
Pb 8.18273358059262 11.809613826484021 11.1802299830486
Pb 9.760381305902259 4.135982730146528 7.026328772510796
Pb 2.445877697715265 8.039052085178469 5.55937463332473
Pb 8.506630561515438 6.905757714333001 5.467742671676576
Pb 5.57896389484457 6.581538703461389 3.417161657160311
Pb 5.762822960829045 8.60745556050492 6.682350799370017
Pb 10.674838319482795 4.88276742164828 3.8778570654637523
Pb 12.070103009943763 6.5219388750725935 6.500655732783856
Pb 5.851920095873402 11.321161188452601 8.742076272912694
Pb 3.444672808927286 10.985473923360225 6.424432727554877
Pb 8.965329425586631 9.317930842481841 9.035146979053266
Pb 12.837935201023846 8.610259037893444 9.004613292502649
Pb 11.436826658762918 10.687747734671206 11.36836186401164
Pb 8.415519049614934 6.187669209582891 1.9970535425793121
Pb 10.628208725598725 13.608158565045809 10.310602408341598
Pb 4.345959784293244 9.728341589658905 3.572485716074728
Pb 7.570186860565937 9.217360782814103 2.9500917250297776
Pb 10.874086744383487 8.072991663659085 3.414438955878064
Pb 8.61027825913832 12.75026481707489 7.939727804332254
Pb 6.540336976494017 11.609518484537148 5.235231629420166
Pb 12.662199968163671 9.603181488547023 5.805303881783488
Pb 11.646667344140779 11.57744733386132 8.092995335343316
Pb 9.383505436803093 10.080986854741557 5.902279232272889
