33
Energy = -108.95629092 eV
Pb 7.879298382000479 4.959975036476683 2.064356350067505
Pb 7.802832844997068 4.112714313622873 5.268212991259387
Pb 4.9353225953905335 5.706450299298205 4.404469667716449
Pb 7.498699103801891 2.4550618991940034 8.191715534627196
Pb 4.6654478338804966 3.8365281521242127 7.381257770357111
Pb 10.540740683857459 5.742762669000242 3.654368002294157
Pb 6.0259089797664025 7.583490776616513 1.8643618776541597
Pb 9.332465432293663 7.734832574822731 1.3967236469779367
Pb 10.032636628868826 4.640233124319094 7.634229835321344
Pb 7.846529383826057 7.272649410355868 4.6628877895725
Pb 8.847573226124082 4.180095311163575 10.733177481016192
Pb 5.651235972251423 3.2121748541894806 10.610564732706768
Pb 3.0706397100151235 7.466612961450235 6.911091064585216
Pb 6.952973016430646 5.748197458433194 8.525238801293431
Pb 10.359119397671277 7.86892224785638 7.275532326318441
Pb 4.276395336734282 9.177306069060217 4.4217454279179
Pb 6.172342682373742 8.728891772563893 7.208928695503367
Pb 11.529671704906098 6.986876968298757 10.40760527593005
Pb 10.500987452037316 9.002386115677352 4.144234448038439
Pb 8.61891202381536 8.393545184742933 9.957506281758986
Pb 6.045523925264564 11.683320801599894 5.721254582148984
Pb 9.450378942637693 6.711474483286393 12.971629955533844
Pb 3.725519699717782 5.744475459116899 9.826638811464164
Pb 6.334319343591969 6.151359965565556 11.847667598927496
Pb 3.281459838285706 10.731895615298107 7.120228793259218
Pb 7.592545728789666 10.15531187600764 3.155910726542943
Pb 11.679118943316857 10.080387231840005 9.34938135079382
Pb 9.054460835170284 10.801343737761416 7.3680698512711045
Pb 4.0435526720532 8.974035295340641 9.740985773852218
Pb 6.034977846515004 11.420131992401494 8.984075063945975
Pb 10.806803413183596 9.563994314823647 12.40944230172101
Pb 7.495197369004156 9.329813328676051 12.699337617233292
Pb 9.028264399133478 11.605672197219018 10.692544869335714
