32
Energy = -105.21273106 eV
Pb 11.608729123954598 9.024376926044813 12.498823765870247
Pb 10.156826035797799 3.771197670065203 11.057884782224292
Pb 12.605223117034605 6.154843034618854 11.181137531169009
Pb 9.482015788810939 6.331271082392572 13.052994078450787
Pb 8.747453802014489 9.486078066903852 13.835566055766742
Pb 12.453396273419337 9.133596870176856 9.380017653106762
Pb 9.225830703706489 3.570306931253078 7.916196540829537
Pb 11.669904521270006 4.868876645556174 6.066168643323341
Pb 13.81931267986574 6.4095153830949805 8.058853812318635
Pb 9.632272224013173 11.20380267848549 10.994105498396465
Pb 8.890796574052416 6.4442051147771275 5.756093495855516
Pb 12.477786430948434 3.5941417942119456 8.919252390102269
Pb 7.09996823461881 5.15188279305006 10.87777070054903
Pb 6.398463715479322 10.449466374376899 11.869965591219755
Pb 10.192495050683053 11.068973360113432 7.6737238673365775
Pb 10.357257172179999 6.460479578639061 8.768774818032693
Pb 5.051263268045725 13.279921372227435 3.7243013442164417
Pb 6.375727990039147 7.401083376096501 13.267562812026672
Pb 11.744299532034017 8.305335788271025 6.296252368680183
Pb 7.252242115564727 12.54745446559509 8.830276519648073
Pb 6.347401018233051 6.066450182984266 7.679877989061766
Pb 9.202060460391309 9.779289801875242 4.598846277152316
Pb 7.911323060925469 12.736978722775788 5.5379139010403255
Pb 8.355144327536618 8.229568991268676 10.598265552944113
Pb 5.021750401851665 7.698100961835997 10.289405318900743
Pb 4.1788717728769 8.688659995360553 6.869285664442147
Pb 4.405521410266186 10.937651131715738 9.401638740301504
Pb 6.915255671563226 11.045988478062995 2.785122515854109
Pb 6.309878717469904 8.209192953183077 4.386647121176905
Pb 7.2854131709388295 9.590350461315438 7.311016729223098
Pb 4.7844426256772055 11.948553095181081 6.516375904892829
Pb 3.8859004319036856 10.256633341657562 3.8441094390535255
