31
Energy = -99.87763904 eV
Pb 5.051722205037563 11.773101505106693 8.684837486128584
Pb 6.1376054494930745 3.8863376295245153 5.686083202557897
Pb 8.492083726555267 12.265240657626933 7.880149811860561
Pb 8.20258992917083 5.367916384386598 2.311387532925728
Pb 11.85972652074531 12.192743336732637 7.993779028578875
Pb 4.583069975032018 9.811813279624316 11.547565877381889
Pb 10.23335823018454 12.12674900042284 5.2475897821328354
Pb 9.995979078245812 7.908617356524563 10.919166561326183
Pb 2.325881607302977 10.86605168347531 9.956458820637158
Pb 7.693545907723275 9.442778902660002 12.471221851296137
Pb 7.324422508890478 9.386198547497832 9.202884000042152
Pb 10.295961790189784 5.907490109144149 8.398255992675507
Pb 10.385003825753268 9.336122803831232 7.725450987712205
Pb 5.823776978395138 1.3086548336893515 7.4765512688859435
Pb 8.361590421756905 8.568355980459401 2.321123075776311
Pb 7.779527874838712 4.994691705840347 10.797224964037836
Pb 4.176870399268263 8.665955997746345 8.419408347747975
Pb 11.011051290130792 6.743759854066774 2.195035284161746
Pb 6.207158930686072 6.995683356749737 4.280394178964805
Pb 9.400586933178538 6.5795293474177505 5.031972397758239
Pb 10.954648849897112 9.262729816238068 4.107245468680449
Pb 7.897842325047015 9.626009886720466 5.4209494962989195
Pb 10.834053400418034 4.969143873795788 11.35452004648098
Pb 7.078436545786122 1.9036230451732497 10.296483370814824
Pb 7.058711444608772 6.446696603352442 7.640429063220875
Pb 5.098825461130698 6.680184696751249 10.80947823960002
Pb 7.3726783416082 12.355122109817076 11.043385763719023
Pb 10.51102938973646 11.042758008549876 10.877028253005845
Pb 5.091468771052386 4.051207385422307 8.803553469645726
Pb 8.480085474157269 3.2132988671317064 7.75322674732332
Pb 10.028329014513718 14.023562922137264 9.93364490117664
