34
Energy = -112.45115253 eV
Pb 2.4097679971236516 9.420484519115305 8.524188643003418
Pb 2.879092299492947 9.969618280967577 11.76125135375634
Pb 4.419361118877709 11.868386917321157 9.733364427329635
Pb 2.3399080565994415 7.041353012736135 10.638974939956155
Pb 5.056742932696447 8.046498893121113 5.461932999878833
Pb 5.3967036119921685 11.176220958786958 6.59476982959286
Pb 3.859183102292032 6.19590424349642 7.821037608191513
Pb 6.220502204201485 10.325922925240459 12.088169395923742
Pb 7.265826418587372 10.02908100687497 4.0424101595496085
Pb 4.696920221190336 7.527491228594029 12.877955536445203
Pb 5.396517355149772 8.603413047681249 9.472227719020337
Pb 7.721655502236696 11.899228611551854 9.173607103562409
Pb 6.713254570312182 6.897190754457472 2.951085555688336
Pb 6.272804037106558 4.478719407521036 5.32989715788033
Pb 8.330324663839818 9.292782675171528 7.188824534391039
Pb 8.223612038676897 12.565133628057934 6.009116180228971
Pb 5.0923700741717886 5.075975805998186 10.638303269856674
Pb 8.39730499942587 4.137691537450399 2.7220905744165274
Pb 9.958482056064472 9.559577762747681 10.133962463047075
Pb 7.076384998009182 2.9285240562018617 8.16152396345188
Pb 7.374736251183405 6.09293808225691 8.304188751084755
Pb 9.458723375333406 2.9617203487821415 5.644370407708998
Pb 9.128279661410168 6.393775033703362 5.302453272126334
Pb 10.787325939850517 11.805164564625034 7.705653075006069
Pb 7.873438900872474 7.353693352083161 11.689919807433688
Pb 8.125588835813518 4.184962486069911 11.074828812899016
Pb 9.834141931553013 7.138509694913466 2.263680113480013
Pb 11.459617748217083 4.48473917574628 3.459741797803886
Pb 11.774079553456426 8.654777207189655 7.4900413924070675
Pb 10.48848801256851 10.314655961238818 4.841148645011544
Pb 11.917467833519032 5.116828063167734 6.806680204293724
Pb 10.184764173100923 3.2453973008223094 8.83373575051876
Pb 10.586899534316855 6.356487470729518 9.752310927534507
Pb 12.268717765715916 7.440460880741655 4.38458052128311
