32
Energy = -104.77863753 eV
Pb 13.596240941681453 9.739401160422775 13.348583394244171
Pb 6.7369581518315504 6.65416427167541 11.109773574820467
Pb 2.736498865233122 10.94195741951867 5.335619425744056
Pb 6.604689812089164 12.396465469441127 9.069991398838983
Pb 10.094040284211513 3.600137279110817 7.152137224773959
Pb 6.832637402847362 9.89050279056408 11.41430276899644
Pb 9.783230313158306 11.82256744828935 7.867669696401626
Pb 11.714885222353471 12.066676310193179 13.093319032722416
Pb 9.327122130466131 11.873192731949214 11.03141516116256
Pb 6.697379730062952 9.455000069943926 7.699833194620001
Pb 10.171687459519266 9.221148570165191 12.956357477269682
Pb 10.87101016358477 9.480571481307248 5.9147458874259655
Pb 5.4799781828513145 9.496706802129836 4.394452686929535
Pb 6.896489098495606 3.2822150278536957 6.665280736223743
Pb 8.779656267777435 4.564234993548616 4.339752342732028
Pb 11.281798960777712 6.265884759517288 5.669803068496857
Pb 11.844040650557643 5.298450003440495 9.3466451139089
Pb 8.04516698443658 4.050177468876329 9.653267647348635
Pb 9.84314980451392 6.00428713779295 11.823227115121819
Pb 4.287823420936794 8.389927188089493 9.9266088838032
Pb 5.88619518839603 6.032628889885509 5.100346033391872
Pb 8.589411533616657 7.828453501243197 4.089810372630228
Pb 3.5830222467869324 8.180436830125204 6.799780881714035
Pb 12.434419569945776 10.76706088502672 10.226653328140856
Pb 8.29783660521577 6.442856218691361 7.2702930306744955
Pb 12.860271187443653 8.130844046629036 8.09852893928162
Pb 8.20983297637514 11.100530939466795 5.0630741479937305
Pb 5.4180195516377765 12.443571600453026 6.028446454224675
Pb 12.700388202375143 7.599954242347673 11.366581077142621
Pb 9.821992692800922 8.554006596150574 9.573926889832034
Pb 5.1475903915389445 5.448387937652407 8.391554075406825
Pb 3.6228049360912924 11.173868858109989 8.374487867593112
