39
Energy = -128.62963736 eV
Pb 4.30664480512942 10.515011984647137 10.667899244363994
Pb 2.905835472125574 7.67287054956751 11.566602925244553
Pb 4.213695641467962 11.893345485697294 7.731058332802461
Pb 1.8296791084124069 9.325269217772677 8.827491254275333
Pb 7.6978723353799525 12.004888341650371 7.58544867407612
Pb 6.526169509554345 8.363287987987851 11.33278472595123
Pb 0.7545331902811989 6.288326827466362 9.567311024529724
Pb 6.097400881796235 11.549556155923533 4.654898502097704
Pb 4.077614870264133 6.6868550853928355 8.498512032702521
Pb 9.139130465580825 9.315713283803978 9.51295013325667
Pb 3.5527357216340456 9.35425097156305 5.7650074298615195
Pb 3.056784683548485 4.4139460881572115 10.817607991553505
Pb 6.056158186800475 9.307148339632437 8.144747743608919
Pb 1.296775238045489 7.038875894194964 6.487365301846541
Pb 9.352770983158209 12.182578214894903 4.704714392292254
Pb 11.003764535647164 10.384900628539622 7.026486177601772
Pb 10.455723133402218 6.430887854277 10.537018626008237
Pb 7.597475510835025 6.262273903323439 8.923870446667069
Pb 6.12270440053439 5.188570118784641 11.686313431908497
Pb 8.786520184348861 3.6533483093474457 10.475711926453734
Pb 6.780817445521631 6.268050857849222 5.781700552745269
Pb 2.479633374754787 4.008335417013095 7.474606221834769
Pb 3.788755115869597 5.8557839206383715 4.757963038717769
Pb 5.512428418174055 3.2131704747827574 8.994720611161553
Pb 8.209290397721682 9.178947257212588 5.631561749306465
Pb 13.233192622276924 6.860755577276609 8.945081515292497
Pb 8.304365163458803 3.0546532038023355 7.236185569509483
Pb 8.134723488750652 10.362458818538775 2.3011585715907525
Pb 10.91195721914875 9.346671423121379 3.679624213533589
Pb 11.793009509518951 3.9130412332959663 8.756929326046809
Pb 5.493256018051637 8.587658280545558 3.24525027629876
Pb 10.555502746306912 6.52940205039066 6.967653083920381
Pb 5.373036005103437 3.230125943957056 5.712591937235709
Pb 13.235279833129528 8.199919699583585 5.965866173304024
Pb 8.505579909760861 4.096632112182615 4.071758596998871
Pb 8.480041479332243 7.127855031342341 2.8069194810817817
Pb 13.737134373723526 5.061849737607315 6.296486589759926
Pb 11.18906503940923 3.2693639816551916 5.582714153604717
Pb 11.700832785065343 6.002640694114138 3.8244083283394508
