30
Energy = -98.10472302 eV
Pb 8.174384327290944 7.59934392695766 2.5865927319053363
Pb 5.254856451671938 7.819083716335177 3.8654322416543225
Pb 10.439287702303568 8.829951156668967 4.523397186721096
Pb 6.639069438862235 4.956622629757701 3.3796352874761957
Pb 9.722465379557711 5.518766420459595 4.733589828058082
Pb 4.213866729989932 5.257072150558684 5.38086724354958
Pb 7.3936327429140825 10.035042257321463 4.917008952027506
Pb 11.98567292817448 7.088334567594282 6.711854035507246
Pb 8.040150759642618 6.978331631069592 7.288761305168902
Pb 5.030493725252062 8.405101826693178 7.048639844722988
Pb 7.373131526381265 3.814788840790406 6.36715503620378
Pb 5.235626707920861 5.350331590285552 8.336072235086705
Pb 9.576503343642118 9.951143522919038 7.479617920307393
Pb 8.92825014290099 13.132402106492474 6.824178122138861
Pb 10.615323807263874 4.121026078340566 7.54534169142751
Pb 11.468366076168675 12.351708871729317 8.450455382732185
Pb 6.2941606418893095 11.485090057994018 7.653290755349646
Pb 12.42087053107423 9.294813957900644 9.182271381602265
Pb 8.313783865201566 12.86625754472205 9.940432061942971
Pb 10.414224947017935 6.563396148192585 9.527998559169077
Pb 7.9287610536298505 4.440853222611555 9.660112543841699
Pb 10.967733063443413 11.448690109620378 11.622843348085457
Pb 5.945456557338403 7.402273087038649 10.754799782803973
Pb 8.54445843756496 9.405373326360774 10.62702856409381
Pb 11.591798931350358 8.09552500525568 12.058600090824164
Pb 5.529267051922136 10.854647791241275 10.79596946897967
Pb 8.534910569082102 6.690007094850172 12.704948864435252
Pb 7.873792536185317 12.039693826877446 12.999183091402276
Pb 6.469305880501182 9.20423863979911 13.444227925828942
Pb 9.588694337476534 9.508389087176205 14.097994710567463
