39
Energy = -128.52286515 eV
Pb 6.6384318687942985 9.908496699433883 2.682850401402544
Pb 9.3205179631438 7.978086447927305 2.2564391591924355
Pb 6.370753701974084 6.886475177311057 1.4815616637690328
Pb 12.139014298689997 9.043323194580074 3.3774088319598112
Pb 9.5973262905438 11.09691087132143 3.7919940642941605
Pb 3.843172602401833 8.037646818938944 3.026200908359073
Pb 8.104567601426067 4.844518166342235 3.334993497594452
Pb 11.149461522190888 5.906202897199355 4.261665485026652
Pb 12.134071464479412 10.808342939912004 6.121314721271538
Pb 6.614195450163259 11.110499898391378 5.853178171801583
Pb 13.258279700140722 7.846246950066773 6.081248256279983
Pb 6.382141744160432 7.573115111591264 4.997834803714607
Pb 4.619194524828443 4.86703963344054 3.567241865020954
Pb 9.296149259535804 11.202676193667434 7.615542299816071
Pb 9.788031433291867 8.409444198564248 5.906836294620986
Pb 2.9580723826005286 6.7724698598756525 5.758857702896165
Pb 8.207663028519779 5.142729568494557 6.649608120802225
Pb 3.691713963553028 9.960968691238465 6.928813190939814
Pb 6.358345475349701 2.7399102507186375 5.259706882449512
Pb 6.513100342532675 9.437619381655205 8.684056752162274
Pb 11.386143914272116 5.6820602414710875 7.680054099927336
Pb 3.641072651058846 3.7493711502198934 6.7266214081878655
Pb 5.07395940757055 12.227381099628579 9.004055318854281
Pb 11.556867603670772 8.82557016635385 8.903030548098991
Pb 5.467436400126602 6.365174654968632 8.217486015560798
Pb 2.9221594669690547 10.237019498728937 10.095681432379063
Pb 2.313414959221306 7.371486511137712 8.860996903919672
Pb 6.32989432445503 3.0626021649467536 8.532096141096721
Pb 9.443274125900427 3.7795283184438646 9.862604528227351
Pb 8.789000625287839 6.998434240095821 9.876988106770366
Pb 5.588786062606104 10.648549451878312 11.865014344945928
Pb 11.961038737696263 5.923443784004932 10.871033537923164
Pb 8.808663818108387 10.29838902465337 10.86272952195336
Pb 3.631737186429427 4.369939782422302 10.003026411985047
Pb 4.30383433753816 7.5214498557266465 11.46476721695841
Pb 10.59944490917051 8.22329314085818 12.513830017525608
Pb 6.535883818930658 4.912656393448915 11.530082582564951
Pb 9.514870706640998 5.200989169366964 12.817444614223499
Pb 7.294802708012229 7.845535207115129 12.884263371741117
