35
Energy = -115.20645414 eV
Pb 9.391333831698534 8.208384639814833 3.629212951558325
Pb 12.02057156223848 7.876315640084676 5.460459414996677
Pb 10.355843685455174 5.107437599715666 4.292236611773124
Pb 9.820161586353255 11.265286295919474 5.871669034436444
Pb 11.290952824052205 10.861965605582117 8.7481856864353
Pb 8.97682598181453 13.302845120498032 8.284385694724596
Pb 6.346875521669802 8.67366558427724 5.085454340002814
Pb 6.744249908820539 6.047865804696551 3.1726907234537967
Pb 12.221114170249589 4.9880383321461075 6.859854708942782
Pb 9.214543110149316 6.959321623284725 6.775799736047084
Pb 6.642520490643461 12.289044943185075 6.346320028898038
Pb 11.987249973655196 7.5991778705005615 8.70422481449768
Pb 9.324676582779784 12.027267185562007 11.136111334546845
Pb 7.697253801002835 11.018255640698504 3.58892909703886
Pb 9.20928106383398 3.6055321961621907 7.039175827387503
Pb 8.06106736046661 9.937632191453329 8.69482125451834
Pb 10.024294484110687 8.744606698178016 11.250329793198452
Pb 4.531643803774018 9.946671446889253 7.471950422629819
Pb 7.156285278058844 9.995024076794996 12.316020732933511
Pb 9.640209886400651 5.5344585555532175 9.748526110952744
Pb 7.156856798022214 2.8555118100134336 4.062846394532722
Pb 3.5625966399910305 6.992060809317056 4.088478961929419
Pb 6.205101083696593 7.112477063486622 8.261651452341914
Pb 6.181462451393337 12.176583078017059 9.861504190645018
Pb 5.433389708280302 4.85900231245088 5.995270137859626
Pb 4.1954223133845145 4.009016646033509 2.8700326144960515
Pb 6.458298142439946 1.8021436423223722 7.205822194885645
Pb 7.084991070408872 6.87260075565858 11.445876956812247
Pb 2.9652787932144413 6.6533231231891286 7.471906113170082
Pb 4.644413432396676 8.920059544321102 10.4823762850713
Pb 6.577809450975811 3.9950085889181435 9.539797213081036
Pb 4.0683637278663145 1.7251981336840154 5.030301027382552
Pb 2.059144299186361 4.32402426747399 5.338601270161666
Pb 3.962895772079077 5.673168394707724 10.455721963561068
Pb 3.5039197828707174 3.190428616426188 8.128427656248018
