30
Energy = -96.81361757 eV
Pb 8.129307088754915 9.266299443947574 2.4401465596056613
Pb 7.529989175061751 12.067422397277815 3.604829413722705
Pb 5.646424704009763 7.050422817752069 3.162187585766636
Pb 7.681689198995395 5.117589196353344 4.9398377772799815
Pb 2.5597290915569264 7.929525028596465 4.040723559527756
Pb 4.964813733723439 10.178644898757126 3.7885567465109045
Pb 10.15246157186132 7.343680637996371 4.275424944094793
Pb 9.754873416463463 10.529691235825078 5.335920701731946
Pb 3.8573454965431164 5.216962649562691 5.451376183112266
Pb 7.353364188909772 8.416010874007101 5.643749100947929
Pb 10.036937125581101 2.9298850711402915 6.50833541995517
Pb 6.971343767593631 2.3013255787067832 6.568535329737024
Pb 1.2544931212559165 6.9227722025688285 6.909466481522884
Pb 9.808479086782471 6.082045346747572 7.439794128223123
Pb 4.293714780725961 8.087131143866188 6.7557921748246885
Pb 11.843872539673729 8.435551277202078 6.7927770615614
Pb 3.1708509439980754 5.07566954288738 8.632074881294228
Pb 6.628573157410053 11.463371676518236 6.584672662988037
Pb 8.348365314081727 2.528862776145832 9.300441479794062
Pb 12.284031443803084 6.752418965006529 9.647461752688654
Pb 6.8967145092168405 8.508740258588205 8.960226791365232
Pb 4.343551221809936 10.634385464251041 8.606808638360961
Pb 11.374591602387788 3.6514299249263447 9.265240529490642
Pb 9.958355074080508 9.254439450018129 9.456157657214746
Pb 6.484406300353426 5.246123356551052 8.028612195124172
Pb 9.020310081074173 5.724793989165598 10.517320016855065
Pb 2.7694782105292783 8.064604035895515 9.689633905961783
Pb 11.066373479150677 8.066841661397612 12.195446582296704
Pb 7.968972185364185 8.287165745345424 12.082343602038625
Pb 5.315844892295595 6.335449856043883 10.845362639450224
