31
Energy = -101.70706969 eV
Pb 8.213800519629139 11.939916160271824 5.031283851250573
Pb 9.594773681590762 11.468544333831051 7.9911782671379585
Pb 6.109352775438396 12.224950229772265 7.677723391462029
Pb 5.276547150318589 10.79448391704732 4.6185667194464415
Pb 10.504716644315026 9.565138455715388 5.198710342140417
Pb 7.667997052541093 9.058312592135032 3.312648240890864
Pb 7.633185372423499 12.387996975528047 10.696575442497025
Pb 4.921890204176503 7.5904347937265175 5.1038860964839206
Pb 4.4916502495802675 11.539307063285236 10.610827956499858
Pb 7.422631842957617 9.184329671575323 6.665269419794686
Pb 10.05966926267066 5.438281832028814 2.8793133490812215
Pb 10.941222654167278 8.330368756418371 8.507894802050355
Pb 3.983328967819374 9.64087469283318 7.78879611789892
Pb 6.8083598420168565 9.043193726096472 9.763253118979154
Pb 6.739287650863914 5.820480704846546 2.812286219770586
Pb 9.696938371732042 9.926379051903622 11.142537295002768
Pb 8.020295066985405 3.1203075375423266 3.9135574588262467
Pb 5.557434013390245 4.375310595623088 5.988609489557741
Pb 7.609682725332033 6.008432284938907 8.535142295106874
Pb 11.774238045660432 6.665405198179721 5.763831910618759
Pb 8.492060705593932 6.196690265678931 5.500894876344442
Pb 3.999912060939527 8.459869747407058 11.27189722444237
Pb 6.533644852672633 10.118317606678259 12.716003039443939
Pb 4.282128474017401 6.352290638720675 8.588259339735904
Pb 9.529398448943352 6.711066451406933 11.30327068447805
Pb 10.881083853485041 3.5673648740811963 5.385075867745657
Pb 10.835663832904643 4.888849234174398 8.604542357161662
Pb 5.564827683822754 3.505957623955085 9.506529231509635
Pb 8.20293931877553 2.8264668464919267 7.320255692622665
Pb 6.199047888786898 5.895555216204973 11.58384050316381
Pb 8.53952928772638 3.6229827613838665 10.605425041518831
