37
Energy = -121.7005821 eV
Pb 7.915503411559015 12.429889160303723 7.9631971438521605
Pb 4.370015447930639 12.978603412780783 9.436495912665716
Pb 8.846686823729279 10.86062826617487 10.924317233055422
Pb 9.074716261513759 12.215044741857122 4.75235867508353
Pb 11.133446294616917 11.772655992360617 7.281313051071997
Pb 4.988552898913854 12.329470462503414 6.2688075676041075
Pb 5.620122132766868 11.058837514617114 11.849932507175344
Pb 11.840996693798058 10.733368403820354 4.343088116750306
Pb 2.295814131666625 11.216369620343086 7.5938134881117465
Pb 5.381982938590653 9.964000255297414 8.693974138596799
Pb 7.177514058621506 9.768783233716904 5.586601672889024
Pb 2.494634073479901 10.588347160967842 10.702247650697958
Pb 6.824175423815749 7.165082166199808 3.2239318966720067
Pb 12.117354206620297 8.751785615472023 6.997764767987988
Pb 7.44902289230049 8.309459825957852 12.432013622406467
Pb 9.12561382734422 9.351002071371317 8.087041632010935
Pb 9.313493204448749 9.189718700448358 2.8487613355566874
Pb 10.879294455711626 8.277695718654046 10.621277419147615
Pb 4.030565877116056 9.20689576706539 5.673430260594895
Pb 9.190557788609617 7.034663614025632 5.458427448965825
Pb 9.767297577791158 5.670200347210353 8.457168598522637
Pb 2.6177101524397206 8.028474180745397 8.513655698022104
Pb 12.487517528427492 5.4364218487352405 10.30941226757656
Pb 4.110652882813173 7.988372561446575 11.661311657814107
Pb 9.714793723601758 5.976311579346413 2.252852781969268
Pb 6.914451490813896 7.049105548296463 9.52656638146983
Pb 12.082177106659374 7.5044703002162025 3.8790867114569165
Pb 9.479104402711135 5.543299553067731 11.879836273152996
Pb 12.162156055635897 3.574942826874394 7.731083555739604
Pb 7.798477095144223 4.230551602853705 4.325145749967423
Pb 5.862420272118582 5.403460748045375 12.331811750616753
Pb 6.307452682974431 4.635415482775183 7.219819628104901
Pb 10.98865765555921 4.289597714358821 4.731297056457568
Pb 4.204568391747815 5.263211996620315 9.537477005755134
Pb 9.063245642648807 2.6228356373109256 7.241927165679393
Pb 10.521921140063414 2.842395039318341 10.436845966383375
Pb 7.361218023676088 3.491464080259603 10.112536435040477
