38
Energy = -124.5104965 eV
Pb 9.834613491629664 3.456905031489529 13.493863177973868
Pb 8.599947397288314 6.370747610878082 13.348246889974186
Pb 7.784001210789543 9.941512927874378 12.464469165997778
Pb 6.729522745881299 7.067242898810477 10.401443293162075
Pb 6.789799607964522 13.334485957770232 11.85647605757331
Pb 8.162835623364678 4.090297119283317 10.836174620044005
Pb 5.736028855339736 10.847467273681497 10.14051508949953
Pb 9.905351815987144 12.197438299286647 11.710496609474646
Pb 3.417905063462325 7.750998944512853 9.197459557502446
Pb 11.05865150563413 8.82867966314159 12.592688664801246
Pb 11.938325488896293 5.854230622680813 13.34900474461639
Pb 4.939154048360156 5.13071754289641 8.091425622644334
Pb 11.56724039489738 3.711956073707281 10.861744188225112
Pb 9.987333792058724 6.85653826674962 10.248845910884667
Pb 8.786911501662813 10.053931735381333 9.267012884853758
Pb 8.996010073187083 14.986639470868925 10.464037600757509
Pb 1.2271101543799459 8.886706744671864 7.130308614808337
Pb 3.573031767195493 10.833461187687023 7.741870521221233
Pb 7.300640074828394 13.223047595482997 8.502909271987946
Pb 12.003632795799584 9.813326676346456 9.374779804319461
Pb 13.169588102298404 6.686481239164544 10.486130873220743
Pb 10.66904208374308 12.847782860616531 8.580868057504897
Pb 6.244585715645279 8.428246651261082 7.301516512992966
Pb 5.8309078114864334 11.529486078175658 5.675627401852529
Pb 8.126271039782859 5.306378222917787 7.68223446962415
Pb 3.6246847511562206 8.833186282081432 4.932851087573841
Pb 10.039878806628218 8.080256977131386 6.873645018893578
Pb 9.014767711919022 11.206225588876196 6.101185357061258
Pb 2.439976635519182 6.0541476319999115 6.429952686889914
Pb 11.62059572072771 5.273061297648325 7.855698012041
Pb 12.260200632061615 10.83759703386092 6.033768235967552
Pb 13.51955319137471 7.906866080485789 7.026030910711097
Pb 5.346304057390628 6.003874289899681 4.929836937262004
Pb 6.915310061350814 8.90090381941318 4.067702457819493
Pb 8.731605522207571 6.167567344704252 4.434034671004575
Pb 10.31663981357956 9.154111842081432 3.690009165228177
Pb 11.946517640265405 6.291667445288809 4.634690281339449
Pb 13.501969237140921 8.91227361407646 3.8468915155763854
