34
Energy = -112.24872129 eV
Pb 4.7830084732448945 10.225633414958354 4.3807959353191634
Pb 5.967708486100003 8.325943199067343 6.891887507400724
Pb 4.497579064446825 11.273417668130211 7.548270462288131
Pb 3.790646171247351 7.159497098697553 4.542615332244289
Pb 4.1212274119788495 9.45481606387077 10.2924743611881
Pb 7.5881701231196965 10.829685995349832 2.760832645388487
Pb 6.304458529768596 5.098483140176329 4.918365324605854
Pb 9.061796553472949 5.7723741258767065 3.3121565981407994
Pb 6.823854172396222 8.774165086299549 12.007494894618716
Pb 6.534876587788204 7.738772671684031 2.7515885187623925
Pb 2.3948605675754497 6.722104630483296 9.960820096982504
Pb 12.249828186028324 7.946725954919635 8.05474110926798
Pb 10.32859404543937 8.796907576849103 2.4923642391469323
Pb 10.239884676297631 11.617919918340387 4.264801320012609
Pb 9.199264855205733 4.0768895817261015 6.120923640457183
Pb 11.820769485992592 6.3477309574793415 5.1337433816081415
Pb 3.593894405605285 5.247735834723275 7.196692051368751
Pb 6.330003632598392 3.435553643910657 7.979892700508818
Pb 9.092888832185112 6.632457887621876 8.110480373772782
Pb 11.870956282704114 4.654039093752344 7.898973870916241
Pb 8.91255513485165 8.63925617655028 5.317115844189185
Pb 12.33195466574912 9.540227544970419 5.229207763637735
Pb 7.140896042391991 10.69521742574296 9.404657736472656
Pb 6.028176437838063 6.355563056737167 9.622262987683905
Pb 7.3683527872310774 11.790844260299878 6.005879609002122
Pb 11.29535036607479 6.096732069959163 10.728623896435334
Pb 2.6490696319010403 8.622487600049125 7.280400275373225
Pb 10.151665023692729 10.817630689040573 7.613454312263588
Pb 9.248994819912003 3.684683551372565 9.834914344496333
Pb 3.735430691922615 3.8718981420948086 10.223849789854714
Pb 6.49382163756076 3.4155220503712367 11.52659446332197
Pb 9.718587216352315 8.904794940859786 10.402847753137248
Pb 8.421283517634434 5.876939702431327 12.279120310811495
Pb 4.687296094594631 6.184481991560775 12.482073238244904
