35
Energy = -115.10388021 eV
Pb 4.687595016390511 12.06871048727598 9.390721398665738
Pb 7.979741017875493 11.822965282221487 9.720475227474285
Pb 7.062190082189058 9.768890136127556 11.909514881574156
Pb 3.7019045190511406 11.009151662994695 6.577434108530556
Pb 10.034203725453194 10.950686032079927 7.2298181837739275
Pb 4.572497178898165 7.798994297994479 11.499840634611646
Pb 2.754168643654788 9.454760219642498 9.430232468270223
Pb 6.826495066837167 12.11836067929453 6.684498585346661
Pb 1.8766874750125406 8.5178737393409 6.51250388001054
Pb 6.133761390488237 9.110913538730136 8.695198666053921
Pb 7.786247346339911 6.597968458464388 11.730211322376276
Pb 9.798186862642217 9.096309716520578 10.18832113279961
Pb 5.720153492852749 10.013881026889752 4.141128382515791
Pb 5.090388896754567 4.662876423030343 10.865392995815043
Pb 3.7874123669969397 6.3920786232322735 8.406588993221344
Pb 4.6887025311996915 7.321051158168539 5.523944711790965
Pb 8.213751555365604 8.35695765770311 5.966008783496943
Pb 7.33460744297713 5.746226871059639 8.390439227960394
Pb 5.616429385100512 2.7428622965782576 8.280625746617865
Pb 8.036057341037543 3.4024821961483007 10.564617362737982
Pb 10.341683960397845 5.863861573728762 9.849945328539707
Pb 8.69687053692817 11.32169777856089 4.18823534771669
Pb 4.000320910558516 2.881967432884643 5.226329960795706
Pb 11.366979714132487 7.8634427664102065 7.290849160435007
Pb 11.153494571998598 9.32949841423592 4.299999067591857
Pb 8.400049784190106 8.40155489721798 2.71172874949331
Pb 4.588540214327847 5.269887665504654 3.084488983152928
Pb 6.837502824376811 4.547268309216646 5.400867617577592
Pb 6.729948121807381 0.998324036919531 5.539990629385123
Pb 8.866680139281135 2.441755661585061 7.513360505228803
Pb 10.950410038235418 4.723873793444771 6.913609720043452
Pb 6.033135361046733 2.348655611403199 2.7689625356237277
Pb 10.3332020816777 6.224357318383602 4.157373252891662
Pb 7.7742708708332655 5.07505877062806 2.2103392205412855
Pb 9.099562930212905 2.639913886534018 3.99851768286426
