36
Energy = -118.29902287 eV
Pb 2.544001956160242 8.425187789045149 5.433306631024912
Pb 8.892336022749774 3.672562202773327 5.204183214588278
Pb 9.956613675129336 7.861275354679915 8.373808040366328
Pb 4.729552383844532 8.584526748949045 7.8895921186136695
Pb 7.406936843099592 11.902118218343748 10.430051641084479
Pb 7.000863424943868 6.036192186692469 6.4731818360404825
Pb 11.45061344774076 5.637560496340199 11.024069981936373
Pb 7.224191669700607 8.65869441097922 10.229493457677526
Pb 13.167716294312754 6.477980244304829 8.043182698673235
Pb 4.975197737303175 4.472669534013755 8.938772911181445
Pb 9.223349047333299 13.123747786811146 8.179336969768046
Pb 12.25673843543022 12.200022436171793 7.887026027214749
Pb 8.856492093606532 6.817740331744101 12.641931581600982
Pb 6.054188418850262 2.7564592177846015 6.483964135523043
Pb 10.292716233769427 11.748516591359625 5.44661341052836
Pb 3.7321623101423915 5.1820038077636745 5.874524687850104
Pb 9.010658355108015 8.801295827207607 5.302648388073522
Pb 5.92973517584666 4.213402252958565 3.6890888060570264
Pb 2.7517673672580285 9.555369022915244 10.569200374492054
Pb 5.292677424212257 7.340990733543311 3.920679024839235
Pb 7.326293011145928 10.606176497754381 7.297897830929617
Pb 11.488658166944917 8.67086650612027 12.378112212816752
Pb 1.8714493697430892 7.1836710835523405 8.448108469218734
Pb 8.377324886280249 6.291308865420543 3.2373966165374646
Pb 7.985468961648623 5.494602743414657 9.834624197869339
Pb 14.173321564950228 7.314897504548188 11.011509355472516
Pb 12.744528615590548 9.566280385824916 9.45369336384258
Pb 4.4996567132547485 6.9293189025034305 10.794800951228904
Pb 10.497877542976518 4.4955804294547566 8.126416007752589
Pb 4.330557914512638 11.850602637124858 9.024784438984893
Pb 4.324096916812471 11.248875352834467 5.8802656872369585
Pb 8.623684486014259 10.067821620286486 12.741239893153228
Pb 1.6973923772278208 10.478081484677565 7.697656696350926
Pb 10.968680443298894 6.253264440906278 5.472416136267627
Pb 10.773742418907588 11.843966458353917 10.890394851883443
Pb 12.376471296462187 9.279314133687285 6.207659479601242
