37
Energy = -122.18563295 eV
Pb 3.4640893349601494 7.253666891196769 5.614042728011708
Pb 4.018600063529407 6.100978870151156 10.15524069199369
Pb 4.680343826670951 4.913876860261221 3.6032305479579843
Pb 5.426617253063465 4.885341432727251 6.966232204987929
Pb 3.2042491818570897 7.795499583571464 12.90706627750711
Pb 4.307121728577962 7.896811885013182 2.5744037647277187
Pb 5.194998102625569 5.29432548618833 13.19441731547527
Pb 3.4179460921550353 9.486110634492338 10.050246116725367
Pb 4.859759678951952 10.143055666993348 4.9324537048632004
Pb 7.8501408495494145 2.747682322429826 7.513867026367889
Pb 7.595118280865245 3.6848150495929555 4.37640899042407
Pb 7.251380592437899 4.439470353183402 10.62014757259913
Pb 5.740844599902679 8.51997276264615 7.8649401920452355
Pb 6.147279736135288 8.202761372655534 14.501201540455215
Pb 6.860906054629081 7.229848123657096 4.752564976842744
Pb 7.130331674120135 6.433193669803617 1.6461367757123146
Pb 6.436833671469954 7.797151929903834 11.192822870636558
Pb 4.7673535116297385 10.650648221111606 12.828389248941786
Pb 8.779643892246291 9.541946163935167 9.172623016516727
Pb 8.320417624504497 5.893312668297914 13.480824947472438
Pb 6.8940784830664485 9.725783588455219 2.246725847232146
Pb 7.165911788150135 11.489430824186865 6.790153331866461
Pb 6.098760580118706 11.386721897338953 9.96403908842931
Pb 10.326428212368265 3.633703859704918 9.306633994074188
Pb 9.623775537788207 8.65141496847533 5.9419520477226415
Pb 8.377376459834036 6.116644579237454 7.912577062567967
Pb 7.970622446723484 10.226972345043592 12.46944339766748
Pb 9.977719417882833 5.416481524372058 3.0914539097578673
Pb 10.534321207531615 3.9730401697836557 5.9963271716194315
Pb 9.867517546623807 6.635042327020856 10.734637959014243
Pb 9.08863750667171 11.484048481357549 4.003457401600257
Pb 10.437861342958122 11.715902777333216 6.991221398413746
Pb 10.087185117356425 8.6243715216482 2.585906190926548
Pb 11.97206888837614 6.102180544680589 8.042834005785728
Pb 12.350647419164542 7.118375371672415 4.756012374833596
Pb 12.510756739201273 9.184945477165309 7.403886035974916
Pb 12.139064601501394 10.487114043415078 4.484655173454357
