39
Energy = -128.46862961 eV
Pb 11.98317987723217 12.190708312207702 8.718469541566593
Pb 11.660254202834931 8.971428454180302 9.97492783610767
Pb 11.558837114796214 9.681491242840986 6.677643173966637
Pb 9.006044818727505 11.456938937599654 5.617791156014214
Pb 14.526802141807332 7.987942859689227 11.032040823601806
Pb 11.483791090437165 6.490038053428158 6.3310255093875645
Pb 14.045321080100097 11.086011752400163 10.998402896407491
Pb 10.559787594163163 8.957350986863858 3.6303415229790614
Pb 12.814669316862913 5.528165881313089 9.165935917342699
Pb 12.641180686064658 5.83232561622336 12.4740208580805
Pb 8.63595300981524 11.252274815537387 2.4644554891495103
Pb 10.167595752215451 3.844251821283266 7.907759415889442
Pb 11.183339633589375 12.087690677679912 12.004584729961298
Pb 10.86929738207511 3.612834286696811 11.066177999158795
Pb 9.184407791212095 5.957421007903296 3.989537574049249
Pb 8.380118115918393 8.310917109845786 6.313974894789202
Pb 7.9857134179267275 8.21655243924307 1.826837749201331
Pb 12.321546047612339 9.104338367077643 13.202635607245005
Pb 6.203669073647483 10.104821716824963 4.056578810966097
Pb 9.342559067359923 6.778413796108381 9.217158293154023
Pb 6.095351014010286 6.883307228500055 4.082478340527131
Pb 7.766919983762666 4.063064869913466 10.226909481053784
Pb 8.867644113952998 10.93724951282699 9.293188956621185
Pb 9.038607182711717 9.394942270544322 12.301259220311149
Pb 9.365893701449037 6.021785692091584 12.64485312447401
Pb 5.865966386557336 11.139055943448094 7.355988092791691
Pb 9.687750268902512 14.11990066115864 9.962353440768394
Pb 7.289491859089338 5.1939280465457305 6.915608927460776
Pb 5.4348827710834335 7.916184469960646 8.216937728073411
Pb 6.509189912645355 7.009265634104346 11.279696513842959
Pb 7.995268645516914 12.501044841553735 12.36229284540107
Pb 6.599548142935137 13.287532215874565 9.635981264083142
Pb 3.426404149010202 8.84391858294327 5.719263586796836
Pb 4.319292030324892 5.064615381111278 9.33822806176246
Pb 5.843773453466024 10.220053624177313 10.81749587722195
Pb 2.9269476798777694 10.149515810111362 8.746157710734435
Pb 3.901046602794418 5.590938563678977 6.079707819985275
Pb 3.2617188573497278 7.786692344266001 10.942692556356954
Pb 1.9530402914881673 7.1278904335685365 8.111410914041585
