30
Energy = -97.67630863 eV
Pb 6.389735792387622 7.293319188103096 1.7126045503711236
Pb 10.714024409950953 4.747459829308526 4.046755828435764
Pb 4.433864902192592 5.391829238590385 3.178809931505301
Pb 9.201932837050455 7.611305543495769 3.2156936564930096
Pb 7.042307768983593 10.215706575621942 2.741128518219669
Pb 4.388100208133833 5.142041832810869 6.336652495749283
Pb 7.388660724787469 4.667704975164678 3.9444700888524515
Pb 12.404035055218202 6.0580290377577475 6.310893745455338
Pb 8.963102381509039 10.059608841358797 5.4386666045164604
Pb 6.2092656797658154 7.8382043061798266 4.963078120280137
Pb 10.672056075179567 3.3533764324151534 7.070978946394109
Pb 3.707746938154241 8.87266680646991 7.114338953743065
Pb 6.0160478162492135 6.078500834415027 9.024404107903724
Pb 5.6365135955785215 11.230788917635595 5.36822265649477
Pb 9.005554720017885 6.327808974579093 6.358248798262608
Pb 7.628250819397667 12.57100583959232 7.669526302655471
Pb 7.025531907302614 9.267062896692526 8.031150974422594
Pb 12.20981416307142 5.12749291577919 9.264913650229824
Pb 7.196248318560077 3.3614416490503776 7.223194875001699
Pb 10.58592359608388 7.913165545436055 8.522687510827375
Pb 4.55291019075335 11.812566167320245 8.397488563994798
Pb 9.100309391547544 5.055917159251553 9.682645725348365
Pb 4.015748788299308 3.0897919746270097 8.718221456390546
Pb 4.526976530366078 9.121479782103451 10.343522749323425
Pb 2.737553193524006 6.194890793548584 8.997828936189292
Pb 9.60466939661405 10.755422118936231 9.656787222459869
Pb 4.283361740575068 4.82491611458207 11.397005075188265
Pb 6.7318340088888595 11.543002083060713 10.747629178102077
Pb 6.731252634077488 3.0168138504983064 10.423696521271934
Pb 7.83356955120876 8.393582911044097 11.035657391346916
