35
Energy = -115.20520285 eV
Pb 3.915620079992965 10.087634776038406 4.4983720932358695
Pb 7.013318721954047 10.384325149754364 3.6354523738659013
Pb 5.863629970335411 7.126964284789636 4.015218055085481
Pb 7.394907840057133 4.192498173433825 3.264675098269973
Pb 9.051223123542961 7.002988703990966 2.765973362169897
Pb 5.502112237585811 12.4748988654895 5.813470179668851
Pb 3.6086181748418555 10.406688142759469 7.696843914102658
Pb 5.473255417138827 3.975797608530032 5.833464635110721
Pb 3.762266873662526 7.14274810583772 6.5205213562576265
Pb 8.776076173671253 12.463593379132893 6.373171481361872
Pb 10.502077522285372 4.177243033863003 3.671867562024277
Pb 6.49449472755598 9.355417124460377 6.6604011284047635
Pb 9.691173276025928 9.319216199446084 5.399603201613122
Pb 8.479937746833055 6.064774481471116 5.988812291140696
Pb 8.629396612149026 2.714363481561085 6.070543436687719
Pb 11.799212205421922 6.923621963246877 4.583174174235124
Pb 3.27684143803973 4.213569345141422 8.169711540612738
Pb 11.370466666649717 4.623776797264717 6.924098054004723
Pb 11.681562727154507 11.135148488678874 7.509391574413136
Pb 6.636295450828542 12.479785791557873 8.931716837612031
Pb 6.24795718434014 2.727863319728414 8.907920790834037
Pb 3.0834083019785616 7.031112876930709 9.875628039039807
Pb 6.155429670976547 6.077461310720089 8.763198119166208
Pb 9.065152922679156 9.403071031692475 8.806552980966234
Pb 9.516014103815921 3.3850578753936995 9.231169744967064
Pb 9.87453018278563 13.025309706939785 9.459247412051154
Pb 11.961234488701152 7.904301376785945 7.751324543696748
Pb 4.211600351329527 4.203664337339807 11.160960610241125
Pb 5.808964381258155 9.333500697145661 10.02061804001201
Pb 10.608785703822653 6.291346962766727 10.125704763967018
Pb 8.257091126718555 11.156384334237709 11.586976128689729
Pb 5.35065373251631 6.953132669688054 12.260128273938687
Pb 11.384699738252008 10.509434415058587 10.738627904628162
Pb 7.56628997188859 4.637143448028465 11.451180818270993
Pb 8.50023932248329 7.9204786244744305 11.846134343619857
