30
Energy = -97.87676204 eV
Pb 6.777641112807434 7.888619774003556 3.9821464587031796
Pb 6.733641374177064 6.966029094420016 7.0986662210348666
Pb 5.270237375558092 10.67583113718004 4.113988886413951
Pb 11.556601672840195 10.231044360653026 5.765842764725744
Pb 10.025468646533065 13.04659044644929 5.607578443646382
Pb 9.659902712366907 7.585873713463421 5.959405637286621
Pb 9.063033636093353 3.989946523528478 7.2061394068608715
Pb 8.67609783131809 10.474577822349293 4.182955146373746
Pb 4.172242055220293 8.269713979950565 5.885541254847422
Pb 8.680601276231323 13.999466973386541 8.320440896739735
Pb 5.725401506404171 3.99410453479802 7.473984269923015
Pb 11.692673703611057 5.304912781032721 8.256903400726788
Pb 9.134828000863843 6.9705991525585045 9.43276146521712
Pb 3.9324816713114363 11.22725595737418 7.034520552812135
Pb 6.70643376715676 12.892871786138244 5.99726934864868
Pb 7.6134607198170015 1.416390325167319 6.98641059355508
Pb 11.343714706018478 12.120866214883653 8.572644195529664
Pb 8.763769868387746 12.380417812900367 11.069493506306857
Pb 10.601855422795404 2.8471136295470445 10.083564408966009
Pb 4.913334000799077 8.833386191473213 9.120274257797371
Pb 6.276896284159368 5.703694422990873 10.30778207395951
Pb 5.945310270470538 12.275714641075059 9.306833698604859
Pb 11.836218838303866 8.627850337046581 8.524438224024191
Pb 8.593166794167807 10.537917274801591 7.895008676385248
Pb 8.696776662162115 7.226954105535594 12.671522491203595
Pb 7.285140699481602 2.540126032858387 9.916216074885096
Pb 11.363984755492247 5.671223172743221 11.556226625666788
Pb 7.0574110952029585 9.763640683377028 11.316961544187665
Pb 10.421320479122592 9.613398608278171 11.169074648936352
Pb 8.598493270782209 4.042008719690646 12.303545035687375
