38
Energy = -125.17256283 eV
Pb 5.118458338841251 4.68983641506258 13.107630848653713
Pb 7.3785602865112105 6.985565831231067 12.669281631079265
Pb 7.7450520181941735 3.864064475828337 11.506033696252743
Pb 8.255956915615181 9.782976925738563 10.721579468869923
Pb 4.008769782192217 7.730389084660004 12.546388663169935
Pb 4.829925317550203 3.141869326181531 10.191507485097812
Pb 2.441200113250428 5.073202084701412 11.37118041090384
Pb 11.045351198583415 9.233350744565897 8.955269136919343
Pb 9.223944236108148 6.4870758908002 9.873168498476037
Pb 5.705167517090113 6.264193406121747 9.98460573119346
Pb 4.5947887104891505 9.259586697037282 9.577418651335774
Pb 9.639279485938912 12.040652454494642 8.474556563792936
Pb 11.075061049803654 3.8133845556530446 8.518555920143081
Pb 12.737165960341974 6.496238310317184 7.939355175069954
Pb 1.9857017753902255 10.813006659907918 8.922032114701716
Pb 7.809358597054394 9.057548703813053 7.61493738673594
Pb 6.487595214474536 11.928875848580876 8.962393284058765
Pb 1.480363567206126 7.818697564240317 10.048300767647927
Pb 2.870496696113463 5.430998661887715 8.056813279079426
Pb 4.492739513135407 10.765753127073385 6.573398524382766
Pb 7.675106411408823 4.2683014634983625 8.089103502311529
Pb 10.336208165901445 10.102383061178617 5.824314747865987
Pb 12.824942566314473 4.113907480767356 5.68403118983099
Pb 9.934470964283383 6.074432971631366 6.360166934270608
Pb 2.1782699060362 8.33926701724093 6.968638584287658
Pb 5.22927738225324 7.342448873003326 6.403663862688078
Pb 12.378170961281718 7.137044387985153 4.571452392525536
Pb 7.685429766781679 11.988586096997102 5.876684127902135
Pb 9.869655895029586 2.6762379319454626 5.803361552267266
Pb 7.793294246951948 7.570772411143768 4.1727715161597505
Pb 5.355258143478584 9.610717943146938 3.4974386146060055
Pb 8.532255634116149 10.412898248245195 2.951026047290172
Pb 7.255372765784898 4.395642510778203 4.71390033640095
Pb 10.676847717453352 4.649882599912039 3.2995385344167576
Pb 10.139700840638696 7.7116492415073905 1.8788590931938227
Pb 4.92616021755391 6.529396610655294 2.8207441068259254
Pb 6.885344962332104 8.279834679979794 0.9301898464127882
Pb 7.766918800373499 5.347476682344753 1.6045387788877552
