39
Energy = -128.36191853 eV
Pb 11.803576166891402 6.473816237147462 7.940565633167005
Pb 11.823251825832193 10.797702766767436 7.082117038189087
Pb 11.358817644459638 3.79080928538537 9.65801778313395
Pb 11.175417981651773 9.277722645527607 9.759041744140715
Pb 10.888464006537555 6.3464408754980095 4.719099412458409
Pb 10.6989799364077 3.371335082060236 6.3471261134818695
Pb 10.654985840951223 6.4572152394166356 11.44474804715805
Pb 10.678434180691585 10.067540776521598 4.173132906816266
Pb 9.48478913152296 12.27828982542405 9.202632079903998
Pb 9.304447455711054 12.475704912054635 5.90640722615123
Pb 9.433409553811252 8.553824091293638 6.76475554668098
Pb 8.38936652252285 2.2908199153264026 8.696140819955467
Pb 8.609823291482979 5.681363524469481 9.00714633571315
Pb 8.852706398005186 3.591774789794608 11.65439943535047
Pb 9.190086829180698 3.731641946504507 3.4069158324939246
Pb 7.775746984889387 9.091869280126126 9.600037017384
Pb 8.414408820931833 8.006697986089145 2.7897641894398535
Pb 7.656812531211016 11.223520745738135 3.3370003525598206
Pb 7.894732250375864 1.7888340975502242 5.633825845319729
Pb 9.308734243268272 10.645413765992094 12.091376166425189
Pb 5.483744925536258 6.684467383947449 7.982116705579032
Pb 6.552129098957589 11.849176489431985 7.612098653704681
Pb 7.762893640333356 5.450023608517982 5.634472934093856
Pb 5.323345917385161 9.616778964844857 1.9882607746952121
Pb 5.5001735276598 6.5274944580473875 2.7621272615880517
Pb 7.566877441509672 6.472848569662951 12.243896289874135
Pb 5.193818218703333 3.0922350899805218 7.206154086906759
Pb 6.356989890376348 8.714935581976775 5.253190844159301
Pb 5.8522402590147315 3.541223539149733 3.910986076317623
Pb 5.768889705418685 4.180415120746454 10.368247086923185
Pb 6.689636881403346 12.133301714652397 10.80167123327422
Pb 6.230994460558854 9.431840427363001 12.428264137305202
Pb 4.55355082110884 9.872720754291532 9.31221475530248
Pb 3.3656413642688943 5.504372985703999 5.676781947553327
Pb 4.65120958519379 11.275851248641544 4.732372278415242
Pb 4.155728057557454 7.043269154237498 10.940255030786933
Pb 3.2108304715662612 8.458428627468145 4.207009771591514
Pb 2.736107478337715 4.83897221667797 8.859223445087324
Pb 2.382441169086802 7.763442172571302 7.835419240757681
