30
Energy = -98.81290658 eV
Pb 6.77446849714082 2.0288820068502877 10.277439728947108
Pb 5.782654648879052 5.073081565962057 10.514537011530384
Pb 4.116717760365018 7.689167290894857 9.665135004381014
Pb 7.475791961832155 7.886413487474199 9.300532624870455
Pb 3.633549982437807 2.6093392196700624 9.647193159505564
Pb 8.77493132155092 4.354670361548771 9.02218576752869
Pb 5.21980163501452 10.239897884527736 8.30302823698455
Pb 5.262334515072498 0.370250226964927 7.937190861897153
Pb 2.6372740920749864 5.293372050905508 8.045380798152367
Pb 8.384810280438517 1.224662889747236 7.647837765402998
Pb 7.986935429893414 10.006879536885663 6.774340038923261
Pb 2.810453548895038 8.410617411051312 6.61997469233898
Pb 5.977291236620199 3.8667779610999453 7.344276650870849
Pb 5.869716325258118 7.330043293183624 6.505512894747248
Pb 9.222187798151786 6.909344605449591 6.6797095242764035
Pb 3.2409539493920825 2.3516725671233423 6.2548482026364915
Pb 8.927906742235193 3.618356182311413 5.5366491671873765
Pb 5.181711522688992 10.208496180141866 5.018320695341742
Pb 6.344995170266743 1.4526698289194684 5.010305112503713
Pb 2.053247926886616 5.354324492851212 4.9278302713142965
Pb 7.9982332479138 9.1090496832425 3.5682555809018592
Pb 2.5502764931841186 8.163031386821089 3.0243062384586517
Pb 5.073429242602192 6.125634609797269 3.4696175486595244
Pb 9.1751049579232 6.071541009814462 3.5690201265551504
Pb 3.9807194863645194 3.00185839165895 3.0692031201251315
Pb 7.098868967928449 3.7697893287561155 2.538362613309914
Pb 5.330760056011045 9.483261429442761 1.7571991959498774
Pb 2.0563166028376436 5.170450084447289 1.755372724412919
Pb 7.355155788945469 6.92603214037086 1.068566966296194
Pb 4.202718184987949 6.8697432658784825 0.3556326497832567
