38
Energy = -124.18605978 eV
Pb 13.354664025980284 12.547216814131465 6.752766727659577
Pb 11.72059846288077 10.166224495913577 5.496973319345322
Pb 13.256973805757971 9.819849546051076 8.55921402972935
Pb 11.29834958496489 6.972163729793869 6.574601903873219
Pb 10.123582390259807 8.061638427681697 3.1392797704315374
Pb 12.18851308493536 12.774826379695677 9.616188030229019
Pb 10.199256161692048 13.07721550548397 6.976494057529588
Pb 11.980662984710326 7.012582824664119 9.812710920138315
Pb 8.42119773168434 5.826982694606619 1.6365829432439565
Pb 9.548365195204262 4.935140274013538 4.472528182279185
Pb 8.705542569535908 10.882182064630134 4.5162064632339245
Pb 9.859355767330735 9.78702534143794 8.214933462085197
Pb 11.207197194721667 10.04057798871994 11.24525591681903
Pb 10.406527546737584 3.8482396065949693 7.68736677424024
Pb 10.716357717977656 4.299918144756829 10.99542568945031
Pb 6.243878203411509 5.393038127852185 3.9610422172268915
Pb 6.927457491791048 8.50485554156482 2.6305554905287654
Pb 9.04117280945684 12.323224880416854 10.191705965061093
Pb 7.027984420912798 12.125122682736523 7.393810220400764
Pb 8.816341170380824 6.427466668051866 9.05195916056961
Pb 5.5611053698219814 10.88806869523623 4.857128950382308
Pb 7.986736686058081 7.8026980990331625 5.73787870459093
Pb 8.077320992551876 3.1514675457297385 9.854458363768883
Pb 7.605847421917288 9.539713236621942 11.748413420866996
Pb 7.2858202518606605 3.471402485860829 6.541058673146991
Pb 6.35950825542524 8.876494378588195 8.58730874976788
Pb 9.689868125734135 7.037994396021997 12.243668668740318
Pb 4.685504326701967 7.901406153889714 5.5461103656461335
Pb 6.379006071786527 6.908671515475564 13.055764992480498
Pb 5.665117523881642 11.836347492355394 10.357907643701456
Pb 4.293410927271939 4.980601851084195 6.8771489373740815
Pb 5.7237607523651475 5.688604617891862 9.981614537308085
Pb 3.9404942327778962 10.794424877051325 7.776278231429999
Pb 4.396262008356903 8.994860802458227 11.47857455577214
Pb 3.1169289163483502 7.516070123818376 8.802706071447318
Pb 5.194459512079557 2.4936900485174447 8.843974606842712
Pb 3.364435187733307 6.037508517977069 12.189031928192806
Pb 2.6950295565956477 4.319077863186773 9.659965794060827
