37
Energy = -121.73923606 eV
Pb 12.251251257019074 7.765196771393354 4.631717155288739
Pb 12.161026343132203 6.58949565866799 7.843552371979517
Pb 9.982110410674583 5.640075752144688 5.491634478378298
Pb 13.201466050403463 9.648238857238761 7.052098454396584
Pb 11.373463575183134 10.990315625833933 4.647843993280915
Pb 7.090720846971286 5.601449944220324 4.0024132927684635
Pb 9.415894197990353 8.172588819429734 3.1779765156229933
Pb 9.667206605612442 4.520710967702918 8.666067402353487
Pb 12.980538582775576 9.001161316753421 10.288969445372762
Pb 11.080970897465292 11.442186094058734 8.712670705737931
Pb 12.101929371782703 5.924841881570002 11.110146470996463
Pb 9.706213731489726 8.974885760685735 6.555737093408517
Pb 9.427008306831771 7.90266763045255 9.95707432530296
Pb 7.274405067673608 3.4291748413787255 6.548230377639118
Pb 8.33118064739046 11.11950233222026 3.698162482827916
Pb 8.705262704948865 12.71788966557952 6.628384126371697
Pb 11.274398603450763 5.611375468097842 14.130967703983373
Pb 10.497528348338356 10.549700609851158 11.911124501283782
Pb 6.223736767409523 8.710448940386097 4.201061278377938
Pb 12.48245712798062 8.39026247904687 13.377501537024909
Pb 5.586359209978718 11.810831353143373 5.223709381063126
Pb 7.01356918006405 6.779869653092438 7.4054802026503985
Pb 6.626676561999485 10.329285287972615 8.092114514957709
Pb 4.439829292936191 5.090364441600146 5.731008590441924
Pb 4.344158168291127 2.6549941444416563 7.672325445887095
Pb 8.922950726775904 5.0485559285716946 11.811338240038808
Pb 6.555587635607469 3.6083407306966215 9.763980712668769
Pb 4.131415990022769 8.353632683773016 6.6820412733131676
Pb 3.4752785471113974 11.580310779045405 7.757726048986358
Pb 8.28015291212985 12.658039921685404 9.995177708151889
Pb 9.179944342549584 7.911560278411003 13.355267787158228
Pb 5.867076082046949 13.77094961376568 7.854175601779747
Pb 4.0205923199644875 5.5952259707010645 8.93534749668673
Pb 6.273989295056044 6.842685333459883 11.077828636956149
Pb 4.062423564454291 9.090833559874707 9.884711227930348
Pb 4.951724854264002 12.193028080059486 10.551752932203573
Pb 7.0677988761343675 10.007619826903706 11.600977490640592
