37
Energy = -121.85037567 eV
Pb 9.07808368592499 6.014050778752952 13.094979650156375
Pb 10.97140103907177 8.097771305532602 14.698627761048552
Pb 7.657711727770315 8.768875155309807 14.15304655748205
Pb 9.531042643399713 5.821322351656505 9.72941885919466
Pb 12.111356978294074 6.7745682798886255 11.975716150265367
Pb 6.598465874999745 6.830848746389418 10.958683332903234
Pb 9.9733705610197 11.086642264741407 14.266930251246563
Pb 7.0655980031458645 3.8532307766988687 8.790936005656713
Pb 12.543858071396945 9.966808638096131 12.48297932374402
Pb 5.121745315555877 9.50097832307204 11.981025221916132
Pb 8.629313430352232 4.158058316329079 6.048397202198612
Pb 9.600292519018716 8.885707334258466 11.47442718582596
Pb 11.866968591196688 5.593064809029268 7.512955023649477
Pb 4.299061962317041 5.484372047591003 8.551298322484868
Pb 7.225374295526521 11.877728113431992 12.505049189045373
Pb 7.187465334387434 6.982523292861443 7.530994935907313
Pb 13.335052290418302 7.961068253738177 9.004865806813546
Pb 5.465697602917093 4.415552142144303 5.842001634112598
Pb 3.9487198232822838 8.632164851259358 9.103829307469162
Pb 10.430601883046467 8.749642404619998 7.686133822170137
Pb 10.775833206199806 5.813510215239647 4.488518189408913
Pb 14.878833459385298 10.068562808965558 7.114041074767411
Pb 10.298393976586867 12.375012473162212 11.250428781762784
Pb 7.339246593194123 10.140637223828254 9.26112610948836
Pb 7.33910440867565 6.6373994165289085 4.232431249428565
Pb 12.515852990930465 11.121284195991262 9.075756872365327
Pb 4.692766715570188 11.962331057591914 9.790152359758183
Pb 4.313750719400906 7.573315092455615 5.797493776714549
Pb 13.11910071577514 7.9206570199460655 5.5712003019340655
Pb 4.182065630914814 10.750005957952116 6.675768483261409
Pb 6.669303192821297 9.860560519193706 4.797260739418784
Pb 10.031679465005821 8.877665545345616 4.35101701248227
Pb 12.210533488273427 11.147845066855137 5.733239869542732
Pb 7.586054550392217 13.546033478057325 9.78801279187022
Pb 10.068934699464899 12.82615117163521 7.77178800080703
Pb 9.186643633907453 11.92308699942674 4.71188293817252
Pb 6.7557182236871 12.60596087564993 6.802583208753312
