38
Energy = -125.81622286 eV
Pb 8.061154150814078 13.290098439765611 7.432156151915206
Pb 4.871324668537023 13.91551431247423 7.651509867986636
Pb 6.236308992384326 12.030615106800994 10.023294389814954
Pb 9.534743632749935 10.847221498508906 10.636735586866486
Pb 6.11379312701467 13.334753652784451 4.732381825506324
Pb 3.073542502700674 11.568397650276168 8.859498433328858
Pb 10.757434651063495 8.147963717770173 12.10117068894044
Pb 8.553020358642097 11.277014698739928 4.704615654646385
Pb 5.992498905965411 10.643279511729709 7.190664954075015
Pb 3.2653075313719366 11.936398114428107 5.597272706278587
Pb 7.468504266858218 8.506943258023266 11.77468951645112
Pb 12.33075682448884 9.433106972857042 9.753606863912017
Pb 10.3711725161217 10.83776969882875 7.404118667197845
Pb 9.132992549937999 8.022651533680337 8.939092040871943
Pb 8.019567627867614 8.181818447085169 5.776998038715945
Pb 10.533074126600496 7.0949177355530315 3.9149941489806204
Pb 11.828590183911507 6.210233809238726 9.638432888598489
Pb 4.573624654934887 8.981996727161864 10.269789801242304
Pb 11.805133633149087 7.959572678894033 6.790384810456238
Pb 2.447519407265491 6.576938857237556 9.80810177123115
Pb 5.538552605454903 10.087608996552621 4.056791671036071
Pb 3.1073734187862674 8.658639511296387 7.111781561524611
Pb 8.934928755672713 5.517707132049886 11.134386488953716
Pb 5.3043577981760786 5.743620847516067 11.301402599270773
Pb 5.685439705927113 6.587513927155757 8.038918846941439
Pb 12.111522082708563 4.714111423593215 5.848358719962679
Pb 7.603951763111266 5.719161764856495 3.2497247702335166
Pb 8.759730555305552 4.762107525856821 6.105684404113253
Pb 2.5524596641020936 5.3730264592682335 6.8428244363598205
Pb 4.796165371043369 6.836762087128498 4.82305242814972
Pb 10.366226082188136 3.2315546374042263 8.401909098269899
Pb 10.523881287544876 4.055594225159905 2.988263217840729
Pb 3.7727616688514236 3.658498466200612 9.2279402304946
Pb 7.018860513986881 3.5792402807419053 9.295791299025646
Pb 5.398890110578899 3.7514133049766873 6.161751584272628
Pb 10.57004168381042 1.8813000704286522 5.356027573669821
Pb 7.761917583354292 2.4606803273495164 3.7780768209759885
Pb 7.8209561330897115 1.488259635105386 6.919866508125624
