32
Energy = -105.70008505 eV
Pb 3.393166453463289 9.636240227190786 10.569238850344165
Pb 6.545145779757685 10.325061446183991 11.710835570640302
Pb 5.108325481163706 11.91286123320314 9.233449759657955
Pb 3.693184688650522 9.535811229254412 7.185832701207589
Pb 3.4639738837556617 6.757014953007512 8.900951748447694
Pb 4.90564584525982 7.31643139728766 12.008898373820529
Pb 6.256124039681245 8.628529995748753 9.085348462736704
Pb 8.41617796170496 12.32097318795238 9.147149472548984
Pb 10.14477675041526 10.059177129631584 10.882701347370968
Pb 8.19496400780695 7.261868727522463 11.697441269605752
Pb 6.5623590102394 11.622525966532395 6.330856903832491
Pb 5.016011399589888 4.44249830339406 7.072298665592758
Pb 4.156644966282753 6.563196150755217 4.748067507608409
Pb 5.930510215149039 4.788481169737824 10.179810855430057
Pb 9.684592298026306 12.158503685515146 5.921015943023012
Pb 11.639547471908294 11.76000054808617 8.303054327229507
Pb 5.156642276282395 9.560857600519324 4.0931151161184225
Pb 8.86796934627673 5.998998827687711 8.30598808808029
Pb 8.993796059792912 4.036649342465983 11.112581247338394
Pb 11.638610347462576 9.441166611481984 5.754446724389429
Pb 12.720409465834592 8.945950668618766 8.95677471307964
Pb 11.375367683102962 6.393987373742356 10.519390926788391
Pb 6.925215268713701 7.502372879434675 5.981315780074625
Pb 6.8943446969776305 4.517129824726979 4.362912482911465
Pb 8.475551265561585 9.66674575768256 3.9153586479261455
Pb 11.212679950181665 3.5756760526249116 8.902862611537167
Pb 9.360417063890626 9.364843974437125 7.856776595495082
Pb 7.945091643641521 2.9294238762173803 8.181580043246504
Pb 6.68238047000824 7.122078022432643 2.571385428893905
Pb 12.22656473348907 6.166930881267999 7.299444850737108
Pb 10.001116142720093 3.9525338319741805 5.884602585025491
Pb 9.571347098470248 6.641631295764234 4.063427149291751
