35
Energy = -111.56136387 eV
Pb 2.4341444498098452 10.793109952818948 9.095710993120612
Pb 4.70042090684127 8.580719021061347 8.797178880478906
Pb 9.763767721667945 9.64168138975846 4.329323607796152
Pb 8.818266462491584 8.591021691899204 13.263611241468595
Pb 4.359039169798808 8.721835578210365 3.7077547775814192
Pb 7.281908173202568 6.183079968151779 9.049936761993767
Pb 6.270726783215379 12.55238507225082 12.048785034172091
Pb 8.873057256491913 2.3055889913021215 6.200554052759531
Pb 4.166542592199837 10.079656117478853 11.812714157694943
Pb 8.392250642663662 12.616894264832618 9.232594858244825
Pb 11.853664186993953 9.321301417040392 12.196782798516978
Pb 6.976507024847975 9.951474499807524 2.960552970267678
Pb 10.111373639821116 6.725942373309463 5.813810885303521
Pb 7.30211658007127 11.509383720307964 5.748171461396026
Pb 12.72210749847419 6.391339374723213 8.31845575988673
Pb 4.2334197598392524 10.66291492810321 6.184353394015124
Pb 7.194354579644267 3.034517012306677 8.861128852311259
Pb 10.098330202246279 7.139753016060749 10.438862395234814
Pb 7.075274913071711 6.175123993052903 12.20145689758122
Pb 13.64235440945927 9.126761897902231 9.620176669225645
Pb 7.17558846246736 9.668617409889809 10.653402858187283
Pb 8.963417854060616 9.432012565390297 7.908081899881241
Pb 11.640762990378795 11.590962401646744 9.416471482582375
Pb 9.167540597348458 4.111051777972921 11.129990461031156
Pb 10.106461249462624 4.551087367593755 8.103610279854719
Pb 13.190145891690543 6.270933396787695 5.25004236431171
Pb 3.252562458099963 13.106590136678047 11.155715988241067
Pb 6.684958559267425 8.206884257042914 5.832967217026716
Pb 10.765489143261568 0.9712821863116163 4.342518199263228
Pb 10.658914314847067 10.627897219626368 14.719219703698759
Pb 11.814291887994811 3.540101709994919 5.3653635438016964
Pb 9.719985104983493 11.992365254840745 12.140684446149976
Pb 12.188040800396884 9.400481317872911 6.771622113903762
Pb 5.29297886558362 12.222624856586505 8.864498790083505
Pb 10.360056515897668 12.180865829531374 6.423153271721021
