37
Energy = -121.54851192 eV
Pb 2.9381415428945084 9.62315560036104 10.892986236954078
Pb 1.734405123940898 6.953597374465162 9.472472024695808
Pb 2.9700590106546803 9.51739743633995 7.58311664424981
Pb 5.357478393272414 11.298875233437947 9.475345362629243
Pb 5.06877138196753 11.722272274195838 6.187994016934175
Pb 3.7082956726700425 6.67679088761986 12.018818182250348
Pb 3.134245157785435 6.298485397384228 6.7166387687529285
Pb 5.982167234444804 9.489231795006539 12.34630893017886
Pb 8.092917035346064 12.03768183774773 7.953358438835066
Pb 4.269320108761013 9.061199495000292 4.400910959177731
Pb 5.237129057570799 7.6234775395418275 9.256389964466639
Pb 7.55533787086987 13.469771717372348 5.204326626581989
Pb 4.033484338664421 4.613648895428101 9.571084151116363
Pb 7.223312452606758 10.816631552948927 3.6343698742702717
Pb 5.389552132721315 5.863736627472022 4.446687203979808
Pb 8.777495395249293 11.066992333303281 11.040496602859477
Pb 7.064160071173874 8.374691273369411 6.1169844642921865
Pb 6.93261576372188 6.3316453340135626 12.639666046211993
Pb 8.509803680107872 7.982353769462035 10.114176717523991
Pb 10.114289154081348 11.435058429429619 5.412539804020275
Pb 6.901908073825988 7.888207812574376 2.581369720445688
Pb 6.433473938619065 4.75439018045563 7.2824777057431875
Pb 8.315737452090977 4.677633880166022 9.889448482894712
Pb 9.870805939623326 8.566698132835189 3.7835773162176296
Pb 10.92790806360962 10.390198283378734 8.432285567714175
Pb 10.160622488273907 5.963401584788638 12.509675987187789
Pb 10.109740364761263 7.386958980776056 7.187995117666126
Pb 9.062046615794234 8.808493530686963 13.397776175468833
Pb 8.61941348702403 5.683733297018023 4.580973000342247
Pb 11.508807800679023 8.708686716356532 11.247881408976994
Pb 11.732000114188976 5.10973589065923 9.886442234602383
Pb 10.252637813000126 4.102510971268961 7.091523840299217
Pb 12.639215898231422 8.95575030279605 5.683048151753997
Pb 12.203617611969868 5.794695562766868 5.059490908472972
Pb 13.394181287791943 7.382196236845948 8.392802132485649
Pb 13.655077190296147 4.135141533284578 7.524734455162763
Pb 15.123200833000373 6.438247850728408 5.987202325869549
