33
Energy = -107.61288874 eV
Pb 5.178175625715661 10.688741094405978 5.9385586871793885
Pb 6.156114370752161 9.462453142207147 12.020388640924299
Pb 6.545044493700695 11.502190795187985 8.61580512948182
Pb 7.205986660668274 10.81249233928481 3.4369485060829574
Pb 9.391515518847099 7.3157160193582165 15.594655567775522
Pb 4.219522552490252 7.507749147007006 10.160447224859828
Pb 6.440178588410469 7.4987907782554455 14.524469976552401
Pb 7.110482238631829 8.360265086691111 8.81596442114499
Pb 4.529176395516119 7.309805431822975 6.980719064842268
Pb 14.363213294286592 9.928221298180773 9.421857103659834
Pb 9.041966373445792 7.6539876583580675 12.405955934299497
Pb 13.023030783155656 11.88016442040692 5.5817433494823305
Pb 6.42344437524401 5.759399187507802 11.754111060847055
Pb 11.081411590875527 8.838442647118976 9.87911539561829
Pb 8.82482299493625 5.6803582912860735 9.504598848961704
Pb 10.785636871370517 14.104459346112169 6.109038584521034
Pb 7.597826780119266 6.082225475176307 6.443286590772824
Pb 9.318290564173854 8.547130950005387 4.774821559638231
Pb 7.5584046112831205 13.224460066697905 5.758410346188831
Pb 5.589231134667764 4.851075281998901 8.782664612529098
Pb 6.1273761177765405 8.032120278849606 4.325097545986607
Pb 9.030999241679915 13.489892007377982 8.770648556958749
Pb 10.149240472562084 11.70352239439743 4.0398101415210625
Pb 12.057557797901566 12.210915961051182 8.587787210717423
Pb 13.640918085888803 8.142985510998674 12.0282870964472
Pb 9.094599000069357 10.936882146463256 11.868170865992283
Pb 11.677122412615297 5.816284250012498 10.990281129640403
Pb 13.80961388685851 6.956460298219715 8.849613772476017
Pb 11.062039043436938 9.595125689385478 14.19699375010795
Pb 12.469836275479063 11.230585694159933 11.787922716078945
Pb 8.029272267974592 10.263564209589147 14.924245125159885
Pb 9.380435456920411 10.634332591574958 7.22479179971625
Pb 12.254318556735074 9.015130822283796 6.789310330655546
