31
Energy = -100.6711186 eV
Pb 4.570364866535955 5.46325369119357 8.25159113832372
Pb 4.015896945077472 5.843195834858794 4.977221046327055
Pb 9.36444059313476 9.691704906536483 10.948836786457067
Pb 9.43251845978191 9.439390118456082 3.530184086465814
Pb 11.619220963333284 11.879125669541155 12.087938684966517
Pb 10.113300166444628 7.53721748339011 13.584804080972146
Pb 6.837995212056404 10.460134447192653 5.095136641515025
Pb 9.27313654243333 10.886659110522107 14.252088841900864
Pb 10.12315729733259 6.382114918187702 10.277493199506132
Pb 7.0082923375586805 8.719239234635964 13.141636220224907
Pb 11.55934467864509 10.949793753795879 8.665003179228952
Pb 4.221470590753455 8.920678902399857 3.887395041187006
Pb 7.8495979332002195 5.603648441563781 12.47169140958285
Pb 7.080270168990564 7.130918231990785 4.154181041793
Pb 6.272501250969509 10.683043715146155 10.573977187347712
Pb 9.12203808452341 8.844066899840227 7.287987153867744
Pb 8.396013984172823 11.781245315454829 8.513536066611032
Pb 6.757731366358185 4.436536430083732 6.029892060558557
Pb 8.608106314749866 12.834331069854185 11.754978418861107
Pb 12.27768388378404 9.68189995011336 14.248690241031692
Pb 11.905100746013499 10.011903223431814 5.461313553620554
Pb 13.935704167540365 7.626053048592474 5.298400422315717
Pb 2.4960239304401957 8.18243725552894 6.528932122522794
Pb 9.66547787042307 5.476775017753688 6.95483686785658
Pb 12.133827243162369 7.6769677979635516 7.870973442565953
Pb 12.484676254107715 8.728744778501294 11.143632277105358
Pb 6.963903394756705 7.478305126798989 9.966540736110044
Pb 7.674475944471459 4.281590114393256 9.143408440427596
Pb 11.097871321589157 6.948174596815543 4.405646825357312
Pb 4.117708600410963 10.866231036672168 6.629079494213011
Pb 5.715924401926564 8.129050622083387 7.013671299422855
