33
Energy = -107.0535094 eV
Pb 6.520462061983822 11.311879582398749 12.33961509508666
Pb 11.788866610242948 4.743515227969297 5.528129330789794
Pb 10.13678189262096 12.352324340335686 13.553111895307156
Pb 9.00867767408268 9.400258707737304 13.690416483190418
Pb 10.909744825253702 10.113010223524439 11.030039964350891
Pb 11.200074740679506 7.441349012927527 15.02334088351816
Pb 4.373513196963782 8.921093597330913 11.606750105337008
Pb 8.894216663200156 6.2351051872615395 5.283151125433891
Pb 11.285284262485906 10.306133239097212 4.833569790742797
Pb 10.559708713230787 7.0232109610395685 11.92568264523588
Pb 8.245777530159112 11.908286243156716 9.44138549867453
Pb 13.382927659531955 4.765586510074331 8.224559834346374
Pb 8.754581631320375 8.840268901544098 3.3458663700235705
Pb 7.584128997805601 8.788197413364083 10.548268355647973
Pb 13.307503442251305 7.5819622631278705 9.816821561129457
Pb 11.459290977913744 7.2368592225248305 3.5139206702101142
Pb 4.415511412250176 7.890694874753791 8.576427056916275
Pb 12.005971781644146 10.419435198199473 15.42319932430696
Pb 3.399268469463791 11.970297735668222 11.344242549770623
Pb 10.492123551303383 12.618820664281216 7.231018785296393
Pb 5.102192387380599 10.995796224678699 8.834210284434867
Pb 8.176516341023307 11.405379728688256 5.312075616637331
Pb 13.209211768830766 11.84416858383467 12.71824868663246
Pb 9.315642776097201 9.319571484247431 7.603956053745785
Pb 11.1581570505529 13.369342197979165 10.517607972596455
Pb 12.510767140124733 10.275035375607043 8.245308521316383
Pb 13.133489026407805 7.608313229269237 6.356219319523631
Pb 2.1318989756626157 9.819054074981981 9.485347066395118
Pb 10.629489996526313 6.159524502739685 8.375823139593258
Pb 7.372875400204784 6.463960969042748 8.158719122982157
Pb 13.360676763112988 8.630516749217568 13.003117756489445
Pb 6.523818305061831 8.746279176938959 5.964308784825045
Pb 8.225615779037994 14.069536400869744 11.720308153924758
