36
Energy = -118.71530402 eV
Pb 5.8297139310971975 7.316824461021225 12.291258076102462
Pb 3.86624276110403 9.634325061987797 10.841303851328965
Pb 9.340439463903797 7.647986438500848 7.421316070800897
Pb 2.3038108872431655 5.957686711339135 6.952664888285458
Pb 6.468260665753 12.202593034479417 6.7963880354946165
Pb 8.535933778692874 6.089819759600722 4.586941504261066
Pb 8.200965023125779 8.866597543756894 10.284695155255948
Pb 6.165580096519411 6.905573291680684 2.3832505607836714
Pb 4.085375264968026 10.339872281313642 5.4895388392109234
Pb 9.493436932388896 4.508083825699889 8.510672338349416
Pb 11.392895593943118 9.77990989512245 8.969894320386315
Pb 11.148851005639406 8.360980813650292 4.597405884196935
Pb 11.032886665888359 7.007119446276231 10.6688890267173
Pb 2.3137687810468988 9.056955787166675 7.882962974688997
Pb 11.587061599673815 5.472400090758302 5.911331396673643
Pb 5.618414158399955 9.282502437574355 8.121744334321425
Pb 11.368782229137336 5.631520426871295 2.6196434866858866
Pb 9.556733362660214 10.777169403944587 6.5055796494879035
Pb 4.176741954029336 3.7535687401816675 8.19867109181288
Pb 3.528922827683185 12.035097068562395 8.130192626348748
Pb 6.537092222843376 6.076508331139534 8.846581294472971
Pb 9.229558060812517 8.009589377668899 1.91801330108917
Pb 3.226416362388861 6.4103048629829305 10.081648711520014
Pb 7.099123195464287 9.065944152659611 5.008502531882589
Pb 6.233588122850298 3.8630021997358996 3.5711597225021525
Pb 7.033271387288629 3.4564173532734634 6.7579251870933765
Pb 9.093181178400695 7.635849761007323 13.326086807161023
Pb 8.494110856142111 4.8041843447584185 1.382009559096991
Pb 9.678367910246475 3.194503225978678 4.020749183052133
Pb 8.293071355872062 5.052302528536598 11.493255100695432
Pb 10.877944980723866 10.041456133711474 12.171942713954023
Pb 7.747921289021367 10.620958976602818 12.895237606084477
Pb 5.271995057742472 4.024979369095849 11.10545312269273
Pb 5.988043404996417 11.989492486242444 10.193278157931248
Pb 5.286778869918892 6.296179012224007 5.753029850276509
Pb 9.247875536276885 11.969896502317487 10.114479792992967
