37
Energy = -122.21728853 eV
Pb 6.568767536687415 3.592917964135774 6.754080837471845
Pb 4.033175205111563 5.300999180609976 8.54936108852999
Pb 9.308352899467057 2.784200906382358 8.496532646302988
Pb 6.791117755987569 4.236136715166743 10.079638456958847
Pb 2.157992956575046 8.342994661023484 7.024753346171505
Pb 9.631539059339278 3.1533053258572448 5.432440665701853
Pb 2.4701346181961013 7.741027924177233 10.122471657900318
Pb 2.675516667804735 8.593861774096647 4.044718321347727
Pb 7.550311584469965 5.375644616112144 4.192978819984786
Pb 8.112345120357325 6.012756999469518 12.621225566052095
Pb 10.540970890051772 4.878367031937476 10.816109794064555
Pb 5.218548274116706 6.806595678104316 11.322453008277687
Pb 4.7192751255850665 6.499266094990005 5.614155201757722
Pb 2.0270924818208025 10.843374786220823 9.106539065053438
Pb 8.618105800386129 6.05062061600678 7.258877792279818
Pb 11.676166387591858 4.900104894209017 7.588858895543917
Pb 5.815259036638553 8.254591982837383 8.312013067863699
Pb 2.3807335899499966 11.40026114400934 5.934143968367185
Pb 8.02485587545546 10.636840600613715 7.135859142618968
Pb 4.739717510741028 10.155799952991972 10.863149689938904
Pb 10.84037153257276 6.063441219800192 4.650007186681178
Pb 8.43415019089928 8.628023176151162 4.553738123517856
Pb 5.225291616419311 9.859107005638581 5.317558432900739
Pb 8.14665165753052 9.182176172887118 12.855762518037965
Pb 10.818662181724838 8.96733478921529 7.160489617592291
Pb 9.13584599483109 7.968704039902613 10.040078819161751
Pb 4.9321817532772645 11.712064039825242 7.957292931312846
Pb 12.502983846339626 7.422501063046369 10.088866631575558
Pb 10.963620452845339 7.573299608109373 12.97047093794925
Pb 8.051557538105117 11.174166293023694 10.292053453632
Pb 11.802189483515711 9.062158517232191 3.9142128288616296
Pb 10.17052094254778 11.703414823148085 4.993603924136808
Pb 13.694723185993519 7.949867894709702 6.539876196260653
Pb 11.164442586780515 10.310405152658143 11.322399929058559
Pb 13.613314495840509 10.29987845983083 8.892933148480989
Pb 11.008541805612294 12.182917381358928 8.135534145176212
Pb 13.242002352876783 11.18790150855599 5.851790137520351
