38
Energy = -124.97281898 eV
Pb 12.171019808567383 10.43421229278511 9.222927047637196
Pb 10.560714812405944 9.336774841259398 11.986678519258241
Pb 12.202574161962373 7.084609906240794 10.34376803211001
Pb 9.874828115115523 12.33935210914391 10.935730806323978
Pb 7.441715183229924 10.525065030576041 11.905741933028342
Pb 10.162674769418466 12.800927115699938 7.835809642334435
Pb 4.443469783197944 11.777374241536185 11.038754470389353
Pb 9.060282307115438 6.534410449112999 11.355186636358656
Pb 4.814987212024987 8.378595416600216 11.81320110261667
Pb 7.122427440567201 12.47727840545317 9.142342335485417
Pb 13.156727873319753 7.64565929952474 7.136084657453853
Pb 9.018956328968356 9.558306307675926 8.954650379887768
Pb 10.98820647583699 4.135867166604008 10.88309819817231
Pb 7.91487628450919 11.195434709593496 6.062475407866454
Pb 2.1783988712044944 9.55879861736926 10.414456438001036
Pb 6.205606426559319 5.681357271507614 10.341346657309241
Pb 11.205866351441008 10.251291422240977 6.115233861334454
Pb 5.362873136668748 9.403291255567792 8.821015527335708
Pb 2.9887871701291475 11.766314056849474 8.145971823352612
Pb 12.378344396368474 4.519258716702314 8.071750053005543
Pb 10.038693018552316 6.722754317943774 6.540015863409222
Pb 3.159017377477943 6.636537893750663 9.434406961413758
Pb 12.074061775366129 7.919783278181772 3.899328739328584
Pb 4.784124067067278 10.564542175707452 5.8422918157393955
Pb 2.3080829604529987 8.705964029282343 7.174364767503719
Pb 12.82621913276415 5.042892396908743 4.907709975557423
Pb 8.73013528879882 4.402718376745835 8.640827357646918
Pb 6.032912051472641 6.609189653360175 7.051377950851632
Pb 8.877005991166246 8.724813634122185 4.110661211966969
Pb 9.942097256828689 5.536096736784736 3.4185660806593234
Pb 4.7415913937422385 3.694610301432587 8.019626007817672
Pb 10.191549711456037 3.3994793527156166 5.7795366962782335
Pb 3.3537618586508438 5.119759532610476 5.542794144331422
Pb 3.74716084979525 7.959034679529524 4.258835363116463
Pb 6.504258408808738 6.502205107188731 3.866815009375694
Pb 6.896866509372727 3.7000902253490877 5.521674688166796
Pb 4.213009022934728 2.0440244654297017 5.199724016763291
Pb 4.951495977110848 3.9367047713423435 2.8905993812409694
