35
Energy = -115.4388563 eV
Pb 9.553669625509452 11.620242840481067 10.479957859239859
Pb 10.442633777068163 12.106629823141128 7.4300661995744735
Pb 6.486547395223775 10.201433509007217 11.094421492201628
Pb 9.154808915327084 9.913064497574277 13.12373332854438
Pb 11.776829637546664 9.308182856709827 11.278241498803604
Pb 7.158050826485215 11.753821755392787 8.160721957494411
Pb 12.888425101561142 9.861051592775048 7.206044004579016
Pb 8.313756882115195 11.587695513825732 4.829454545404017
Pb 11.548294460992432 11.21972752613521 4.551963659555224
Pb 4.04268825920551 7.509206665169278 10.845484781925563
Pb 9.001075693177096 8.137650079133573 10.005310270869598
Pb 5.118701522517574 11.473499809412234 5.608949085353924
Pb 9.946070754830275 8.73054767645843 6.479002545932989
Pb 10.390941719650243 6.977182672179127 13.072498736587413
Pb 4.351380644755481 9.944293737433544 8.453066704103117
Pb 7.079128131089022 7.350621994749351 12.812995972622963
Pb 11.803304943977228 6.261821695508901 10.246033537659148
Pb 9.618451185897781 8.966078294066842 3.093292217894464
Pb 6.35085685544071 6.070037191584386 9.0179155324385
Pb 8.674099164283843 4.694343568910572 11.284492928898578
Pb 2.979764562306732 6.813239860926446 7.682693643509302
Pb 3.2152975360828995 8.974455157650027 5.308005538197293
Pb 6.483604708287961 8.365583633243615 6.279337828670512
Pb 12.726856202709326 8.330206991458914 4.27557063798346
Pb 5.9397912644280675 9.34540904646194 3.245727865529921
Pb 12.582316681846558 6.640807601368826 7.067555307818218
Pb 5.400858445551281 4.689219313050497 12.117966632842075
Pb 3.333227925262759 4.409528378562359 9.788384835550456
Pb 9.831482655445566 5.12833994672949 7.922269714794843
Pb 7.391849821720571 6.469412912734229 3.081163967420536
Pb 10.39038408266971 5.96214201404948 4.450661184031066
Pb 4.5558854406469305 3.9457546342896967 6.8806881122418915
Pb 4.474223354586576 6.203472151594111 4.38775576276562
Pb 6.369101331255645 2.9695530639446583 9.44486739883391
Pb 7.479157441752371 4.870186219731323 5.877498943514707
