36
Energy = -118.5592793 eV
Pb 5.372519678026919 4.904296490740231 3.997393178740047
Pb 8.070989537860802 6.336375985158898 10.894964143597619
Pb 13.138652572752477 10.101197186306528 6.785904319647268
Pb 11.843942305320553 9.41948740852302 12.445287065033417
Pb 3.037409362696735 10.903619157871614 8.15914482738655
Pb 7.642324703565615 7.2656078759111065 4.426749934146452
Pb 8.592635609717924 12.851440142955834 8.052281696623867
Pb 4.668201824565264 5.795414038896425 9.264691220506199
Pb 10.371100613030555 6.695782278494494 13.47617040867323
Pb 10.6123123051972 4.898863931516425 7.594595190594205
Pb 13.339371632932853 6.4106899356390095 12.411366896377716
Pb 13.950187113633177 8.564490316220514 9.849697212956297
Pb 5.563009703870045 3.681833865716817 7.018758815676798
Pb 4.1822076389399845 7.862258876379431 3.924821724003696
Pb 3.948729270068961 10.893047051896612 4.970383524269474
Pb 9.004714528792707 11.810820111493001 11.157605623362763
Pb 10.97294221668892 7.397631732558993 9.924802509627094
Pb 5.629113264332579 12.809644657918092 6.8826583467908575
Pb 8.21389267218355 3.9869719113439412 5.173424474976793
Pb 5.0065081069748025 8.468436415332684 7.076193864029833
Pb 10.956291980653647 4.407019444093324 11.233532412571794
Pb 8.434592640058684 9.066724465627559 12.606364210164264
Pb 7.9129802088841705 9.286983874049055 9.230923580286994
Pb 13.578175983372933 5.21456360710676 9.459278947204787
Pb 10.550891788433637 11.71728022397012 5.780705703477681
Pb 7.609344137208133 6.186728944175295 7.521066643437598
Pb 7.625125063626076 10.352721985089566 5.938463064853553
Pb 1.6233206680008485 8.762296026828677 5.916517123701318
Pb 3.032751823721819 5.747846379440553 6.260516711242254
Pb 13.169435533933331 6.887097939608324 6.769494363795839
Pb 4.604667811493616 8.95768757279115 10.442648193717782
Pb 2.0546375055196875 7.737110013390816 8.87096370225185
Pb 5.86710306002148 11.888641095731364 9.957523341491427
Pb 11.035972294949488 10.685922843034714 9.030630965847097
Pb 10.259440619085707 8.393227068502883 6.588034485790759
Pb 10.55825558949923 5.936934243380056 4.353947701214553
