36
Energy = -117.7761033 eV
Pb 3.898628651318483 9.162712077190482 14.098723983950737
Pb 7.739577886634212 11.566336110765914 10.972563846139996
Pb 2.3444151265345927 5.913815919861875 8.893871099001036
Pb 5.187306764028264 4.620768399230495 8.000995887970285
Pb 5.05896420930795 7.5803620198357144 9.607943639021473
Pb 3.9623266301498616 7.249420691683342 6.381195221975722
Pb 12.952261405873655 6.885060059351904 5.909302407404658
Pb 6.611951424828113 8.96810933204647 4.426464273235538
Pb 7.485404650668557 6.981770515631302 7.079915104507067
Pb 6.880879983798847 10.226169630681358 13.768034320434868
Pb 13.66517174357302 9.390896453769527 7.840702225890584
Pb 8.193982261649445 8.384746196659846 11.120371917865334
Pb 9.068464640325002 7.885836844350836 14.31936302982182
Pb 13.092000948041775 9.436487821634485 11.178131412755898
Pb 14.175518398916383 9.63446208981372 4.620114857492341
Pb 9.018487905114023 6.428427191682571 4.138504568153214
Pb 4.164186672656022 4.55768900487676 11.219749878712978
Pb 5.563336641166939 9.900639427950985 7.212213625041584
Pb 4.56339013477812 10.297744557156335 11.29863664027705
Pb 12.020143099204676 7.783496318229723 2.879773706898469
Pb 7.2032834241709285 5.3674888151425275 10.56362218233166
Pb 5.856528989388805 6.747222651701493 13.266057018952445
Pb 8.553032649660079 10.099513474920569 8.101913537642519
Pb 9.13826825831371 11.672379495842115 4.997433508682507
Pb 12.126638503912364 8.960287507483931 14.32532666857413
Pb 2.616630565231989 7.357132533761629 11.850054992734574
Pb 6.57696096755376 7.113185496294066 1.9809767503510154
Pb 11.275262942464028 11.25024205777393 9.238864124138194
Pb 10.706401189278072 9.063113085586457 5.632811150700475
Pb 9.068936946959148 9.41384706764579 2.462954361748188
Pb 10.364830828289081 10.728629381607544 12.5716222281548
Pb 10.871324085564439 7.774986306973969 8.812715841813962
Pb 11.087928106560483 6.993197822709414 12.025780558146204
Pb 5.934166104711312 5.39842858557945 4.506808348509129
Pb 12.406371869189908 11.990517882635505 6.104405267975986
Pb 11.815101407678215 11.099781991617801 3.005697267769179
