32
Energy = -104.77475109 eV
Pb 4.850207429671988 7.176822047486647 6.021491380330014
Pb 7.336748930399203 4.866819298832848 6.950606584831904
Pb 4.0376107526528155 10.293022316195527 6.189770637321126
Pb 6.49624805791551 9.758593136878883 4.045951457075963
Pb 3.8191545902660273 8.699919738236296 8.986484595592344
Pb 7.370812015067254 6.676919930560651 4.0901715489352535
Pb 6.004196752955752 12.59238501504601 5.498607580875167
Pb 4.629605828505603 5.392074181432587 8.663204613539058
Pb 7.005269374205105 7.899812775446078 8.780123015493519
Pb 9.045044092197243 11.901463617942667 4.713588621003073
Pb 10.108262989743723 5.868741871050646 5.395038562866957
Pb 9.876998356159184 8.87943687641391 4.2069936214968
Pb 5.535812247525193 11.870921335763684 8.705075708990735
Pb 8.36005429667252 13.337347925695953 7.504378553575317
Pb 4.923099863232172 6.826342476358136 11.445096680617306
Pb 9.486975640048687 10.037280478329844 7.412173164420265
Pb 7.468869183655399 4.856158831876284 10.399081110552459
Pb 5.824271337494894 9.945614277103047 11.421431009543666
Pb 10.245460209933606 4.582695294491572 8.510599108625879
Pb 12.380828285021376 8.216717196099811 6.20138492930667
Pb 8.280315791934974 12.233682686773255 10.613716517118066
Pb 12.853991320222285 5.1086007504417985 6.601320578593551
Pb 9.944120027737458 8.517469258124923 10.47409885822727
Pb 11.123094728597453 12.61491214429387 8.830800711879903
Pb 12.815220520487921 9.92021588584594 8.937749359085812
Pb 7.784666395881893 7.0308825270006885 12.88744223460124
Pb 12.954628496249645 6.545031613224133 9.327963338505835
Pb 10.771919116721847 5.4650726972520545 11.606294465060264
Pb 8.623035714628726 10.267164474952486 13.211323484996845
Pb 11.34962018094001 11.323235621835687 11.762005295440831
Pb 13.073814205583801 8.424437622441987 11.85873668606301
Pb 10.662342789386088 7.912505618268153 13.789595507129423
