32
Energy = -105.21413776 eV
Pb 11.017978561072226 9.929188296690356 6.51507827118141
Pb 10.114695096755884 4.9512923284696475 11.173814023851222
Pb 12.581408181113204 6.764223555589457 6.636699858693755
Pb 10.752291427857346 7.694944562781657 9.484646277255136
Pb 8.886576261913605 12.355600461746219 6.124417221848577
Pb 9.07478915013949 10.244422637726432 3.5965619895261525
Pb 11.740096439345972 8.24056222603038 3.8423591011253695
Pb 7.427186945223869 3.2824158932761764 9.591601792770337
Pb 8.797711823863786 7.602987885289398 12.452708837567435
Pb 9.30282007117348 7.236027084409684 6.17816186144743
Pb 8.75910877194538 6.92254368533725 2.9337719871629293
Pb 11.192051235221372 5.0649664461856165 4.2743944256677615
Pb 8.177931282249414 4.397909795717522 5.224072858664131
Pb 10.373546777226457 4.574916459828657 7.697458974675608
Pb 7.092863358582696 4.836175747717997 12.416170078444656
Pb 7.748494126601963 6.466474109498483 9.365471874236594
Pb 5.902198052795285 8.789651400801958 3.6821168493790073
Pb 7.177634469434513 9.675327023765506 6.740267708043036
Pb 4.666000268529579 2.5809720475206026 8.017173190413986
Pb 6.25328025764794 12.013419744555396 4.161866067325048
Pb 8.084091914696527 9.589733621010701 10.006813571268658
Pb 5.5788640083443655 5.5438014197359875 7.082022182136659
Pb 3.4744754553001265 3.7056726553615 5.252937711336944
Pb 5.5218177939560045 5.540445254310853 3.6228908437265925
Pb 5.589564901159121 7.735619124587343 11.524988757887973
Pb 5.88044278988773 12.718197589848646 7.200571497378421
Pb 4.356373266477259 4.738234651045847 10.494047101324062
Pb 4.034429451468101 10.265381882040108 6.067682009767517
Pb 4.9815901129932225 10.4761374800574 9.293748567235525
Pb 2.169892563114416 4.740447904278551 7.9169297589030325
Pb 3.0932250874131095 6.946313172506286 5.488672086756969
Pb 3.4486869578815624 7.634733016180374 8.768336564365105
