37
Energy = -121.87362651 eV
Pb 8.608086373652094 3.451700659839505 6.682923077198345
Pb 7.130665158802114 6.587200665014645 5.340323631447536
Pb 9.544291117628054 12.826533320242845 6.553598237255548
Pb 3.3007964675898727 4.070927937513366 8.19796080937851
Pb 7.483387239863 6.929874585401842 2.1185156846314643
Pb 10.333496240880104 7.69678362932286 3.608762017266391
Pb 11.05042083379578 5.255097458388327 5.687906229283148
Pb 3.1058116711023374 6.009160592124437 5.512871596214824
Pb 12.291534558321207 11.325506257167085 7.191012439673682
Pb 4.827157118548214 5.1871611664394095 2.956228712854218
Pb 4.649428266079287 8.387059079881418 3.6556629002151153
Pb 7.247297848427546 5.575132310846843 11.890815164507998
Pb 7.765280386557084 3.9803815639821027 3.4966015208698855
Pb 3.0640497318365414 9.142814259285844 6.6845633270038975
Pb 9.045915979001148 6.48670670486304 8.137855207687668
Pb 8.020745760686985 11.552304231587907 11.960239108348507
Pb 7.851161572182463 8.531361642397696 13.084072871820528
Pb 10.733770048503738 9.913590743288589 12.20755656004864
Pb 2.3251584482555496 7.110970658153499 9.184530355627956
Pb 7.1125583351782895 12.319532604426357 8.84096485562984
Pb 12.411029516418418 9.042305312634284 9.610793864524295
Pb 12.140649192347581 5.727335509932474 8.74807552038397
Pb 9.151008789592085 9.651675962105145 6.861881902249816
Pb 9.666874893617205 3.988660968218184 10.099184622295125
Pb 4.819065164293343 8.195161671182213 11.706779370064197
Pb 10.402677543009931 12.110745028595126 9.710373162268867
Pb 4.474149920901998 10.236253852423316 9.33173393328784
Pb 5.38413704569176 6.9977267635514675 8.242166099792865
Pb 10.506904566390011 6.788919111097969 11.445941238443709
Pb 7.647628237855875 9.118158576015945 9.873011053798098
Pb 10.89691068496737 10.751265974514055 4.316023168183189
Pb 7.710591105510802 9.825795922785908 3.65208387522882
Pb 5.342896065272916 3.4440180960603564 5.731109476930079
Pb 6.5000895801464775 3.5647199394497693 9.163370082011136
Pb 5.924073210237914 10.518904181966214 6.228318603096483
Pb 4.156668290907727 5.162106285487008 11.026390748903626
Pb 12.270981719538817 8.186712600224364 6.341639003940284
