36
Energy = -118.46426086 eV
Pb 13.245742986965633 7.098423365816539 7.211477582770156
Pb 11.79019008655046 9.982449724353556 8.098292244075845
Pb 11.401456912665694 5.964215974125019 4.716125720646586
Pb 11.663887269296593 4.4814858975144265 8.070562491028456
Pb 12.094527838042362 9.098425252189063 4.968563843039434
Pb 11.401948408606222 7.344345919800124 9.996633618690453
Pb 9.2979122474712 9.93838694927709 10.648469462614875
Pb 10.33890568870533 4.318768415457921 11.158307801521792
Pb 9.96780206278698 12.546231858775615 8.755276578514936
Pb 9.631908857056867 11.470387327384838 5.642120204310553
Pb 9.465698409979371 8.031825834263454 6.343737835096166
Pb 9.30200704889991 2.446921930347231 8.754238708028682
Pb 7.096788904654436 9.354473563339749 3.9699205559298028
Pb 7.290605684689235 10.425751492301593 7.684603033131908
Pb 8.3637278604833 6.999845335431237 11.841069533078334
Pb 9.043849135368458 3.8907329446480223 5.7436413747166215
Pb 8.141977990186307 6.496073078854885 3.3256059670145577
Pb 7.136721704422925 3.7969272814159525 10.940229620826093
Pb 8.591136120889345 5.743551674848169 8.61096098850046
Pb 7.523604771419207 13.851685959929172 7.238161291176696
Pb 6.057388135206096 4.298039040059772 4.2300122696390305
Pb 6.15580089310723 12.266402906112285 4.854551639437453
Pb 6.183022969856248 6.952752888840062 6.265425720330778
Pb 6.289980222769494 3.206978094641656 7.668042197925269
Pb 5.298481576617249 6.026264701642666 12.523968177671474
Pb 5.843801080308501 7.575904503835523 9.507523306711603
Pb 4.275858239356174 9.680797280597794 5.789560856668477
Pb 5.76072885894878 9.337619769897119 12.123443767652015
Pb 2.889223114847227 7.479091535844479 11.251805072099133
Pb 6.911953562404686 12.426304796752811 10.185098200149246
Pb 3.503438920069867 5.184778761141514 5.881198192599859
Pb 4.649239264629337 12.65126019776182 7.770726228614007
Pb 4.70278199016701 7.105771208431288 3.327694387106365
Pb 3.9678612731602634 4.905112074574303 9.440917917160615
Pb 3.8396185439725503 10.18991944186676 9.637256345641442
Pb 2.725639875130228 7.61416981439289 7.922805326085418
