34
Energy = -111.92143727 eV
Pb 12.571969362085897 9.745833031619888 9.249261615033866
Pb 13.116390240781337 6.63703962216007 8.514233570429976
Pb 11.771782877263577 7.42618000072003 11.359409256974082
Pb 11.982849961612454 8.601510273441606 6.121772579876968
Pb 10.181350139485783 11.084230738949975 7.576135243835813
Pb 11.074986967003504 5.192834922898638 6.499754775942687
Pb 10.573429213872055 4.750401164883907 9.785102740811366
Pb 9.717553752233961 10.084125957026332 10.929464196814736
Pb 9.347716098173443 10.683386592851717 4.091531901317627
Pb 9.75138839130019 7.749561797308492 8.487594678053485
Pb 8.536633296384982 2.6992548058917825 7.2260845489593395
Pb 7.309051419749632 9.069282660443022 5.984675416954251
Pb 7.112637265522731 11.484796321288185 9.182079820196984
Pb 8.641244647597619 6.941411741819374 11.788477190603375
Pb 9.644191695807368 7.187963782216633 4.022931040952772
Pb 7.6651758755941675 12.522552153540602 6.118507748663255
Pb 9.045175375684666 3.9463963786773415 4.300150013715003
Pb 7.181360928295318 8.723730160977835 2.488242543861859
Pb 7.1721957587447625 4.277892585620229 10.096778115243248
Pb 6.090271938480201 9.446069052397416 12.015293172968596
Pb 6.108478716151319 2.7862769478849723 4.823374982849911
Pb 6.033530512475003 11.407792844067766 3.593119520564185
Pb 6.115953639512703 7.976066734383324 9.197511031162382
Pb 4.0029345423653675 10.757594247041963 9.700405961517585
Pb 7.228468290667689 5.579391316353402 6.754059057699746
Pb 6.317878286823467 5.740646806855774 3.392120980060719
Pb 5.502548149207013 6.274059400543022 12.149031514123804
Pb 5.245887002821517 2.8659531216832757 7.813996454367011
Pb 4.584003306765942 11.19013720648678 6.545426118725624
Pb 4.401919791809551 8.632296182073613 4.42357187229025
Pb 3.856304084953793 5.377820932209359 9.313112466677739
Pb 3.1139322667424314 8.11334743799728 11.079045574900045
Pb 4.060068199063968 5.267792317753731 5.7373548768689
Pb 3.09801737632697 8.174412062103233 7.7179870013511955
