34
Energy = -110.77704364 eV
Pb 10.637761265303396 15.241042659684155 12.030389320855857
Pb 10.144689387876591 6.0006824681337605 4.866747006740748
Pb 4.621589942363833 9.250589073858217 11.431938775256917
Pb 12.376585709742853 10.351421661370312 8.230470708089157
Pb 6.717370584432673 8.802448638466268 8.640753997061337
Pb 7.678526937406329 4.003350632265393 5.512200984853037
Pb 6.523266433456542 12.08918152237868 7.504252759995903
Pb 8.594508658394243 14.353910352551608 9.605097158475187
Pb 14.810247613493193 8.850833840429694 6.482633482319446
Pb 11.835108075873105 8.828750384908265 5.374720574236447
Pb 7.941171314618972 8.553339426084095 5.180980175192639
Pb 13.95097623887361 10.688456969344017 11.192766061592254
Pb 7.322463684353233 6.160614351527019 3.2095212038280816
Pb 14.208183546676239 7.780534357125615 12.439966956749966
Pb 3.75049100283425 10.59892592964902 8.686742241279923
Pb 12.541748878217746 5.782292047176912 10.533800081323637
Pb 9.957491331527672 4.343695116885325 7.698343690498328
Pb 5.3085970159177 6.261105699575059 5.6762937916580265
Pb 6.579192355502384 4.798915071492313 8.416467941179908
Pb 9.78634540678216 12.11111065794476 12.277880070002698
Pb 11.408452843939582 8.772813686204335 10.975617944709256
Pb 6.844137957635832 11.513862421466762 13.571518739822364
Pb 12.81742344345136 6.252000885448844 7.231403424897962
Pb 14.69533574969856 8.022176892266087 9.410279964192037
Pb 4.8153687664146165 9.42016046462034 5.968584513769436
Pb 9.153330331943051 11.098525628109822 9.049766517570928
Pb 5.947313532657739 6.449822246373169 11.100700465062083
Pb 8.029499963199111 9.241025869887933 11.663832633441194
Pb 9.846557535077702 7.77494336041786 7.70714605361272
Pb 11.690397059065745 13.240914436576588 9.865333734475644
Pb 7.652911826419564 14.631028127794616 12.669872263141489
Pb 6.155078479448211 12.300635428146826 10.626809713325901
Pb 3.84813325646701 7.170020514228811 8.483177417159904
Pb 9.12606585682 6.028304811156027 10.396418871077476
