32
Energy = -105.31704448 eV
Pb 13.11705840542429 7.866039232388501 8.297408290168294
Pb 5.049406014873014 5.2211066635008185 4.879479181881365
Pb 9.892178682787739 5.4899112981118305 3.4947329829245355
Pb 11.731140797421505 8.30669121344469 5.348901900491711
Pb 3.007426325739143 10.047759764489804 6.159676207592747
Pb 4.299240939567712 8.717795964425827 11.46854203962021
Pb 11.058401927232733 9.027887105476836 10.725000422192451
Pb 11.165156585092623 5.26913935177698 6.708760297752362
Pb 8.627007281660852 10.806101291554686 8.961032559379634
Pb 9.647594522763677 7.857840941275712 8.046980319213851
Pb 3.8646619903149513 5.540960346740318 10.494273819527987
Pb 6.641506443213511 3.788055352715864 11.387550117059094
Pb 7.27818586293312 9.969552049230185 2.614762968931052
Pb 5.286438154002081 7.704701956997197 7.059956737530423
Pb 8.001291107371545 7.65768596888154 5.1319261243824075
Pb 7.560242443217443 9.215741989903078 11.707598924549208
Pb 9.03681551683575 6.09595170512521 12.016639031346559
Pb 7.229717575664879 6.812418755991335 2.036260924068938
Pb 2.4401432168442865 6.746181793987918 6.143574587980323
Pb 8.92531159216264 3.9740761271392397 9.082686476680905
Pb 5.655095293844158 4.042464563174394 8.126898414625565
Pb 8.01533936114356 4.255189719817205 5.905107399824217
Pb 4.594215697125237 8.27225634084901 3.780070110412923
Pb 2.46226272899661 8.412179684588601 8.850885233446675
Pb 5.890172185608522 6.411909809822517 12.971354342278188
Pb 11.631024128902542 5.752648170005717 10.019530442331083
Pb 11.703581579893804 10.669741528786655 7.918665783215763
Pb 6.061902872437953 10.817671791782615 5.578560686022819
Pb 5.268682807114217 10.468600357836706 8.85999381815428
Pb 6.821448012535616 6.744431032678136 9.713915560884185
Pb 9.46099037255106 10.681814702734076 5.450718345131426
Pb 10.050539041574707 8.489703613068652 2.4847263963646857
