30
Energy = -98.15622553 eV
Pb 9.9019580636863 6.468496563878653 1.5802399490535484
Pb 8.334754573797017 6.2555819023161625 4.590382589496318
Pb 11.837589117777378 7.157911024094019 4.061254169371899
Pb 10.63237273230443 4.099297744679019 3.551673230023351
Pb 6.824256475116854 7.405172586210682 1.8803902768677998
Pb 4.779758902102003 6.354761413572721 4.1820566885650665
Pb 9.375675282323265 9.163509529379779 3.198643002472159
Pb 3.1205838900113774 8.954419199277485 5.188000792760679
Pb 5.901152064730387 9.716014782343098 3.898935066213979
Pb 10.164088833247815 8.36377872973949 6.597531188204448
Pb 4.990588042667076 3.6269522556320073 6.0569809394614635
Pb 8.32566836968893 2.857209178798921 5.649221820868775
Pb 8.217744818437314 10.928545281115474 5.737889837281286
Pb 11.097999364267345 5.067770131130377 6.5542797680116385
Pb 6.634407368365227 8.363579956091598 7.0030497791420485
Pb 6.802027888104747 1.8131874057214687 8.477136106924934
Pb 3.3652975700282366 6.299518520588039 7.058356215599675
Pb 7.387657058601215 5.171572608674955 7.7741901737261685
Pb 6.944724110089013 11.25122696497563 8.659513122704812
Pb 3.876909378939812 10.025753872321841 8.042190934305289
Pb 8.163984743322178 8.805307653199536 10.263570351674101
Pb 9.756493472949158 2.8275508946997343 8.661907609827104
Pb 4.6818024909641895 4.033782263448726 9.36970444301485
Pb 9.987162134153296 6.27110553164341 9.40101528101307
Pb 5.0379059167219005 7.338920790079732 9.664340386180688
Pb 6.199465538781855 11.00018349140261 11.960134191964563
Pb 4.216325734251571 12.411722579096677 9.944336562021435
Pb 7.640366986287082 4.049426832797738 10.76339181377445
Pb 6.035796830269072 7.912675469508477 12.4792471062042
Pb 3.33800010917448 9.577582704740962 11.322954464430323
