34
Energy = -111.44297641 eV
Pb 5.69279436657627 8.220727831338287 7.998193120609905
Pb 5.637480680754693 5.337126820541253 6.683072774556807
Pb 3.8511847808809723 10.922075913505958 10.313737071307271
Pb 6.581682262373762 15.017283113253733 8.386261956674318
Pb 12.488395631081506 3.8955294820814426 12.31792249605859
Pb 6.665377941487877 11.43910392766865 12.392024366726574
Pb 12.47676184841334 6.620886055991199 3.742103975855023
Pb 3.87822115817601 10.627565429127763 6.713991852900171
Pb 7.155017078786857 5.599652550079133 3.8695063291894365
Pb 14.270175374347271 6.136496235148094 10.96852956223109
Pb 9.533928276075413 10.860222170720611 11.03437983579834
Pb 5.874446446779621 13.153409703021062 5.842549233091879
Pb 6.547019116158709 11.583455480411894 8.982866629937654
Pb 9.613822504945656 8.077025279321349 12.956107968972818
Pb 7.128824448185032 8.68243198405131 2.907226218989945
Pb 9.75237346176652 4.96308542979624 13.583284625902774
Pb 3.6614208973956393 13.507799369230934 8.245609165992336
Pb 4.788238082899524 7.805685329212066 4.8041790032317255
Pb 9.021945176639395 6.036676283846649 10.487463787618381
Pb 6.845760828663529 8.537160636388677 11.039688193917268
Pb 9.641841434516904 7.729518425569291 4.497588389436521
Pb 11.703166866582862 7.816050875412789 10.511131390845001
Pb 7.130093881353862 10.19509357820103 5.714905658764848
Pb 9.125284196429336 12.854156004597545 7.913726197521536
Pb 12.508724845715832 6.879026918243085 13.574650047565202
Pb 11.758609313946561 6.779990817139344 6.797081877244343
Pb 5.069032609780673 13.974098389247844 11.137365567195017
Pb 8.32476878535726 13.950518698854372 10.953339240411111
Pb 9.772699357108866 3.050857108113407 10.935987356268024
Pb 11.284413952164224 10.22146388937222 8.376707226551925
Pb 8.871838242940692 8.462532350140048 7.810815007755293
Pb 8.789511227159414 5.349064625281747 6.817399348671654
Pb 10.438211467836073 4.4484184665043776 4.3324721216606505
Pb 11.946301391255226 4.663569860014703 9.222710489823035
