39
Energy = -129.15947017 eV
Pb 5.308691808968928 3.8290049308068075 2.5319391463857226
Pb 8.10136233695786 5.324396423322556 2.5127624800453305
Pb 5.276754849370542 7.099707481710304 2.7991483550825245
Pb 3.1559926046079547 5.305497368170084 4.706507237065053
Pb 7.890523555753927 2.663068932249736 4.381863655779353
Pb 7.9730847091643655 11.818532174244645 4.617431682512581
Pb 9.624731786514415 7.9245057053618835 3.7643791774076334
Pb 6.371688342075698 5.199795551845774 5.604751667163581
Pb 4.684532542596121 2.221178531829422 5.158710981898127
Pb 10.653972244150758 4.813948240292862 4.712191810338453
Pb 3.6108797558243104 8.685846895246122 5.073944175980576
Pb 9.968280027830062 13.68781471903471 6.7167968614067854
Pb 10.698322448058354 10.485534893676302 6.149862509418358
Pb 2.6124917823475773 7.03570614848389 7.542586915381825
Pb 6.744577304389935 14.12172397763973 6.716776308878919
Pb 6.624073955253075 2.289427792631494 7.728723772287791
Pb 5.007838384707028 11.456687269944778 6.139254716525562
Pb 6.868542795596413 8.651188987073676 5.369700261140705
Pb 12.36847184819451 7.584331531076405 5.40823138417319
Pb 3.513449863271481 3.8338513405531387 7.764263101880565
Pb 9.42660195253533 6.902779749520518 7.074305342409279
Pb 12.449914049054795 5.285880105120096 7.5528307063757145
Pb 7.96403832459777 11.072134758062996 7.875079194983939
Pb 5.071465187576953 2.992330445588335 10.496871547822197
Pb 9.708597783777467 3.45130933762165 7.580691654258469
Pb 5.368707258079042 8.716581371291284 8.302402778904359
Pb 11.930307733514008 8.469938603834441 8.560666049029669
Pb 8.406601661676895 14.209371519353335 9.5302227572554
Pb 10.810619697574305 11.936606829002299 9.360839686942391
Pb 3.7145969911908416 6.077169363715664 10.4141623603797
Pb 6.976600095627556 5.623196772691835 9.427902237081751
Pb 5.481524352022909 12.41907845917959 9.318173177690042
Pb 8.8759171990869 8.610872296790859 9.96644375983274
Pb 8.21447014868017 3.3988004785851107 11.40580260718721
Pb 10.674079598929481 5.468476029246536 10.198650531231884
Pb 6.016978540311255 8.266844640086635 11.585830942838035
Pb 5.764357064489737 5.132785609409886 12.786501127968291
Pb 8.045196404115272 11.554589237807768 11.251620419225837
Pb 8.62662985365982 6.498438353525181 12.460395712684802
