33
Energy = -108.77701904 eV
Pb 8.40057850176233 12.508926533371463 8.533933462770252
Pb 9.281045659970028 10.45178494506975 10.854143534702555
Pb 9.212436149604772 11.273592683454819 5.6003413698742825
Pb 6.020141751850561 10.640980223208999 9.951282436688015
Pb 11.256058188685191 11.15095240766634 8.287630122032912
Pb 5.976438172904135 11.439896316239347 6.545250491471941
Pb 8.492425093045371 8.976697267001056 8.069233966190342
Pb 3.7631617198079392 9.637783337004047 4.64317771689305
Pb 3.3130366473359674 9.605823220181154 7.867852344757143
Pb 6.611367172702996 10.30981253905924 3.3821766611803312
Pb 6.730119841463803 7.727461992972396 11.752946316968028
Pb 11.357190917225306 8.695982228500268 6.143002825187564
Pb 3.629931896533152 8.764105039558869 11.118184340299045
Pb 9.3103076128926 5.836341655913397 10.553340421791269
Pb 6.6797179798195625 7.781236053752997 5.398755394606434
Pb 11.36184745180399 8.213375270037474 9.638485998686381
Pb 9.349571362819091 8.525203668150464 3.431768368760151
Pb 4.1534643884606375 5.6430862941330755 11.462674601453116
Pb 2.2654794038169115 6.619661661695155 9.064395313088085
Pb 5.607328757006944 7.104497977542428 8.79950686714505
Pb 11.288254449467692 5.495935205274392 7.7529691301902215
Pb 4.793843553966419 7.355952862129262 2.750505410437164
Pb 7.921185905606559 5.098731755692626 7.214570520231851
Pb 3.3664299999474823 6.623082965220353 5.889124745476959
Pb 10.469479966219087 5.650651225116084 4.561408210876223
Pb 9.359334731885903 2.8810174914352116 9.254219008704638
Pb 6.581019227875807 3.9075641818713764 10.372032245326903
Pb 7.71936396686761 5.921124650062106 2.5896710551430284
Pb 4.482121493604352 4.133256755024701 7.984826830478653
Pb 5.443004112306198 4.43590055302471 4.614327494700597
Pb 10.280387014115401 2.72850559690661 6.204171951862117
Pb 8.300321135193839 3.0274543504058395 3.7852792340574526
Pb 7.146709968042126 2.03994179701045 6.74514859530631
