31
Energy = -101.66164835 eV
Pb 8.105739685908707 7.320429478372088 11.646464473969143
Pb 9.724768901543417 10.563047993824084 10.621656324275015
Pb 11.352613489292517 7.797051313974451 11.088605925729958
Pb 12.993526908200973 10.147391138262249 9.689195778394803
Pb 7.501242997387886 12.505467936107728 9.067651877886364
Pb 13.592407668779256 10.009713623820375 6.627605507844981
Pb 10.306411277136853 4.929732877691738 10.232165269434578
Pb 11.176886900671684 12.001850323823843 7.841231084021097
Pb 7.3612825703416656 4.178274405456951 11.351842451089896
Pb 6.303779354214571 10.048901273007983 11.132660812561127
Pb 4.927380790801984 6.201781961877715 10.973852213655173
Pb 13.091493150013635 7.099692974026297 8.315902721240585
Pb 10.17556830578053 8.646657840441785 7.729065401261482
Pb 4.28297477845152 11.792325526682738 9.054123278620722
Pb 6.56940322189315 9.372958716886641 8.026094647792787
Pb 3.41246109664089 8.848139277416367 9.767843780992315
Pb 5.558550572610342 12.24066773916766 6.272466519390251
Pb 7.591266001373431 6.1626384320386185 8.3391064367836
Pb 5.196947529324161 3.4509543348460143 8.79580414839023
Pb 12.107266972970779 7.492286303954901 5.239376137354565
Pb 10.706262734639179 10.313449441767187 4.884395007260678
Pb 8.68597104343432 12.531929032075814 5.918736986959037
Pb 3.7711375019598092 9.51563515414475 6.3730737126010455
Pb 8.42751642138041 2.895254158304689 8.554087283673438
Pb 10.445608586624736 5.091997504917823 6.868005168666507
Pb 6.98650797547052 9.721298005868682 4.726720094953116
Pb 3.8152561299852024 4.1184994711774365 5.8750003605882934
Pb 8.733313495983834 6.97239131284432 4.850146099381884
Pb 7.079654373339039 3.9551857567825977 5.840838668568833
Pb 5.473981812063612 6.78806659458305 5.234526718443393
Pb 3.51434942786589 6.2578617719370415 8.033286784299417
