33
Energy = -108.17289553 eV
Pb 12.295304220514257 6.780651946045585 9.050980708145763
Pb 10.482173605221881 9.42353392126084 10.068882426534133
Pb 9.754384190994836 10.262836279021446 6.671713234943335
Pb 11.291020022034854 7.523846198588983 5.6680957741219595
Pb 11.02987247174892 6.80209292407432 12.013257096260013
Pb 9.21003740346323 8.860260366072993 3.3533860563919093
Pb 7.950597149796752 11.733684396426105 4.445590338643191
Pb 10.310811164374567 4.309783705885312 10.123075823630135
Pb 6.127564398142814 9.92601279424325 2.4973883016316503
Pb 9.704343433931596 5.483171024931622 3.4352302973520583
Pb 10.874663359370533 4.607023392346268 6.943284729848307
Pb 8.91688459774219 8.847269007016916 12.959004557893023
Pb 9.199438891874312 7.121366230657841 8.212090879340678
Pb 6.775279965692553 11.494129571346608 7.835704032756138
Pb 6.858891309414557 8.795700360471567 5.79174791214233
Pb 8.910819552891416 2.6945169869176353 5.163868764028016
Pb 6.577342620015947 6.730954013270635 2.240723894408889
Pb 7.529861132164904 10.98785273557881 11.063214394542811
Pb 7.023142211105246 3.5161189478028305 2.7524177292701384
Pb 7.223592010899248 5.536598419861246 5.5744427745336225
Pb 4.827800197052921 11.374928548578165 5.143566714700761
Pb 7.932111537379756 5.705047052492248 12.218505187593038
Pb 6.3839328732529195 8.172644101823996 9.457421977895397
Pb 4.413266350660345 10.894364095290143 10.369469916628931
Pb 5.820244741690915 2.647295455305782 5.721603626053723
Pb 4.014116883630777 8.090351405098213 4.212964886376023
Pb 7.230039687847637 4.479959800123915 8.917748238174104
Pb 5.60546235314976 8.52943486935579 12.615803458069134
Pb 4.35812502920894 4.894741434369356 4.026332942563128
Pb 3.7663611999357753 9.355308591572639 7.501186479413807
Pb 4.93071513121401 5.499982890381536 11.052697526291345
Pb 4.385143721519306 6.071188140614035 7.807141031476411
Pb 3.096489958348485 7.961998122884612 10.407824273755981
