33
Energy = -108.75512567 eV
Pb 10.423497076131163 3.769420252499662 6.657877445787652
Pb 8.729457637979369 4.160268656076239 3.744984666541821
Pb 11.734332948994295 5.380759670894679 4.0577923882958435
Pb 7.365468322233912 4.130509437716868 7.715496272905938
Pb 10.116269974450438 5.457853479563718 9.557325552408207
Pb 4.415046844914642 4.730833946479522 9.062773602504889
Pb 5.197053131811061 4.652275156838111 5.2901535755287
Pb 12.38960426628247 6.507652236530144 7.09423965384502
Pb 7.169882803956602 4.618155128904014 10.98872251247341
Pb 9.63587130749845 7.039729415578455 2.347271624631972
Pb 8.925983073011201 6.6192520886584365 5.64943469811791
Pb 11.45176354789094 8.623159289487988 4.638085376581304
Pb 6.440656449108272 6.831805189128126 3.0015333943857776
Pb 4.167802892532222 5.697303434052956 12.05491406915932
Pb 3.423161299361483 7.229711292811253 4.051947015013779
Pb 2.5441659927270663 6.230113478062794 6.826291041160088
Pb 9.48140980907487 8.58407503215618 8.229525679532816
Pb 2.8321324252179307 7.663179109173759 9.805646547189882
Pb 12.193200755087178 7.963296006465752 10.145509331319955
Pb 6.362267243272087 7.669846332418903 9.908447552736565
Pb 8.334064050544034 9.762758130507994 4.22723995892927
Pb 12.585104672340844 9.954563292235774 7.506542341259847
Pb 5.767182465477912 7.623978121379869 6.519773843165836
Pb 9.662201758793115 11.564269636893881 7.071421368403615
Pb 6.881648783892353 7.0575361535799335 13.102581392338891
Pb 5.11761389045431 9.86454643446738 3.814040733387445
Pb 9.358307750449404 8.745922524856198 11.539018002392007
Pb 3.156489459095263 9.583216481329657 6.581398208077777
Pb 6.3740415806683925 11.006825661312876 6.741987799148262
Pb 11.103524975962545 11.053953440688693 10.04370084564237
Pb 4.573778209123237 8.999478282933222 12.304921382155682
Pb 7.784888745942699 11.171934285433059 9.863528128447125
Pb 4.494706833593464 10.552937905266036 9.461009219956217
