37
Energy = -121.67889554 eV
Pb 7.308725573047306 12.124475877666193 8.438651026418519
Pb 9.077157354718187 10.509576191793188 10.76241636586314
Pb 7.173366311675087 8.416050387120709 12.069769416850807
Pb 10.357825344511532 11.226533574554612 7.8777672731200905
Pb 10.210310588713039 7.0866510476696725 12.854357129634012
Pb 11.886601587023362 8.789551630163238 9.826091571166288
Pb 7.4330208021801605 11.646931957632555 5.298852399590178
Pb 7.332298598593445 5.311764239869936 12.695421130861051
Pb 3.6320337092002632 9.677264568234577 9.42189055320578
Pb 5.2780471785925425 6.390714689879233 10.013449632873664
Pb 4.167630538838948 11.150703020685745 6.452720643742162
Pb 6.868605000335114 8.996799248661418 8.705405668450904
Pb 12.256685317549536 5.577770164949272 10.762638027318248
Pb 9.786620082309952 7.791925835203857 7.008645128157414
Pb 10.157181226336885 10.202548450856382 4.607673626634556
Pb 8.971645226351093 6.385712563771479 9.964103705919465
Pb 9.995753247892603 3.7247863945903332 11.952136564058913
Pb 12.594041904182728 6.251757198565258 7.621903003195033
Pb 1.344571002207769 9.434394545120135 7.136286199545653
Pb 12.598142909761878 9.469568771089126 6.567366582314753
Pb 1.9418983194604458 6.8476768785864754 8.900783004023568
Pb 4.336097988923795 7.721710600061625 6.704510724902253
Pb 7.427899815687167 3.3344142064153726 10.008157640461663
Pb 7.50588873672865 7.921785590982413 1.7815120487797758
Pb 10.792305888649684 4.830916122452079 5.364071509902529
Pb 6.939623227211197 5.354413575316438 7.342309979416069
Pb 5.423977270177574 10.13764114440302 3.2914189492301316
Pb 3.6387553462874873 4.489939351535198 7.631248126159871
Pb 2.4612560943565303 9.220637104161094 4.191397339995803
Pb 10.166123061619732 7.284653465779505 3.472731728488443
Pb 7.258227975520466 8.116236466051708 5.0690297875805275
Pb 10.467927627289269 3.5947718369350867 8.618302512090828
Pb 1.6625748697658496 6.335299932118022 5.563866256819972
Pb 4.5299728272392175 6.8353891611942545 3.0235248722671217
Pb 8.166766897596537 3.0461217116988046 5.556469943705046
Pb 7.540981580013076 5.103238616492743 3.1483565217932608
Pb 5.042982623617734 4.009504929365205 4.889730722748267
