31
Energy = -102.3807028 eV
Pb 9.661354158239007 7.890465979310809 12.904130457342742
Pb 6.608154535184777 8.89333383933858 13.37584184260443
Pb 7.250313751814774 5.732441169360605 13.250546228473901
Pb 9.603805032828864 5.096985336899966 10.95113205177739
Pb 8.459779470354912 10.739753126953678 11.295489780193114
Pb 10.742498387931 8.351065263464617 9.875007947735329
Pb 4.597277987272473 6.89228065745187 11.793646398010132
Pb 7.382486947359357 7.551699254531678 10.188502499434128
Pb 5.256688092818838 10.055530290950374 10.65727894711124
Pb 8.121389441433626 4.785338716165845 7.6092052684955025
Pb 6.34786978872625 4.357873009212464 10.479377433534106
Pb 10.189555146446097 11.373652837013257 8.643425842999825
Pb 11.090967836746112 5.667788658694395 8.066491959953241
Pb 8.247036471613255 8.506659591300782 7.01454391857618
Pb 11.419817831638895 9.261142552996144 6.466874880020982
Pb 10.102823835795864 6.2746282116258145 5.116806253984941
Pb 7.021955441281519 11.608096099132737 8.132612869748964
Pb 8.40359741527104 3.539954858500968 4.219053175613621
Pb 5.735522833061407 3.0910803271417353 6.215615377599916
Pb 5.062226865094437 5.9915918951663745 7.827598200779661
Pb 9.303214349447202 11.650820540738762 5.585666183078995
Pb 4.907057128735554 9.18153682705988 7.388042028609244
Pb 9.173428364355578 8.988815917464553 3.802507597263263
Pb 6.5598655005156 6.187440281671381 4.63087820545323
Pb 6.383515397008005 10.529399165321756 4.812874727842405
Pb 5.408719658369499 3.16289844860457 2.9820237803201204
Pb 7.376031253420841 5.271908665519894 1.5170788898541516
Pb 3.3370484276947576 4.888526099129036 4.868831855423404
Pb 3.9069496118963407 8.110856330412942 4.242493024041214
Pb 6.284554152085248 8.365946636134321 2.071818433645383
Pb 4.147431337059216 5.865113073858706 1.8329396341541495
