44
Energy = -144.9274681 eV
Pb 4.718531426622205 12.28027254128751 4.737366149220273
Pb 7.454293726675144 12.969726203416027 8.881030880219999
Pb 7.49594132282145 13.939466649297936 5.2462989022534705
Pb 6.689200708893091 12.019924333523475 11.961921551711864
Pb 10.224684694243392 13.16370234396851 7.1881558043714096
Pb 5.457140496668872 10.390293817936817 9.368667185613004
Pb 6.124166305561982 11.095344653041332 14.918933467318487
Pb 9.945633093377257 12.642111434618657 10.904819743478427
Pb 4.708360369797884 9.292647590959795 12.616497788494348
Pb 7.000087314508434 12.187586107035933 2.4718756083254423
Pb 5.272093429170448 9.566013669739895 3.0666576703240422
Pb 9.114988591556871 10.882583757130984 13.783562842303974
Pb 12.698500312757728 11.600293294710381 8.865992428101753
Pb 4.363768885587227 9.381149797206522 6.39188853836726
Pb 7.86614391015677 8.534471122465032 11.309986001030712
Pb 13.14073094474116 12.776869233447128 5.857136828179838
Pb 9.269291744020467 10.180787523982552 8.51739389735697
Pb 11.099109213475721 9.677873878971875 11.119510741992261
Pb 7.109695233812661 8.068800249590954 14.589486166965651
Pb 9.918460625128523 12.34032183966673 3.729297587810183
Pb 3.861095498497466 7.479219397269336 9.921754650023923
Pb 14.416278889632343 10.008353265965237 6.540219266024644
Pb 13.435330593221668 8.332529771348392 9.20155392073442
Pb 5.877869959236257 6.0769762512732655 12.143353729618708
Pb 10.324919965948611 7.946239870808426 13.944543247420354
Pb 7.482817343314749 10.703147032625179 5.577857016165337
Pb 6.65220232623704 7.539570136197904 8.112368238736243
Pb 9.449664276524421 5.627073106485213 9.316228166360105
Pb 11.319570450567255 10.128883537142217 5.677485605372168
Pb 8.868653666647594 5.132631416844644 12.959428776626101
Pb 5.310399578017808 3.975499137110838 5.851035871280693
Pb 3.531103075234654 6.262750919769761 6.936664512743403
Pb 12.769763407590032 7.141276210537181 6.246512111114702
Pb 11.944591492838171 6.423392580410959 11.602459137800492
Pb 5.288145204973691 4.512103464966844 9.089254759131459
Pb 12.739559208595299 4.852920715059775 8.791843714946914
Pb 6.206706608069562 7.016490280202262 4.902225842526072
Pb 9.313756383385007 7.650284084008661 6.130208687922483
Pb 11.097627648950667 3.2900222325364 11.464184750969928
Pb 7.968878670492644 3.1816740399835264 7.232211414644093
Pb 10.67499577855735 4.667344111985596 6.248961541732851
Pb 7.976598024563402 2.977626948780052 10.559245881684337
Pb 10.6910769052304 2.262454453112679 8.553463687825833
Pb 8.574990622184536 9.268714921665541 2.917873613243888
