46
Energy = -152.59038486 eV
Pb 11.94451582207145 10.684971426815807 3.428428962165238
Pb 8.867395159384726 9.43009368486269 2.7188737720939637
Pb 11.36477704394446 7.450261680330866 3.0836266744528067
Pb 7.91042603902809 5.150761473577713 1.4265398283013655
Pb 5.580310207748299 7.68334123716186 2.7196887753383034
Pb 9.361941702696921 12.032106921551883 4.80782180491233
Pb 10.601205167822854 4.181996983072713 3.153367171389325
Pb 12.195438782768505 11.484059588233553 6.537834255554057
Pb 6.351812461239183 10.312505967244372 4.669094252654305
Pb 13.124734109744765 8.522498342652073 5.66935530206167
Pb 5.107504194042091 4.412735257366933 3.1771501564329947
Pb 3.1915199364151405 9.572218424373114 4.3013342584570236
Pb 9.900530191059904 8.921702489622295 5.885019910585731
Pb 7.749986043639869 2.653940591128667 3.4372517876583193
Pb 2.6817145627019348 6.419887309025862 3.8510152135311393
Pb 8.19176527207701 6.121306056487215 4.406812755432918
Pb 6.875745468588708 12.490690407974345 6.886291868854569
Pb 11.403475576700714 5.650339018893234 6.1176804759429455
Pb 5.106400392817703 7.249711193624095 6.078425883531963
Pb 9.504843126431235 11.49306295921554 8.403239152710457
Pb 12.900836948447873 9.461545094250399 9.255815586689774
Pb 9.497683312810961 2.893358359180854 6.201160408739795
Pb 3.987472780928447 10.508635375162656 7.3281214605392915
Pb 7.694116357394106 3.384297677528085 9.41911789418865
Pb 8.285181768717136 5.986115993140656 7.613227850386206
Pb 10.782796518926705 10.57931409655092 11.513358354111649
Pb 6.243719421830413 3.5922186984239457 6.294681810195105
Pb 10.18201024751652 7.782071213599652 9.845331976807275
Pb 7.416693393770575 9.718732346805828 11.095815229704042
Pb 4.080552242144125 10.704917663177987 11.728064833911004
Pb 7.12941327271495 9.275682912271204 7.8904638881592835
Pb 13.109561125461909 6.250135699343132 9.634792009902124
Pb 4.5552282788796115 8.054577092350277 9.987469353181377
Pb 1.726789435100843 7.996261728495171 6.870444624656904
Pb 2.877263194647907 4.919572738046525 6.789373131172606
Pb 12.689749782348375 8.025676068387126 12.307831400312555
Pb 10.771809725834697 4.056858343487224 8.991975962979428
Pb 1.6971502388762931 9.667791400101608 9.693242737657759
Pb 4.798517100001499 4.912654832227175 9.350444395574737
Pb 9.581008920367793 8.12968783873837 13.228878750061881
Pb 7.338376788920393 6.30823125138916 11.296986070763339
Pb 5.39037909536052 8.249333870235933 13.337095468697747
Pb 10.806574583801396 5.375903541437044 12.03946007228669
Pb 2.1868209315883163 8.212004857779878 12.613390703798009
Pb 1.6801237075544384 6.30238062232691 9.909638710387599
Pb 3.9537461583376565 5.5061945080950245 12.40074360591978
