45
Energy = -149.09680534 eV
Pb 9.343734742858459 3.860795213175233 4.5298616782443855
Pb 5.75689801703224 5.340693443222502 4.031072839413046
Pb 8.273184034799312 5.978640879324335 2.0262342843444308
Pb 12.635824543083142 3.472674360162979 4.901567063109878
Pb 3.9708810061153215 4.1270924968067995 7.117801097818877
Pb 11.394154398284702 6.064827988251805 3.274465915196998
Pb 7.337076152190263 4.560156938356374 7.20695508730347
Pb 11.20755629449219 2.767650538575748 7.82791806562942
Pb 5.594872880815258 2.917421884698502 9.954753167704528
Pb 14.293925105138692 4.213746463595018 7.597860625588931
Pb 2.42051719615424 3.8408900847030227 9.954334277753004
Pb 5.949348017904828 8.364984429164267 2.2330155620896606
Pb 5.252140176968975 7.1171046489903445 6.8258587839912845
Pb 8.528212108623384 6.964129530106912 5.139020883815527
Pb 14.0324426077764 6.45048679377299 5.299135957292847
Pb 9.437487835357489 9.080535324066677 2.7356654918679126
Pb 3.9982421214520563 4.077272846003439 12.667765244655973
Pb 3.3813191933868096 7.54320327216782 4.2413975847088325
Pb 12.519386379724471 4.778343132552787 10.184351779903134
Pb 2.200698016746843 6.641391307202608 8.168579424754226
Pb 11.187250719380758 5.7766766989377025 7.022075413670215
Pb 5.144183770837212 6.149216023633884 10.071242346175335
Pb 11.442529643089252 8.680672232248575 5.530519538412883
Pb 6.907761920715255 9.94187457071662 5.430985156962715
Pb 2.3526464194044747 6.708248415732449 11.60128031661237
Pb 7.183915058784128 4.596583382024863 12.614889483138253
Pb 7.208691529755176 11.435292568966133 2.462196658210594
Pb 9.124913878343815 4.9960895066844495 9.962024078627405
Pb 13.663027982378594 7.460229456311268 8.483126207931855
Pb 8.694220536073251 7.9027755413759895 8.45079810369987
Pb 2.9895141453372727 9.6619751019675 6.753262886664473
Pb 4.246001297617736 10.764558932952655 3.7867295879039236
Pb 9.521256265196747 11.730087157192905 4.989023450865206
Pb 6.109204887105057 9.806610531161649 8.72786475273235
Pb 4.627525736048703 12.6611268630719 7.350050545730046
Pb 11.214017626002764 7.722150473028198 10.656941356370774
Pb 5.0839402856075 7.008150779547371 13.445641946090598
Pb 3.3042372147374306 10.797738862904517 9.78623780498285
Pb 8.114027558338998 7.692481732418859 11.878943328903134
Pb 11.062446013600542 10.094858401075001 8.376952355297902
Pb 6.731942108946435 13.38914196275779 4.936470222504457
Pb 8.01759046982798 12.565408057843403 7.844492473655939
Pb 8.679642262873626 10.7373115071283 10.71672709975163
Pb 5.987127960601687 12.749017327539221 10.408418290986555
Pb 5.539710332997783 9.910774348854543 11.942702670084028
