46
Energy = -151.59400803 eV
Pb 7.691392875797934 3.4069137169577997 4.873588337751121
Pb 6.395556509395201 2.696640997258774 7.942056112545541
Pb 10.01229082099534 3.0910478294151784 7.3820492240155415
Pb 3.7268210922470164 3.60520477008046 5.084302845722431
Pb 10.73870655001807 4.487554617213029 4.515985910909304
Pb 8.535503656825437 2.9963419603025585 10.512207536070452
Pb 5.798091763240543 4.967263856889463 2.902697307582295
Pb 5.337164655443465 2.5399173808218847 11.09098012887265
Pb 12.499257487890278 5.244659865492644 7.233219249129114
Pb 3.537346893909813 4.018824092208263 8.671832917173617
Pb 11.685746796319194 3.952387014908974 10.113014785268561
Pb 9.401376911395536 6.0332550062627295 8.635318424399918
Pb 3.090998758069869 6.455481702814107 3.5418361541023358
Pb 5.434275606276886 6.0703273679304575 6.173328364365121
Pb 8.468471596001853 6.6647570793306175 5.180621555836269
Pb 2.119160185127323 6.127581268013158 6.53252420556317
Pb 3.80133423440458 5.239074639259562 11.827605144066311
Pb 11.888815264513696 7.700400550602865 4.517912852621352
Pb 9.095769394753853 8.68687696270743 2.6788947149677593
Pb 6.8489118190747815 4.769029282994323 12.898015655599274
Pb 9.751319754294682 5.9701962408177955 11.872773886638374
Pb 6.304930443842364 5.6714294741066 9.77814322933176
Pb 12.179507698191685 7.325757997490035 10.040134378009666
Pb 8.028383776554822 8.1827972604146 13.529083847261564
Pb 5.78924707112932 8.314631113807625 3.122776033803722
Pb 13.682808575283861 8.285443109490336 7.2844267655966215
Pb 10.379648878315468 8.995326977084817 7.00650769310748
Pb 5.998603559680759 8.796263185246294 8.280211526161692
Pb 10.491724211246073 11.386110484136765 4.025648890590217
Pb 7.726569287355358 11.649606871334695 2.5525958006693497
Pb 3.1618941296734167 7.374675979326003 9.444953736331787
Pb 10.723383898852926 9.780225138201542 12.524977126474404
Pb 8.626532639449387 9.212256235610536 10.238203523552215
Pb 12.947092962354494 11.052623619718851 5.944287904726725
Pb 7.4242871673946 10.117830284478247 5.563571637417164
Pb 12.161334580478657 10.638526194741024 9.248489297832775
Pb 5.5026597711775445 9.203302204948864 11.663624633345263
Pb 3.6888882386845463 9.148356641392828 5.681028444038866
Pb 4.902005421220238 11.623486675527896 3.9458136843473177
Pb 7.7712401798789115 11.264532776735765 12.943072937418286
Pb 10.23303508148625 12.342793081540089 7.165035063104523
Pb 7.600230326784453 13.342167200241715 5.466421718726343
Pb 3.6111025191164656 10.70276763603743 9.353059881213944
Pb 9.654786092589182 12.434844158445685 10.685158967309707
Pb 6.596481793387165 11.941623454110584 9.868073139007473
Pb 4.9408581975812815 12.43078130360827 6.998535274395521
