44
Energy = -144.41008406 eV
Pb 11.237206597084018 5.748366684609398 11.694400212963151
Pb 12.217589726944448 4.419324173439272 6.1592399651464955
Pb 10.749554036685032 3.5276667358706417 8.960792505428822
Pb 13.04194772090835 5.761266019785744 9.061675602012212
Pb 10.512488882989265 5.214118368608248 14.775708292359266
Pb 10.488535733316612 4.788741476769232 3.4361339914480813
Pb 8.604770827725414 4.152998433671258 12.234376818828519
Pb 9.039503323476556 3.5672330792636915 6.05479003570803
Pb 11.677104628010705 8.705486823807743 10.5287678802555
Pb 7.6401699197429105 4.651315021929117 9.05018606493879
Pb 11.844660782503922 7.380966708031385 4.9657676380537294
Pb 10.153774959700097 6.648048348534101 7.879626456993582
Pb 7.629763362773003 6.327988977622031 14.56779987465984
Pb 11.913966830899689 10.000257136652714 7.263903407349651
Pb 10.538672777289538 8.310751923567473 13.957393746379442
Pb 7.36329309420607 5.679434673593834 3.430276627491166
Pb 5.638787187811463 5.549725354872973 11.84064843270106
Pb 9.704947158290711 7.805558906213953 2.3741381802195525
Pb 5.97139251423311 4.762911220043278 6.303764239437961
Pb 8.470581925231633 7.710497104369738 11.287978655413093
Pb 4.338333522122133 6.075004128779885 8.780865216347477
Pb 8.794462926044917 8.868466900311018 5.380158450720857
Pb 11.504038669741172 10.638616623325415 4.0611986922137815
Pb 11.862897221361948 13.163695084323207 6.152515451596063
Pb 12.127368279924838 12.325660132654178 9.452551010369364
Pb 7.6244868043484315 9.674043948339405 14.03128678620683
Pb 4.7615212975415515 7.6039501079262735 14.18728266777834
Pb 8.8865711576544 11.047306599386461 2.2498620383833905
Pb 10.09806155955038 11.216171703053323 12.16328010551647
Pb 5.016642238057547 7.522625066297948 5.184487364117395
Pb 6.572284036708787 8.881364576979259 2.717650590431449
Pb 3.6854220514270497 8.282587728747167 11.198183139128027
Pb 4.308279604035825 11.349863326927212 10.256288572962012
Pb 9.303718266403166 10.51458805947397 9.098148130206765
Pb 8.787531593187477 12.23348438304749 5.108480193154158
Pb 6.894781877387154 7.923708335955646 8.041407190127785
Pb 11.562631519779924 15.287003216084074 8.444400267506115
Pb 5.981052396346597 10.645692079008487 5.615473272232976
Pb 4.605482883120765 10.641271784310575 13.367333454565433
Pb 9.282460231110601 13.913311201679564 10.245007571343448
Pb 7.004324499320463 12.233278171630065 11.955636007962083
Pb 3.878188074732056 9.202615410364558 7.9336959246788545
Pb 8.818275361828515 14.665708751601105 7.109873676063355
Pb 6.818568861472282 12.33342243156854 8.393662521629809
