48
Energy = -159.00122637 eV
Pb 4.490675703677193 5.1152987989003345 11.120317016322966
Pb 5.29283333569381 7.323621773840944 13.439331496584762
Pb 3.699641763014433 11.197091547835786 8.393641973672569
Pb 4.310290170924376 8.185807236429719 9.859327919627113
Pb 8.23579154256251 8.802996558662642 14.552751010649741
Pb 2.3511282695055575 8.376254894131334 7.0130521030757755
Pb 4.077839334884177 10.396897727058828 12.455007195170957
Pb 7.110389125916393 3.3890882684382566 11.423688042224548
Pb 6.221872021706725 3.3468821180515738 8.338549740080312
Pb 3.252416237289021 5.278375050258659 7.973988210135787
Pb 6.672027455617965 12.970085517538912 7.016651187387242
Pb 8.294498771288627 6.161462549935536 12.41781318831381
Pb 7.049899751351047 6.387888362195319 9.432347262333467
Pb 4.430550814742937 11.005791882063019 5.2522997257568225
Pb 5.284780313764325 9.802767930474962 15.356425149672893
Pb 6.651876188564388 9.82656751432501 7.950177603299163
Pb 2.9065906757265827 8.521025684867613 3.774396049495877
Pb 7.107682915930128 9.307372070884545 11.373219831374827
Pb 11.983349926428728 5.961744559440139 10.218517590116658
Pb 7.0087198686746355 11.80089872712959 13.575788258126405
Pb 9.400480492879215 4.098986219900472 9.211083071255077
Pb 11.069644406567164 7.712615734148367 12.903557705972672
Pb 5.106870211569475 3.9376751455027774 5.31236980352618
Pb 2.306492364470576 5.60085615010469 4.915932072750517
Pb 5.332636974304383 7.247771841465386 5.954378074700536
Pb 10.05982612881733 10.742273839098845 12.414643479945612
Pb 10.04112217472355 8.712620260813328 9.766095429359062
Pb 4.634153683914003 5.947251296573765 2.7700083629633103
Pb 8.64074204689171 3.7660966514266723 6.071485988447333
Pb 13.254542957465542 8.95092296007055 10.660973192448342
Pb 5.779916424622975 12.391715509091666 10.458139645590409
Pb 11.820695025259612 4.996644860659576 7.022813770555323
Pb 9.201985414196015 7.026570605136412 6.798839845297494
Pb 7.400164487371112 11.751628688639736 4.208861639445342
Pb 7.701142420118437 5.981142043006857 3.865459185749073
Pb 6.124713541826799 9.02098349548723 2.9871567566226735
Pb 8.796440543352364 12.058434699703476 9.61755869829638
Pb 14.934427749390704 7.135138948490608 8.254481878372712
Pb 12.353190000449207 8.564110751925288 6.987440820862138
Pb 12.047453263161865 11.525010938601278 9.06424804981139
Pb 11.168006172903452 6.351059822156609 4.1339130374297754
Pb 9.340061734026664 9.029224013356345 4.061027572346796
Pb 9.696549814475128 11.095155105001808 6.59078004796602
Pb 15.14740582939617 10.46808020147902 8.458157357856535
Pb 14.243505139905038 6.3953526901870115 5.0675416447420405
Pb 12.881035740632711 9.18713429895822 3.704001826405955
Pb 13.276957682964044 11.61717481969531 5.962183329703383
Pb 15.546362413412387 9.269828663186992 5.578956184487254
