41
Energy = -135.68675047 eV
Pb 4.160551313894395 11.079483319061666 7.637135051585312
Pb 3.703586958807851 4.2546421653103295 7.050408933641435
Pb 8.566694143733178 6.306899464063045 9.06647161216562
Pb 1.6133358225370444 6.086973900439285 8.905995824825238
Pb 9.228236031876621 11.465706395617177 4.927825398114274
Pb 4.497880111034927 2.9486714319617544 12.253200158332952
Pb 6.994208629822422 3.2563385672214946 6.107907606838404
Pb 11.633139533171322 5.554832430139447 8.068176411791109
Pb 10.388437525298949 9.10349384796856 6.9816575913177354
Pb 2.37252419354485 5.534392643517539 12.08333637989905
Pb 8.460563169950307 5.61931921002537 1.2458760026959985
Pb 12.761014778190592 7.303877240274209 5.560225247175892
Pb 3.3772157246538557 7.957766482618146 6.8364671415107106
Pb 9.513278219708027 5.942621005431746 5.6066447245951085
Pb 10.049182737254966 2.9692317675115287 6.919390434506904
Pb 6.43581778242011 10.983142156392653 3.2573156010405335
Pb 5.426474804910338 5.706083714246761 13.526786232198212
Pb 9.333918048288881 9.444908000990191 10.04856635495153
Pb 12.382264260992052 4.130375788686495 5.121288417521094
Pb 7.254665445930233 11.746371221006736 9.003420127010958
Pb 9.41262716821513 3.3787428800603965 3.515969347966301
Pb 8.594066826266387 8.309455115354089 3.5788440921598927
Pb 5.189564935669352 8.008758115694858 3.599807560063745
Pb 11.654947936427385 9.631093598019673 3.4946115852964783
Pb 5.78266668428544 2.614449402627429 9.195023677327542
Pb 4.4836172769013505 11.663061545962401 10.74910184533949
Pb 7.012330472783922 8.874187454976498 0.7731979360163964
Pb 7.530980784513269 4.179278540551727 11.49800156496338
Pb 4.840394765900621 5.6956522246173 10.050776241939879
Pb 2.48952406139421 3.0682791123679936 9.827228015663701
Pb 6.2799314618124615 4.889774112163829 3.509258572257475
Pb 11.571413416693302 6.0188148949048665 2.617402596576177
Pb 7.902940593329034 7.486564577765535 12.244170630218283
Pb 10.257017696741379 8.249807840796047 0.644503589455596
Pb 6.8012459944304995 9.571038196448994 6.233886692880129
Pb 6.201369483588268 6.348151889319963 6.707028493580925
Pb 2.500748821515977 9.14580060901391 9.85104498833551
Pb 9.27993346644609 11.138054418609793 1.6784113317099225
Pb 7.1892837072837645 10.760773347600685 12.189003745884037
Pb 5.980370189890155 8.810899374281203 9.557917006524315
Pb 4.55506757571435 8.762893618810471 12.544164751976993
