40
Energy = -130.8515151 eV
Pb 14.89013842804268 8.357106611103669 6.989857794384807
Pb 13.25658858420358 8.367515072605737 9.774103221252993
Pb 12.843353748075506 5.863128635586362 7.449159798834363
Pb 12.785996757105243 10.692878046238222 7.462015686940694
Pb 12.161736705440667 11.258054547090811 10.631544406135488
Pb 12.339401126814519 8.153733994745938 5.1220573974089
Pb 10.933259235862224 5.780124709712204 10.223711342376868
Pb 10.810751971418956 3.233106329416394 7.992197511510165
Pb 10.241736741165921 8.25498519509994 7.94676829038206
Pb 9.878127793775565 8.9440396779326 11.180800388458238
Pb 9.983586664973439 5.8571138296814675 5.64165786315103
Pb 8.794528007545665 3.0450494734564857 10.66702837241041
Pb 9.956187498433337 10.63822443639016 5.531715431600732
Pb 8.68243304239861 11.949210480560218 11.993307587046983
Pb 9.040366266419177 8.484239585210867 3.229669389780475
Pb 9.666950791745275 11.7502154117788 8.771998887015311
Pb 8.68005371964647 0.8885373783196822 8.23081124909839
Pb 7.800168826931567 6.097046265262203 11.76654944091786
Pb 8.083789708216752 5.614631660088405 8.47768917220761
Pb 8.089792747387452 3.143941823999908 6.02328750131149
Pb 4.957406413282775 6.815187238160912 13.262898705564458
Pb 6.206670104791093 2.679799822235802 8.876277278272436
Pb 7.1734970619713305 8.605774899642265 6.030473580936419
Pb 7.014672989542309 9.727528875922346 9.623269042830607
Pb 7.066252453726372 9.244813079756746 13.052147572589062
Pb 6.7367391872656075 10.798870221866375 3.356440395592326
Pb 7.081018618620922 5.927351441734609 3.790331369661204
Pb 7.0483372771577795 12.027405491406489 6.467189008250783
Pb 6.191756186771331 8.14083987261959 1.549055323008388
Pb 6.876082683298142 13.177406680287483 9.548957435765155
Pb 3.446181434152771 3.8308404890502805 8.492881440321092
Pb 5.042655487700222 5.827541080379752 10.250805174070027
Pb 4.398092680254936 8.196206404371816 7.91164660148648
Pb 5.364252674498064 11.916332371953498 12.12425358153744
Pb 5.456850127328078 5.401725420627837 6.549282996601229
Pb 4.082794736448348 9.103578444720922 11.243876306423887
Pb 4.198988688547561 10.644154046197295 5.550193695109649
Pb 4.2158954182532105 7.606798252208696 4.194227018426075
Pb 4.1952731247668655 11.430948521555663 8.86204765543841
Pb 3.803104071518894 10.078818919764842 2.3514842806102414
