46
Energy = -152.26953093 eV
Pb 10.601516515366063 12.696260950882982 7.9391402001728295
Pb 7.980357402992855 11.702528093514308 9.727898277548572
Pb 5.533173977897244 13.777925959481472 8.894673440762219
Pb 10.689308541463616 9.880520098311267 9.794302157306337
Pb 4.846832993005026 11.323286412165402 11.039869067003647
Pb 7.682391591747294 13.273429046628886 6.47000681919155
Pb 12.219711427314156 10.013393676499474 6.966498777847614
Pb 10.638323524661198 11.821348075142533 4.78482059738348
Pb 2.546832701724264 12.582282392722226 9.032145726223975
Pb 8.69121543793838 10.077767241224848 6.650256348268608
Pb 5.017082962998625 8.104416952532834 11.339695801799394
Pb 7.7975625923253675 8.085629309319593 9.365328925539439
Pb 10.197314104094579 7.1656673279485785 11.599989902230048
Pb 5.220980913306816 10.724331738116744 7.589679943491254
Pb 3.8917173070499436 13.318854129069397 6.138683891650174
Pb 2.296848048311834 9.418216023403945 9.854211219286615
Pb 12.47667792839906 6.962416023306305 8.934791297767928
Pb 11.695620877334685 8.472152022842948 4.2504053459917985
Pb 7.418426714353172 11.550996855377885 3.7828675483212426
Pb 12.664928164396947 5.695287155622281 5.928199606104152
Pb 12.621857092956098 4.8359218120399 11.374340303925482
Pb 9.922772278660949 7.023418971405433 6.839800836089656
Pb 8.793008732282365 8.852524534803088 2.6959799534732465
Pb 12.84946734533362 3.297946819276159 8.493445944664243
Pb 9.79556907715472 4.056243258195499 12.81055135071715
Pb 7.117697027656341 5.364241047249768 6.484121687012109
Pb 6.411527938533574 8.186779155505729 4.880539853739583
Pb 1.2474759671053395 7.238847747688621 7.505308208814841
Pb 9.823680015979624 4.501520227140349 9.257268888027914
Pb 9.990244081593847 5.791709701559865 3.4723278280938255
Pb 4.271127936808361 10.763568212587517 4.214412740103988
Pb 10.204391062498328 3.478158692050637 5.800244179280086
Pb 1.860136711058417 10.481677691339529 6.5766765101197615
Pb 4.762698952272077 7.4402294555596145 8.071526236799574
Pb 11.371134319435878 1.8511834880615665 11.131178365250024
Pb 7.195223198703576 5.5208651968177875 11.426583579515333
Pb 3.070794920816502 7.7844306706359365 4.853761904758038
Pb 2.712087953251269 6.09348287930368 10.120542649788865
Pb 6.987844132689939 6.34718318242477 2.156458500366945
Pb 10.288148027389514 1.2084108934656626 8.205438681104727
Pb 7.369030684469423 2.1236823443799566 7.03350444919018
Pb 4.870056036374036 5.023371580586023 4.045312335381181
Pb 8.100026192926117 2.1012100414466786 10.627293732047283
Pb 7.639934226034728 3.4281545739180515 3.790917214565852
Pb 3.2679517871471377 4.801658380585726 6.931467237011147
Pb 5.659101868283693 4.015471870888015 9.086044135571308
