45
Energy = -148.44162615 eV
Pb 7.133366992909866 8.336971036036262 3.2561627930605943
Pb 5.328602966083332 7.713719467048047 7.6231498191833404
Pb 8.86071599763369 8.118784468269 13.413498241459287
Pb 4.320068771532461 6.79402761549204 4.723362808169676
Pb 13.199450712636208 9.753523133919561 4.4438204658660245
Pb 13.3792004349156 11.03842467785681 7.294428549595926
Pb 5.284711538158001 13.280401490819374 6.11670305726072
Pb 6.780749900710793 8.402690502069428 10.814337085102613
Pb 8.780277828343069 3.360532095920563 7.2329411889141975
Pb 12.188484477593493 6.74727883718877 4.189030026449773
Pb 7.2016614922984905 10.495373010667903 7.396640725729746
Pb 4.659841589200453 10.313563175468769 4.70842785102458
Pb 3.709764546532922 11.081863674987869 7.975294500259555
Pb 9.272929748610572 7.336962026956923 5.6102784554019145
Pb 10.28363235455274 9.409991261378611 3.073064240219889
Pb 10.679696184244072 2.780337215689937 9.804925105986406
Pb 13.379937927020324 9.085825136230282 10.320484936348468
Pb 8.31941741918136 13.561713141275636 6.924243538108633
Pb 7.744160283318923 11.18031906695858 12.614705310714413
Pb 9.949461632477417 4.783012045035048 12.144347372009042
Pb 10.276560250286824 4.149761327647354 4.389457472215567
Pb 12.585038405404877 5.422660636095608 10.26304021117524
Pb 7.153105215233591 5.099747360431234 4.197968616456055
Pb 4.370723153250219 5.336943678592898 10.003677078668924
Pb 3.8436806242744535 7.480760175302101 12.448959425544485
Pb 2.5611684017496197 5.729767899081311 7.276666727276565
Pb 11.93773009653042 7.342277891741796 12.79872861723513
Pb 2.696891945199016 8.216261681236404 9.505578520788298
Pb 7.539229720009998 11.722605775798108 4.319115376134406
Pb 2.2410544944035906 8.771307694983253 6.208088200268302
Pb 6.053245453440536 12.816928115288619 9.378224503294174
Pb 10.3909222007607 10.894433069597484 5.987401696196288
Pb 9.19105172926934 12.411076102572569 9.894101893216794
Pb 11.121032036635262 10.393405764214185 12.39130473719445
Pb 4.602869796762159 10.606830503390196 11.555278327702158
Pb 5.9215944434964625 9.013175421543474 14.196327284654647
Pb 12.975590253991998 7.814692906707813 7.306748461334899
Pb 10.393251624980202 9.418231458544 8.915469474115701
Pb 11.912346442266898 4.542826301939503 7.2703046402445946
Pb 7.416752668350944 3.7741586124474384 10.09516997594947
Pb 5.549501700764947 4.338137013927222 7.023508738472679
Pb 9.576265694715492 6.035091222474221 9.109477318346626
Pb 9.5185132441198 6.3599522708206635 2.246424335203761
Pb 6.650316069868833 5.844630379695757 12.796078888630372
Pb 12.317365787862833 12.140957908240184 9.994987660398413
