42
Energy = -138.21451118 eV
Pb 7.11899788364252 10.991406147244724 10.85905771486632
Pb 9.195206676527498 7.1953922452012975 11.853575624301545
Pb 8.047442886830726 13.683045983660811 9.064861216153595
Pb 5.986736601687021 7.991749473446704 12.220847881000507
Pb 3.9059526383447047 10.042701922992606 10.66743509470893
Pb 10.258746363330914 11.18411312740993 10.215881503612179
Pb 12.074862893948755 7.9315317058983155 10.476196756100252
Pb 9.023562810413573 4.004568706421593 11.736111275003926
Pb 4.887431478815457 4.918128543491104 12.141335829814695
Pb 5.197089940495299 12.238049382778764 8.418602913917493
Pb 9.389278561242312 7.923982820167055 8.71846414804241
Pb 3.3871890518726913 6.838408275597896 10.147218323356249
Pb 11.321732153621124 4.7888430992158755 9.730815865587365
Pb 10.67199433219549 12.98719077674609 7.320065928743717
Pb 5.764831306894928 8.676224458553977 8.151608106257436
Pb 7.739120520843908 13.132586519466715 5.608696274219211
Pb 2.613287408003811 8.955023190545965 7.934756407181902
Pb 12.183506454922602 10.083607601013197 7.880734827496781
Pb 7.004366274669008 5.746242171091574 9.738494396736042
Pb 6.322591044600153 2.5560491988414316 10.61317990169246
Pb 12.14466691002995 6.834737273703947 7.141290225140448
Pb 8.184589358361945 10.736359584341313 7.656617866628277
Pb 12.589278180804525 9.190015919807635 4.565383657695697
Pb 5.171609162215079 10.8945311080477 5.4926716324192295
Pb 3.312310937825342 3.4109165726628228 9.231933979120344
Pb 4.972989999211297 5.3103075189902915 7.067108081567268
Pb 9.429036376985932 8.88761147429742 5.27442114908496
Pb 10.576087108499692 11.85043624869001 4.094945527934661
Pb 1.7013224760633792 5.74867824396354 7.3522631097479945
Pb 9.014428595589978 2.386055629766301 8.730391795348057
Pb 8.347737969947115 5.842104688293057 5.990035659964494
Pb 11.091219660667527 3.815271055224016 6.6358362143512615
Pb 5.63655322809793 1.8827704468042947 7.276773628791529
Pb 5.8367804866542246 7.787379915355165 4.858855938356393
Pb 3.105247850525178 5.777436491479127 4.4872594153314616
Pb 11.050252243633599 6.269765056731088 3.9678226000081045
Pb 7.521521156931781 10.57575589582195 3.1116155170068085
Pb 10.45060097835353 9.282322977907981 2.1326516508791173
Pb 2.746881173999392 2.8725504137161932 6.036617887943944
Pb 8.353166611885955 2.6943159182974794 5.45485109627587
Pb 5.398331731979596 3.455685034377721 4.323535207367108
Pb 8.165941558297604 7.120902465368422 2.659157494112999
