40
Energy = -132.25857973 eV
Pb 10.486042950185313 6.515327749012052 11.833233956950655
Pb 7.91247248129368 4.6477299153281075 11.886333384767243
Pb 4.004667352846973 7.841982698396601 11.627356375543688
Pb 10.773739443454394 3.22892754687499 11.305836190898365
Pb 9.231702960342954 9.846166944949474 10.837527740739374
Pb 12.674812796146984 5.17173442966732 9.678768387005015
Pb 6.9789867548647475 7.279527101878498 10.129761438591713
Pb 11.72725404322239 8.409819739185528 9.254843255466904
Pb 1.6169050688790028 6.196884572502976 10.130946702956154
Pb 1.7892566587689709 9.47054864054979 9.834132771904256
Pb 4.529275097497654 4.830511151777165 10.382661839358686
Pb 4.902125513579093 10.500148634995117 9.48092990530885
Pb 8.134208734588057 2.404755565135216 9.54744724280079
Pb 10.958081838860009 11.534126935259813 8.666162818653927
Pb 9.469576441075994 5.3450378786133514 8.885783165946787
Pb 7.82187074141746 12.024273318043862 8.7827188157583
Pb 11.129323370821467 2.5506153317309104 8.089781451367804
Pb 4.117672677884296 7.641091399065725 8.178711624349484
Pb 2.8414244934053845 4.8208014936736765 7.427835234408368
Pb 8.749696288034713 8.997664204495608 7.663799468812108
Pb 6.269611994525212 5.043414078590364 7.539814610294442
Pb 5.649958127043486 12.09175201311232 6.249649316399623
Pb 9.211371278797046 11.73173278426687 5.811481252654376
Pb 2.717300635241167 10.581369991548259 6.811822066982037
Pb 11.741115216837095 9.518265555353569 6.20934515281326
Pb 8.81841950178974 5.975789639671776 5.5324601227018695
Pb 8.191190789366331 2.6477765116759797 6.204575453478349
Pb 12.02326725112969 6.034042900197725 6.4012701127468965
Pb 5.881515310237101 8.829114226300376 5.417689699573946
Pb 0.8585556228315753 7.620436556213639 7.295969250028356
Pb 11.0817187942497 3.150556255452656 4.834876895394701
Pb 4.817475175944079 5.8757413946411745 4.659543613367579
Pb 8.594963469261737 3.784751421976734 3.00403007583915
Pb 6.9679039914314105 10.981953125055945 3.306640957802635
Pb 9.67696133944207 9.066027769393461 3.7150989502295895
Pb 11.105656772095164 5.882221250898271 3.185213750635788
Pb 3.74855903125739 11.10360713281565 3.728752236425064
Pb 7.71543736728992 6.817954263847194 2.6718440070216682
Pb 2.416540381428834 8.155270517554886 4.467147726095166
Pb 4.817865640602036 8.470095092755786 2.3278774330878598
