46
Energy = -151.91335304 eV
Pb 13.034635879353791 8.763907260192033 10.409334214009247
Pb 13.42303847822075 5.494887923657935 9.973013850877905
Pb 13.368963477820893 11.47358095509828 8.316956343657502
Pb 12.133624212052203 6.392265790410843 12.719613621554407
Pb 13.068804028991535 7.110478458639107 7.0149632051811
Pb 11.554602366866318 12.32968208013032 11.070443736760705
Pb 10.498783029042121 9.303746751804853 12.696797341934742
Pb 12.129963994166076 12.525322696037152 5.551171186166355
Pb 11.40282947462663 14.000716812565765 8.3244132383279
Pb 11.499509278092717 4.1369586772505444 7.684201564384814
Pb 10.499447558179481 4.060096576033421 10.96350118985779
Pb 10.339800322382482 7.16210745987976 9.934178215599195
Pb 11.943429947456016 5.055726837952031 4.633879945941903
Pb 8.54436906712396 13.524768740693931 9.78428239164013
Pb 8.926864286395482 6.231309949335756 13.011168267198238
Pb 8.98858674394252 10.339828678149189 10.006702612639483
Pb 8.79110410405918 12.143279624382624 12.86108671854621
Pb 8.850066421464591 13.352141709183183 6.254634091072753
Pb 11.633626732588855 8.229350544219585 4.289530752709716
Pb 8.830968907386943 3.715927177389284 5.539187561555838
Pb 7.008554089937756 9.409979406866439 12.994975507951134
Pb 10.869682446596755 9.957685919341483 7.134438857439982
Pb 6.2157915452660175 8.699171705918921 9.723379227008694
Pb 5.597501316024743 6.440584830006921 11.950290210985733
Pb 9.193706905289643 6.283690340027246 3.415724275004048
Pb 9.607165966503402 10.910163020217762 4.095966107430621
Pb 8.622648103775495 2.5087978277257745 8.613698682949535
Pb 7.542986335380044 10.126262325990192 6.579165218748714
Pb 9.670409913681873 6.834908120229496 6.538838966405228
Pb 6.6095769212932565 12.288102153443033 4.141666393516765
Pb 7.179860107909504 3.530904391381265 11.410662981905299
Pb 7.389318683035905 5.505656361386423 8.889727850390685
Pb 5.889762102853614 11.814193335143734 11.05549878122838
Pb 5.8172398744545495 12.704918475199237 7.3734910695129985
Pb 3.8624229568786026 9.398916853379458 12.076816242146952
Pb 6.6747728355568885 8.74164508550745 3.655367858256822
Pb 5.9939488363774664 5.104351919032711 4.195065361895405
Pb 3.0589615967093313 7.154068594225513 9.879579514272121
Pb 3.6794290282597593 10.476806327066765 8.87582900321917
Pb 5.59921541483852 7.39174539463549 6.608583231945786
Pb 5.79156769142412 3.24218364159037 6.972172159114684
Pb 4.235147478428513 10.49710935760584 5.289429561191294
Pb 4.406348303600134 4.1308903922621365 9.779556733309853
Pb 3.6964356335446547 7.369763535893994 3.8659134421091457
Pb 2.363417717260672 8.228198504015987 6.7910769440654235
Pb 3.2384264544805967 5.18053404847428 6.331342337953507
