48
Energy = -158.78332264 eV
Pb 8.622165219125527 0.7552745911376391 7.614156975224746
Pb 10.864081663941759 3.058248618128378 6.695490834424323
Pb 8.146386762092966 2.493595885377758 4.819975375324459
Pb 10.477746577040367 2.1743583692512587 9.830736456474009
Pb 10.659772913444428 4.034494250716221 3.524840273466166
Pb 7.333868131754213 1.7731597744035916 10.59314934691488
Pb 4.145058226008013 2.8209974351800238 9.164380224485908
Pb 4.834461106497883 3.0764236454269294 5.96967637461227
Pb 7.559347967099899 3.753558085621832 8.094690772562767
Pb 11.247846623742545 5.361822763626529 9.01372885481392
Pb 12.252216614777018 6.327522561615979 5.465460917853751
Pb 6.2801364700528985 4.725064713713423 3.2194244811539314
Pb 5.392779069059528 4.5679985207949105 11.601066391380938
Pb 8.674014188562289 5.85118180279034 5.4536208658692304
Pb 8.870834533988067 4.580788986570519 11.34393032020751
Pb 12.177360914524462 9.55162116727917 4.268231249583911
Pb 10.29639073525322 7.213279427681332 2.9445426860957604
Pb 8.335034777866786 6.834603434179606 8.751343531931312
Pb 7.311027801425402 7.548363788785664 11.807749683859928
Pb 3.2057604563802524 4.988673296627525 3.9774421721841793
Pb 2.2723165899879074 5.245920194300521 10.59201582299975
Pb 2.168742929236482 4.957547697556935 7.150174153409184
Pb 4.966426067998314 5.984067207109426 8.746974783571982
Pb 7.142019522414954 7.842759135472131 2.709608828309542
Pb 10.649991413453419 8.674749020422626 7.207590655217621
Pb 10.455210722123999 8.15290241663107 10.854660679427843
Pb 5.94745252133146 9.160109187073969 9.044193096007984
Pb 7.516640437913727 9.39603146057551 5.74830090383369
Pb 4.0478536727310015 7.859701785731215 11.645198694720342
Pb 5.401079816252213 6.788904864429806 5.57926499795769
Pb 7.626669506349309 11.0631193800202 2.8072938184184832
Pb 2.2076524797953674 7.949684671491891 8.778435323068742
Pb 13.86797517959701 8.723757054924206 6.953336523641146
Pb 2.391326905259508 7.898063336359515 5.322164776788446
Pb 12.511227457869495 10.284395598425055 9.65409348507896
Pb 4.74796619687158 9.766163647424353 3.8047482713617384
Pb 8.816483617865053 10.873112504926626 9.042865243576236
Pb 6.637210286178001 11.02959612541761 11.750658605978371
Pb 9.540569589017588 11.919502581621567 5.104206717203808
Pb 5.653192617253698 12.767012063406732 9.066626525130184
Pb 12.424611159459927 11.65403397268215 6.724705560940098
Pb 3.346803090882739 10.76399244674113 10.26909050129229
Pb 6.0875293179893495 12.400844592099476 5.424407253212211
Pb 10.114879261061029 11.343579677715729 11.967000890715463
Pb 3.8389743803375995 10.592376185305705 6.922416018721727
Pb 11.06027406188899 13.303529349213358 9.386173546890904
Pb 8.221740159284051 13.720636861464117 10.890148167648869
Pb 8.377899646606766 13.909488862410756 7.508335897939052
