44
Energy = -145.45949078 eV
Pb 11.275299866178761 8.109966925611223 2.2254741654399544
Pb 13.030952226586106 6.251207856179882 5.7278880571214374
Pb 12.337173363894351 9.395729331798446 5.453681728250804
Pb 11.097512395946731 5.038952175963684 3.3088755806978325
Pb 7.966314001259354 9.517497787969205 2.016459461310158
Pb 8.417177221661488 6.205507221505645 1.9496605367839162
Pb 10.369080904332707 10.900477662303183 3.5547535888465425
Pb 8.278235642033023 3.4309524026585065 4.084617351351838
Pb 5.64706032507022 7.54851234805346 3.228712826156195
Pb 9.354450315555763 7.815432305919326 4.852864582584906
Pb 5.277942965984436 4.473301814602245 3.227607688457349
Pb 11.853181281069778 7.96554963040233 8.36534310057819
Pb 11.618045981163576 3.2862928309405084 5.921497708260543
Pb 12.68989275746336 4.8071794576342635 8.68702268499778
Pb 9.762282950928638 5.377521480287262 7.310424377652923
Pb 9.312556094175497 10.56933298217451 7.046600794048653
Pb 6.377135714679449 9.079735998460349 6.115761820888493
Pb 4.748576823019792 10.521932993652934 3.5564380820828325
Pb 7.913106330839076 2.238726532642052 7.237560971628683
Pb 7.470686871556041 11.82485382779965 4.585776469621359
Pb 9.678161152872962 2.926488238787603 9.910316144564096
Pb 6.633780046158846 5.594870649905423 5.895002164138884
Pb 4.622453253340522 2.4485736854605165 7.854218736050425
Pb 8.41801896398017 8.05921130562944 9.11492133846195
Pb 2.972114516709411 8.851648238765032 5.845698577442933
Pb 3.371025283109879 5.541846575725378 5.648250289246516
Pb 6.627998065670344 1.3421496952749263 10.161156325207282
Pb 4.184307911834785 11.787860722470398 6.818119958046544
Pb 6.916535857347828 4.656805854396525 9.162487325705047
Pb 6.575578428921665 13.263015854697624 8.769837257343847
Pb 4.5854910489136325 7.128078968275613 8.29331937826463
Pb 5.849807814357256 10.174384390584391 9.328861231380515
Pb 10.44731043593243 6.010890977590773 10.64593874073893
Pb 8.907924024601217 11.361507441550145 10.247116090037077
Pb 2.3311031077592594 4.656018689629173 8.543335600917755
Pb 2.351869448467714 9.656204543928306 8.952025284530052
Pb 4.274377461443659 3.4119099385315583 11.031313691505291
Pb 2.708737597907447 6.772301682728244 10.952306888448792
Pb 7.368987881123005 3.7065043643127966 12.23628196400463
Pb 3.5987683283452006 12.556263492574624 10.039939784535889
Pb 7.428019833243228 9.352643370076725 12.222482592807173
Pb 5.824588334859896 6.571961290277038 11.606924384302683
Pb 6.24541999310694 12.422880732294898 11.874340816347901
Pb 4.039950777586276 9.864958926775252 12.026524623914893
