44
Energy = -144.9416762 eV
Pb 9.901564311835973 8.784709092152816 14.697003584959743
Pb 6.900210824581682 9.164061521568108 13.483468454186431
Pb 8.59701419983725 6.151811644258002 13.187900823551812
Pb 9.327857994354122 11.475189333710665 12.887173947571606
Pb 4.0187782565748735 9.433893203842532 11.73294128917416
Pb 6.207120671453588 11.828983991995917 11.601973353397964
Pb 12.010563864914838 6.8238422573857855 13.039484211813784
Pb 12.485991205866759 10.08902381021724 13.352459918309618
Pb 5.649421215986724 6.423191191191341 11.857880647856081
Pb 10.064226388917564 8.626525149479876 11.214468513695408
Pb 3.9684889002261707 11.421434742956736 9.105911423528697
Pb 10.282791832180546 4.260545461298053 11.194371361889017
Pb 11.731965849070718 11.83886736158797 10.708132191149513
Pb 7.617161807662114 2.961276916100549 9.765350176568681
Pb 2.745955154225349 6.83069914342766 10.564002352921529
Pb 13.547481746757985 8.781244989206074 10.572682900269347
Pb 6.399959403615466 13.668918808960145 9.047870193119829
Pb 4.996578984813316 4.764248378504265 8.891271721667318
Pb 12.52690507263091 5.9308000446259355 9.596953387153814
Pb 8.116938746002111 6.182405679158817 9.60056931073823
Pb 11.39967391823385 9.36600075821486 7.8598606836497895
Pb 10.207570669280829 3.661529454140474 7.976655716630678
Pb 2.7652004454835892 6.974831965033993 7.432060253426783
Pb 5.4068824820236845 8.262555300888245 8.92625571214182
Pb 9.141172109038953 7.0923493338376415 6.462140600749914
Pb 14.380538260223098 8.477540729774573 6.977898566084455
Pb 8.620969274189587 11.13447126587227 9.298756388196965
Pb 14.238792679485515 11.302088330562066 8.559154066093617
Pb 4.970036259268462 12.697215524562901 6.1089219984422725
Pb 11.31359499661857 12.797934821103988 7.631478689677973
Pb 7.158177070207244 3.5262535146629523 6.584474483778265
Pb 8.172065511022284 13.189171925747099 6.456376878404466
Pb 9.797855474654922 4.275566069716011 4.819684199587884
Pb 3.613093669973393 9.7692140853943 6.3670840919713
Pb 13.311167219084629 11.144620472121842 5.502827189390546
Pb 12.185155911896423 5.8807480775050855 6.401753193146056
Pb 4.5438617460207515 5.200641947666286 5.612421071338334
Pb 7.117053783889965 9.965242673725161 6.423854470135264
Pb 11.838924112409913 8.411903074588697 4.5038981836452985
Pb 10.203319402602585 11.45527282899149 4.587651104475398
Pb 7.198544949655649 5.979044181370667 4.071291939981964
Pb 6.968337210276909 11.763182189560519 3.6160207784921354
Pb 5.345962858564571 8.952569393178278 3.8750566710576364
Pb 8.578236066116485 8.851541871881922 3.4157158177082976
