48
Energy = -158.90790259 eV
Pb 13.875123483383033 10.884171452601976 10.251372840264127
Pb 13.551755215883482 10.325058007177498 6.940536508271689
Pb 13.12234294480056 6.68751419858516 5.658138797213461
Pb 13.702721688297363 7.791934871373588 9.0965214168053
Pb 10.834238538946822 11.974707971935521 11.247488031735772
Pb 12.407760121934684 13.01972105885071 8.461338002671205
Pb 11.937132607726316 8.902873557897085 12.0393602499912
Pb 12.708069821875362 4.69702057831191 8.178672812974344
Pb 11.582155118656557 3.777231923590432 5.398674505203722
Pb 10.930699007436584 9.82418494156157 8.80683668899851
Pb 11.223080954703299 8.942083958689969 4.3237041085263686
Pb 10.835546489462951 5.873793004584403 2.9107940215708843
Pb 11.040049741332194 6.1788832087033025 10.394870001839816
Pb 8.724094554369962 9.658694992687705 12.58313014618463
Pb 10.801376931620885 11.926262579600166 5.808560454165458
Pb 10.167217664620674 6.588118322108869 7.071851323920744
Pb 9.154955057175028 12.935118971589045 8.410253935068049
Pb 7.664251844222956 4.672036102518574 10.725771280472873
Pb 9.03720762498305 3.327117149877072 7.758973764896958
Pb 8.167920458981305 7.816089854325098 9.903776023053442
Pb 9.236645956169433 6.589250354331814 13.013516551573938
Pb 8.461347632216738 4.061638663788821 4.302611833845178
Pb 8.122141345826206 10.016510544816862 6.944863991192685
Pb 8.172079304159546 7.530247857328523 4.439907271308739
Pb 9.552357357939854 8.615563533084854 1.425489230425874
Pb 4.599709554635467 4.131099172745174 12.221094987346182
Pb 6.888396757217166 5.6112928097166535 7.1392375186722585
Pb 6.222843809369506 2.6429502394627384 5.981991184563777
Pb 6.999684087071806 11.053958773950104 10.083929902783186
Pb 7.7626651684251 5.866845041046257 1.5428546721303795
Pb 5.40930685368728 2.6242487244682837 9.296335412179799
Pb 5.398426812540768 9.618276125974669 4.981076006333468
Pb 6.059939871152303 7.079331768696251 12.538775476813552
Pb 5.597652415485024 12.284953562406978 7.000716222144903
Pb 4.960543924020428 9.182222147746627 8.306615736813722
Pb 4.5951639346982684 5.9743525658541525 9.43608595875404
Pb 8.367843015569525 10.885619282126678 3.4377265825819925
Pb 5.283812455431719 5.720875028671427 4.395826993143151
Pb 6.3701633970186125 8.714795178863525 1.9696089065859168
Pb 3.6141430602542925 12.040155919719894 9.496882559341136
Pb 2.3913763556036796 3.389940996848474 10.06887580158649
Pb 3.4074667954252216 3.9787920975549764 6.986285884902581
Pb 2.3943819891145495 6.680468295510328 11.566422158655838
Pb 2.85368276804582 7.723118580102656 6.230935831622514
Pb 4.1668975374508275 9.60166233484668 11.543272918652255
Pb 2.6279768375272257 10.983710845628352 6.546348562078687
Pb 1.7207191444742067 9.296821867105736 9.307103621957681
Pb 1.23960230448128 6.053265832459251 8.571827401009276
