46
Energy = -152.51646766 eV
Pb 7.10894026254162 1.859924678005398 12.445952741017708
Pb 10.25943054059632 2.9902671766855105 11.581721336914473
Pb 8.055186842616537 4.673681184141416 13.521360065080229
Pb 8.35390039815221 0.9332480440974797 9.631984594241011
Pb 5.195590006966067 2.144946223621413 9.853518612484482
Pb 5.109064352135022 4.4813862622135945 12.068401404130448
Pb 10.206144096720932 6.3408526467119195 11.884206405004853
Pb 7.752405172746023 4.415276111743759 10.031199531269557
Pb 11.429284841696619 2.0331082935551934 8.196798600340436
Pb 11.717885605772292 5.253903859255787 9.246341915699439
Pb 6.989561364468616 7.248968661012851 11.514987876539466
Pb 9.109289806657342 0.48244267549921616 6.484726513469982
Pb 6.065018450128978 1.6822033637021565 6.782631851507196
Pb 2.525183963695013 4.792307634947783 6.666538718093305
Pb 0.9815664864907123 7.088619840100705 8.465975138436765
Pb 4.212512343235189 6.192579236182952 9.257458881109551
Pb 9.130755335669248 3.9488763906714284 6.929404900608109
Pb 2.9928215527503093 9.299153896979114 9.61171620061302
Pb 9.201037435105373 7.835332040206348 9.197704932583946
Pb 12.4721058402299 4.551915510969617 6.17248668723781
Pb 11.183095375866436 2.088649617863042 4.7004781296764415
Pb 4.563362054858197 3.0999114386283297 4.214703452475947
Pb 0.8790960882323345 7.367495322082389 5.256378036264614
Pb 1.1048972800405554 10.090855094890133 7.073677988044562
Pb 6.145320494363132 9.198020290300768 8.855206921528962
Pb 7.934460520777086 2.5027912216147494 4.013691345986919
Pb 9.92995924718242 5.120515909003903 3.8487473312164546
Pb 3.911290456839981 8.172015995577341 6.414432364315616
Pb 3.3038091092751563 5.949936008891491 3.627200121927979
Pb 7.482623726522648 7.876833061372366 5.6903288674061
Pb 10.68968655053792 7.194495413082899 6.471950099687129
Pb 6.633207715921834 5.367965269575964 2.9973143891609246
Pb 5.855778159960875 4.999802355850243 6.548330908516028
Pb 4.078816372101088 11.590167819712715 7.4462129062010085
Pb 6.623962411301259 11.106990470617179 4.794526726249015
Pb 8.68069359547152 10.848042972210116 7.276625753653851
Pb 2.9565264938419196 10.562493994712863 4.341669427681662
Pb 4.262916731619279 13.576618849703992 4.799800838849953
Pb 7.030202629737919 13.781636780341586 6.687851925004011
Pb 8.26687334492837 8.154655623299416 2.4512797648075177
Pb 10.071706756083913 9.886839788116365 4.496745402036347
Pb 5.161275963317816 8.50370840860822 2.991797692921727
Pb 5.224305513947624 11.971070329612932 2.077386763374786
Pb 7.109989009236621 14.340668729962918 3.4006072672307956
Pb 8.55691432965115 11.713325127133938 2.0977317674317884
Pb 9.651012987371924 13.10287033349458 4.877494557676161
