47
Energy = -155.81068413 eV
Pb 12.497983110266818 4.4043262944359425 5.860154831511193
Pb 8.18870147334005 2.585005968324218 9.024714805918597
Pb 9.740381036903623 2.8245109582605767 5.9656239527499935
Pb 10.928529991775783 4.318319553929867 8.661143109108009
Pb 12.496332953322966 7.156739306558829 4.15232218033164
Pb 10.727091096646957 4.410339315580389 3.040608815833767
Pb 12.088952864849842 7.050239176083534 10.231495888310148
Pb 5.093955579346816 3.0509441085792806 10.409906188514377
Pb 7.646484146369197 5.482190748554808 10.633559500284672
Pb 10.169372570956991 7.409721553473208 12.814500617157433
Pb 4.604827473576948 5.747482854424094 12.224733546948187
Pb 5.783684469129266 2.968114955227602 6.900212200457706
Pb 10.7712419138164 7.263095122355869 7.0760399200800626
Pb 7.950062749931912 5.383212933782508 7.250720774766029
Pb 7.415399032899455 3.9547598372947936 4.053227061222908
Pb 9.234460388071788 8.765977528915109 9.928197236203907
Pb 2.0476659486568463 4.262343264378143 10.956223643388297
Pb 11.274324876198177 7.029011899430993 1.1920202148392864
Pb 12.2888184021763 9.862805363355395 8.664574526656548
Pb 8.09965850814032 5.766266286296788 1.2855699511645762
Pb 2.721067256686171 2.9296164596618697 8.07431024803124
Pb 11.882803566674685 9.960974228646894 11.840822228022311
Pb 7.02028917527776 7.619589413781509 13.315080595395813
Pb 8.834946461140012 10.593856261034443 12.792772152330517
Pb 8.850261607793076 9.091833825072259 0.9713331094459106
Pb 2.4931374361279217 7.558096078383933 10.532628633183666
Pb 4.860807447964459 5.206645584822408 2.135292147788321
Pb 11.182889116017334 9.915209741090242 3.0467170061949616
Pb 5.763693478505147 8.431020466923162 10.282282627540175
Pb 9.192844714809787 7.4470406295335785 3.9892669474016773
Pb 9.986241704844602 11.980906240236111 9.948494785203941
Pb 4.526658097613192 5.78394653324372 8.496991264764628
Pb 1.1977654983060655 5.743504516436959 8.15367017742458
Pb 5.780265491432644 8.35877038320919 1.589694261738631
Pb 5.760903057883544 6.857117118950534 4.864558033624749
Pb 3.155171567644161 4.996813195118247 5.2840562967088704
Pb 7.398293760757587 8.984778118449086 6.818863876305666
Pb 5.51706759427043 10.396963919345634 13.028081164986633
Pb 10.191956808053279 10.645070881908024 6.287645678994508
Pb 7.976639525745945 10.72881942377278 3.7693598041237335
Pb 2.931993673938632 8.073757280618493 6.392022918756721
Pb 3.017316375286191 7.624384996443315 3.120322265265561
Pb 3.448853170571747 10.67569673976527 10.673106564523222
Pb 4.8592207460414585 10.075181666178533 4.352478634100596
Pb 7.6446166302119805 12.235775279412836 7.364758709718983
Pb 6.656940321871487 12.029240846509447 10.418887898063332
Pb 4.786713321889333 10.766552039293897 7.743845707884321
