48
Energy = -158.91397478 eV
Pb 12.797137900407803 6.317474997043531 5.636728682953836
Pb 12.584448661719438 5.80645922453385 8.98073639984895
Pb 11.414861159448398 3.874381087055601 3.5166916173425826
Pb 13.403573981747735 8.784965188653716 7.894313312659229
Pb 11.50940733815823 7.291520270511212 2.8392858928714064
Pb 11.998835528278342 3.365856011729628 6.741944306980143
Pb 9.698755822463875 0.999885405340461 6.144856465291479
Pb 11.987875969828544 8.731291477365628 10.8556719330318
Pb 9.145154378658834 5.539726321681534 1.7968244346443136
Pb 11.961644219097929 9.682761795638328 5.154472986337167
Pb 10.063769639084256 5.839442528387932 11.10325293242128
Pb 10.268908559942082 7.735044778095068 7.7419409617074075
Pb 8.102333387662592 2.9256765895101675 3.671285278013169
Pb 10.499196098142308 2.144556148442867 9.299457552253703
Pb 9.282044492305824 5.920058977215282 5.005075622586437
Pb 6.421209753317118 1.3002047606791192 5.961614061687251
Pb 7.683515844114074 0.6867543265676279 8.81328674646728
Pb 10.773427128892306 11.023088523820244 8.519756581246059
Pb 8.691510595468221 9.032983169719726 4.350648455955741
Pb 8.367065743854743 3.7633100351652375 7.347506625688098
Pb 6.94029506777086 6.219056203135124 9.170230537520005
Pb 8.68251248302594 8.929375211093848 10.369339504672748
Pb 9.610119979243864 11.878146336902974 5.40961899856888
Pb 6.238093971296532 5.893315416160535 3.039075305241468
Pb 10.239026376324714 11.378172766338762 11.92861092236322
Pb 7.598435144717859 10.204437240947648 7.45403875048315
Pb 6.152868258214723 7.245362986089406 6.027081466541268
Pb 10.023046927139616 8.418176148575304 13.447156209757276
Pb 7.81637200045896 3.342462983831721 10.73795457745289
Pb 5.302339515173152 9.166806415903839 3.3698607035459913
Pb 6.445018036609095 11.865847159518877 4.7570486385357365
Pb 5.346920503027263 3.102443875848153 8.591692183075887
Pb 4.899195305793011 4.123414482330736 5.298474466334699
Pb 7.098463981920959 6.874793084704282 12.53772890511361
Pb 5.985273960047105 13.098452333980418 7.619849469697076
Pb 3.0973079146797766 7.16555986962168 4.52156517493417
Pb 7.271353086063383 12.128263838155576 10.50577808326817
Pb 5.375737127763668 9.565343125988152 10.089738139318516
Pb 7.324223523849256 10.13138297118673 13.124189926427391
Pb 3.4571807347298233 6.2091527034676215 7.7959904912663704
Pb 4.055001957634368 9.829586449086959 6.909890584301741
Pb 4.2572347231362775 6.690882255992882 10.938365201680805
Pb 2.020638844558328 10.31226888658369 4.419536902305045
Pb 3.160181665396259 12.945869723886542 6.098367370213626
Pb 3.2156956173614857 12.20709344484662 9.359153714154674
Pb 0.8639819275037358 8.118163820233598 6.631042857176919
Pb 2.0360103921407875 9.044608839925047 9.620579343861609
Pb 0.7736532945834038 11.212413794050056 7.435003955929156
