45
Energy = -148.00431145 eV
Pb 11.816443185698136 13.795994980626913 7.1977882393506665
Pb 9.431175063591157 13.579048262564859 4.809855729049406
Pb 12.628704869574298 10.811747095820715 8.266675443750037
Pb 11.860830100966028 11.199488671263161 5.0083035374443545
Pb 8.949318100996907 14.910381077704434 7.950478760541193
Pb 11.719621684082295 9.97686588122662 12.110687606944872
Pb 10.420037112690645 12.980433180790854 10.123490630958933
Pb 12.654425033367417 7.168240562064362 13.400353890198714
Pb 13.15615139983048 7.886566662949071 10.07309730589746
Pb 12.487858837282738 4.803787457685448 11.112434208337705
Pb 12.53853670881604 8.07904071254917 6.078491385044141
Pb 9.655936826497737 11.093635332065233 2.5970751053413785
Pb 9.291106119729344 11.512565648899647 7.400442710245448
Pb 9.912993820908689 8.868236560816191 14.559365507386119
Pb 7.0096183501326275 12.813643081940107 9.557705591963268
Pb 11.25959735085157 5.946224066565774 8.156967972782592
Pb 11.534329142428073 4.3255903972089955 14.348477496703584
Pb 11.148661162746844 8.219732995442394 3.240678086921157
Pb 10.171661233306917 8.866020631921044 9.33931324047066
Pb 6.438731658743424 13.782483336237528 6.214546137594427
Pb 8.561614751017997 10.531723513230817 11.763412779646028
Pb 8.86604878423035 5.827597933431792 15.326585704718305
Pb 3.7779546748277864 8.806222497617798 6.0330476746785004
Pb 4.683079631104973 8.851119574501158 2.9540114380198146
Pb 5.240218972152012 6.191930215083978 8.353179720133637
Pb 6.268727322713373 6.747468456098787 5.038208884144705
Pb 4.088648358767036 11.77690321050366 4.385290664244279
Pb 4.832836471439541 6.812657111312605 11.63226737112529
Pb 3.5610214270511777 8.880187649524041 9.314736325870454
Pb 6.059395936490246 4.875769696022615 13.857060709384815
Pb 6.651628335146855 4.210605005847308 10.622506299582072
Pb 9.691482863116285 3.4520058997074514 9.822611840473899
Pb 9.218854018346674 8.191369784931869 6.165270769972115
Pb 7.923905018097288 8.257844365975537 2.3700518336702516
Pb 6.876935316135053 10.372569586419969 5.264405975626582
Pb 6.843501903014989 8.063955057847421 13.95157198987299
Pb 4.445402326773521 11.632826580650027 7.629515257463174
Pb 8.216260965433642 5.159920423867448 7.38969555891374
Pb 8.682320922906765 3.257298169912599 13.06221853907991
Pb 9.275279735088821 5.743538707892111 4.127358678899328
Pb 6.772883579777288 9.321591473059707 8.845092706511023
Pb 6.451785271635704 11.346125217540111 2.1743848530898044
Pb 5.416059070438011 10.007942205766962 11.761879950576963
Pb 9.574995987857909 6.595324420788881 11.976447954821205
Pb 11.479269916825862 2.011625968751774 12.178807255184468
