49
Energy = -161.04706621 eV
Pb 9.932643943786847 12.656611251697013 12.240744591765578
Pb 12.293759733659261 12.180964542641837 9.930189660407672
Pb 6.9834903324447755 12.49775523379954 10.891151074586634
Pb 7.880831294274295 10.4410633882802 13.43871402785827
Pb 11.285413943306994 9.686730621833169 12.344817423769676
Pb 10.47136248359557 12.469957156096667 7.105959258106081
Pb 12.16370384096137 6.588399813766493 11.941085780780025
Pb 7.1514119732761605 12.427848786457114 7.64326695486869
Pb 9.394977116500902 10.697041671954619 9.635298887681069
Pb 3.9924497338315033 12.627778512819571 8.978945323607215
Pb 13.906973555998505 9.366507135250178 10.398917733487734
Pb 8.869968330657684 7.323278922515431 13.091320113757641
Pb 4.508650683450027 10.503734994639277 11.81417933831331
Pb 5.63473473057575 8.131358884167831 13.729975379522687
Pb 11.119629120259964 7.9887177565172305 9.040615958445924
Pb 9.499064930344273 5.4925621129861275 10.14864581165279
Pb 12.938590860470143 10.149859934653703 7.229110338512916
Pb 4.484496621291556 12.411394423449655 5.657843201307672
Pb 8.838643479798174 9.414220030050034 6.3872115553660835
Pb 7.048991767825838 8.629008114215557 10.651564081551983
Pb 5.300493889852315 9.628900263368026 7.726967399737957
Pb 1.5244556610465692 12.462690650172988 7.11764765883556
Pb 15.086895053345156 6.4765969166475 10.556283001237652
Pb 2.2568328226594816 9.846339466399339 9.057199091180383
Pb 11.252678262379327 10.814429957946686 4.510091367286385
Pb 12.751305616024949 4.601280179747524 9.347680084661766
Pb 14.117254134588483 7.090594461463952 7.568298422536135
Pb 6.343798510174826 5.474091182806425 11.924524693545541
Pb 3.942664863953259 7.420071008900386 10.845606287729504
Pb 2.570585461900789 9.825230098810348 5.7771976088342605
Pb 6.278849535806133 6.1666976936897555 8.549641684897106
Pb 11.742857350854239 7.667602400722113 4.831045822248254
Pb 9.295954280020515 5.937687074312914 6.608411712117217
Pb 5.961227565674755 9.620792034954986 4.482391594237991
Pb 3.263102026604075 6.568283468993248 7.256122546640888
Pb 8.972059669446212 9.070781723159305 3.1149624040396735
Pb 6.349093943819941 6.256421204646998 5.1328809610776105
Pb 10.096047061012444 3.012526186584581 7.956616123186021
Pb 7.047549018431036 3.120625750311894 9.637062227096909
Pb 4.185275174239056 3.6671350522916386 8.32589224555277
Pb 6.8059741970535175 2.740245045044182 6.4061362168644225
Pb 12.361382002841433 4.758051267788337 6.111172698907109
Pb 3.454636146759593 7.292922993964059 3.942873126754466
Pb 9.423367229630472 5.849657444938795 3.0680642548453108
Pb 3.9481954075310615 3.8381137873351525 5.062812738614783
Pb 6.537737179185715 7.065144960650068 1.9491111193930086
Pb 9.653768614750703 3.133369192970057 4.711535045405093
Pb 6.804773145892465 3.534888210573534 3.097519542144704
Pb 4.200897621119552 4.932080815425911 2.000279740990987
