42
Energy = -138.99935776 eV
Pb 6.799604998539248 6.74710871980396 2.787478217454827
Pb 6.806096955514454 3.6889952590677737 3.5835406013861646
Pb 3.9279890721057305 8.035963756169934 2.6899210423985065
Pb 7.447498378202147 11.166599305197423 1.8829885438913507
Pb 4.078170924224485 5.475846522904796 4.576627862263889
Pb 9.301940195741219 8.73074604575388 2.8176720251364396
Pb 9.900233437195629 5.5414595573815175 4.152451422453241
Pb 5.153967684094267 3.014019743754936 6.446941137529744
Pb 4.298372560188085 11.231671253051724 3.075866533766785
Pb 12.216136916337991 3.6892466465836 5.929485304818993
Pb 12.727059147702061 6.885014043251344 5.859608191652815
Pb 6.655742374357518 9.709645498101912 4.8054470636539826
Pb 9.085284961259248 2.8135059511131857 5.796890483615006
Pb 7.215069090754585 5.7127455375220695 6.227814733564572
Pb 9.456423853614838 11.594993795048888 4.567472271193569
Pb 3.49687650111224 8.995777838536215 5.71470094804557
Pb 6.66571342834857 13.20566504969873 4.176846597152565
Pb 2.1201757460697443 4.261531718068123 7.038369582303471
Pb 9.789552902126612 8.399569220687715 6.0165556396386135
Pb 13.666564794812038 5.1529268864417235 8.44028287398999
Pb 11.407786736874437 2.7875313919510023 8.996929979835128
Pb 4.197358073310949 3.7153793045860235 9.625331834778999
Pb 4.222561373973224 12.212019230727615 6.14909389529474
Pb 10.247046710898076 5.602977139038614 7.9297528752875674
Pb 7.5942189502796715 2.8927779312023123 8.594488557650509
Pb 4.274076033163944 6.745385980444872 8.080436627438454
Pb 1.1017380502186418 7.340235205080105 7.304590082762534
Pb 7.449423493495678 8.624500570602168 8.365743456492961
Pb 7.109814405282805 5.77686109337405 10.031600049960705
Pb 7.424603213732726 12.191632451899427 7.213049077184985
Pb 10.162177871555368 10.700535980708235 8.397296867584256
Pb 4.773200705339725 10.376109233854471 8.781988541625026
Pb 1.386432469070731 5.518864241928932 9.954221051622348
Pb 12.422452985150224 8.175506361751157 8.90319558716435
Pb 11.811638512944128 5.659229004431879 11.099931064010734
Pb 9.2708721517842 3.489397653285652 11.3264160545667
Pb 4.12394693997385 6.390245478826413 11.495371408004695
Pb 6.765358250157102 8.367756537948559 11.964811557516715
Pb 2.308217931899756 8.620763556592554 9.997131245560944
Pb 9.978468685171132 8.794726771416919 11.048450148438622
Pb 7.633544284650925 11.134948040155042 10.478489038779383
Pb 8.958449073800704 6.22472304463763 12.809803187099051
