44
Energy = -145.17556439 eV
Pb 12.17498833643827 9.115933831111054 7.318239440331943
Pb 8.527626270103424 9.48822902891824 2.6295620524066585
Pb 8.698181943341705 3.224980782669336 9.233959733004978
Pb 5.641298021743093 4.48501756355682 7.854956813260755
Pb 11.274684142265587 10.600393691183848 10.386919047100402
Pb 2.952924186613453 10.96694995397465 11.805307608791184
Pb 9.102375849412656 13.331818506609592 10.322871422266163
Pb 10.065904328584919 5.5485620929953985 12.2096839955758
Pb 3.925327528490015 6.817483988787793 6.339891981045404
Pb 12.896816964525273 5.868685713681623 7.059755861779032
Pb 4.621619207470397 10.059242654068779 6.45921480536442
Pb 6.1830807822543905 11.293325495899351 3.950394470047821
Pb 10.95485641801123 6.3977954722299595 1.8501741550539548
Pb 12.62052916668401 4.685415328903844 3.9814435504473944
Pb 11.069044264955973 8.41955882241492 13.150331215505284
Pb 10.966323749950714 10.313291533875267 4.538333657487138
Pb 5.029300355797126 6.238672552180174 13.441259473407166
Pb 5.436011648064607 8.946980436522217 11.520186899936318
Pb 5.515502080662719 8.139828938337287 3.6937501078006245
Pb 7.780973745239381 12.822626646584835 6.243340298325064
Pb 3.716340160852831 5.89393764759124 10.374517166210003
Pb 9.794189488274169 6.834295129504681 4.836848225720368
Pb 10.523465682465716 11.930576264292402 7.495676296104373
Pb 2.4109034590878804 7.912801653817136 12.48350035757432
Pb 8.758385041331673 10.875430811243817 12.570283173685125
Pb 7.886354245110663 7.872093026130279 13.656874350780663
Pb 12.144304893171716 7.295013101420838 10.28632655913003
Pb 9.368604896903788 3.787599870041927 3.3821462013192902
Pb 3.9610194537051915 12.05821233768756 8.906116532766521
Pb 6.129482219303738 7.662793182222419 8.54877548544715
Pb 6.084697478097589 4.989858283571171 4.474060284630337
Pb 7.729902419676277 6.413391455105449 2.006525669630762
Pb 7.262116509822488 10.938369025467496 8.953877749429399
Pb 12.941728039446433 7.875010407250201 4.225094426004017
Pb 6.957146326319483 5.371407191305862 11.011988753321232
Pb 7.898327601120808 2.8842497992050355 6.158378509475155
Pb 11.837810243710877 4.0794181171134944 9.666268224819106
Pb 8.935928163061748 8.210666936885545 10.453043705473105
Pb 2.785115474234447 8.768192089906963 9.273956641338573
Pb 6.390815891006494 14.167523319875084 8.864687154860489
Pb 9.679169830456447 6.035757441180249 8.026419037754701
Pb 5.984416022754916 12.442240667568322 11.628901062847188
Pb 11.078855907395733 3.210320909146114 6.469467869818205
Pb 8.049072823227943 9.471569559109104 6.002211234069993
