44
Energy = -145.47037985 eV
Pb 12.046956391014366 11.294590592053972 11.188354299769454
Pb 14.582786201786897 10.145321980113998 9.477641355772056
Pb 9.555654782433704 12.706360913824327 12.719109697844603
Pb 12.385665812261125 11.887915957097912 7.770750583723637
Pb 13.008943706733769 7.86662771815659 11.399731269992419
Pb 10.150521000440051 9.462101934150871 13.14642325950372
Pb 6.85829747166687 10.904401340232413 13.000737681058892
Pb 13.985661284077256 9.461853675473908 6.309424712864343
Pb 7.091177723154537 13.248051060858309 10.611854768461239
Pb 10.081409577992584 13.386526404639614 9.557594021119538
Pb 14.481256133289119 7.070278063725794 8.45047238127612
Pb 11.308837165284642 8.708012356829832 8.559978261316076
Pb 8.488577842062888 6.085369356783736 9.392636461448586
Pb 12.23311525590291 6.7496281359780985 5.886744533146465
Pb 10.292860976270156 6.24075522639529 12.19315570726056
Pb 11.840911630590638 5.5073596520047765 9.29432774241694
Pb 7.461738817535228 7.6576214804385705 12.3589772647339
Pb 8.761306775981575 10.429012157467428 10.158870558011763
Pb 8.72878961917278 3.4999294385211024 6.916618656338973
Pb 10.793610910196389 9.894276794058367 5.551805612681157
Pb 8.932524785243519 7.09320979734627 6.1722430650406706
Pb 6.852621639194743 3.135614248938573 9.768630784547506
Pb 3.587951960117614 3.586547660901804 8.81791102276303
Pb 6.51607532864197 10.915762563936308 7.343798021530266
Pb 10.303767666100114 7.7877220770663635 3.0452938134556606
Pb 4.710546621551654 11.227401373181344 10.250164087567356
Pb 5.157370047672606 5.5759815437887355 10.982153750089108
Pb 5.671636641460801 8.120650922453715 5.570035648072905
Pb 9.840286034167908 4.822049056040072 4.084760475981488
Pb 4.404682912214941 8.783699070117915 12.228429681523501
Pb 5.947226730230177 1.709790683795248 7.069122431666318
Pb 5.832362923628473 5.187638777626545 7.1763463633952735
Pb 5.97739144441585 8.31613846365778 9.21373006100941
Pb 7.855296744316053 9.920024792898259 3.771495113140753
Pb 2.649520398898888 6.335276636079486 6.440278356587029
Pb 3.5612761359003797 3.2208214854173582 5.541368913217351
Pb 4.791475708625037 11.217873103395062 4.560748669784118
Pb 3.3335690877165867 9.92087447785306 7.335672852217894
Pb 7.316105692252793 6.554017897041606 2.7319931704664384
Pb 2.8960181366985887 7.275322256095669 9.559404807309168
Pb 6.663314699110341 3.4155758535833374 4.335468106303876
Pb 4.240709971790636 5.779472587327023 3.499568828245341
Pb 5.1402169068921335 8.960794026140704 2.244398757229342
Pb 2.616119493169453 8.874471178118117 4.30349692929612
