43
Energy = -142.32110298 eV
Pb 7.624575758087698 8.985552246768012 11.989938006454356
Pb 9.817275244792667 11.608920322478303 11.41607672561882
Pb 6.104617050535233 6.067723262025361 12.528407490864963
Pb 5.474489906016598 11.444483249844458 10.742062802290311
Pb 4.51454816398592 8.26683985583583 10.72180419243096
Pb 9.249212772290848 5.918424032819957 11.91012705484585
Pb 11.179161980084919 8.6225459650987 11.530398632884852
Pb 4.59088819729822 13.089006662001646 7.9027597552035385
Pb 7.716452989335599 12.89023479144696 8.97383953257518
Pb 12.845930589924043 11.066780860898726 10.257287072726875
Pb 7.235497332243751 6.986062809013449 9.309495784907815
Pb 10.93693559829486 13.052818623638103 8.663189880354695
Pb 1.9590026681320083 5.06786605814636 7.8007443695592755
Pb 4.592775930536124 5.182088212689337 9.63563067547185
Pb 7.282565084891726 3.7351728401245596 10.443495566064827
Pb 6.325057581782889 10.051019587826804 7.763705534156019
Pb 9.89239426906798 9.875337004274574 8.588883843319675
Pb 2.0275639176628095 8.026438216702378 6.5535414455680545
Pb 10.59130264492638 3.43557899641847 10.249401491015922
Pb 3.082838414900638 10.41527414969859 8.665161141271938
Pb 6.9862559338549035 12.670130569003712 5.727125229095909
Pb 12.560913273340168 10.889691886977438 6.953862264099743
Pb 4.042455274123103 10.975747057533944 5.546614522196743
Pb 1.6576691961649261 5.366448046109291 4.675200810036075
Pb 4.750673862578705 6.234537400532804 6.145892645565596
Pb 3.7829030964481007 3.1532575056126633 5.848444605651365
Pb 7.838637337389061 4.152381755250077 6.8849182385002825
Pb 12.943434080663701 8.230007732473359 8.703986359941675
Pb 8.163091793974838 7.683399040491474 5.852135007003113
Pb 6.62792575589632 1.2172686507178312 6.283352817413677
Pb 11.228447751590686 3.5949815967756593 6.9525443271503296
Pb 9.099780054953989 1.3765535153075419 8.230844216374276
Pb 9.645677324627735 10.739640279081684 5.038591160804186
Pb 3.5735611254482813 8.010361400257693 3.6642442284958285
Pb 11.376023617731986 7.855565800876628 5.602838946334457
Pb 6.7049968349622855 9.891283914123257 3.7882342794006947
Pb 7.057658530452725 3.1855132337511076 3.7114054613284857
Pb 10.322891292097035 6.317812699904579 8.684867815112847
Pb 4.24330136887544 4.776084364747178 3.025464294455978
Pb 6.892175075130023 6.687463321656554 2.926450578122577
Pb 9.601812979318716 1.675911181389958 5.0766559061404495
Pb 9.745643640360434 5.086059037510624 4.216488879135214
Pb 9.587825680669466 8.474411285750916 2.8497839713268514
