40
Energy = -132.33042856 eV
Pb 11.30166040743696 2.713501234954472 9.423933168001309
Pb 8.780500688185002 0.8247647147936937 9.847034386076706
Pb 8.953427819777998 3.6551874847542836 11.607653265670688
Pb 11.992451874925184 4.436134762569781 6.711876781056327
Pb 9.677108049240697 1.7217998900701659 6.5809592687089715
Pb 11.735728267193277 6.038327226690932 9.725283322979351
Pb 9.529265545510416 4.068838134723057 3.9253594147442965
Pb 6.076126996904268 2.343154070419713 10.62562061662631
Pb 8.263206609369387 4.006813324229918 8.538741801099828
Pb 11.613603954908571 6.704065864423926 4.345764088937183
Pb 6.565532879975999 1.0843689575605615 7.564860636787654
Pb 13.168234411115947 7.52003869298991 7.216227685672968
Pb 8.752423971473563 7.350859820014542 10.622689326276596
Pb 6.018124258451224 5.508197793658253 10.846215530386367
Pb 6.860264355558751 2.3279969843701793 4.486778280172132
Pb 9.736994929684466 6.815195266349848 7.112604356217687
Pb 11.05359610664469 9.215110927134607 9.012808284433701
Pb 6.997144894550457 5.491976137435584 5.51380982606697
Pb 8.431755587332212 7.238258534662029 3.2068132132584513
Pb 4.971610752052826 4.008725633192092 7.762729897634327
Pb 6.674514953286957 4.6762871332221 2.1591238492549234
Pb 5.023226115614465 7.284127797249829 3.511141792846225
Pb 8.042929115052942 10.020831932290644 6.715163190564716
Pb 11.069938562466168 9.52361514471864 5.785416797155535
Pb 4.249130059754672 4.266730747779415 4.292824576124504
Pb 6.284510602344081 7.451072843532517 8.222175383041934
Pb 3.1011005510299685 6.453594829688742 9.08435985911462
Pb 7.37670559052089 12.866618552017288 8.27671453836369
Pb 2.7661434788349912 6.933895265915896 5.964342123452202
Pb 4.444931449232793 8.808314875075718 10.667461069524963
Pb 7.246314642698878 10.188570112153425 10.06038254490236
Pb 6.639528468854314 10.162085681109428 3.5565088037666523
Pb 4.680761441122489 9.862429488422285 6.344403671988568
Pb 1.9005645076662447 9.668401787355268 4.647535425829544
Pb 7.265405590521819 12.842233635084241 5.1191788555638436
Pb 1.8620260536254403 9.405639968867709 8.207390466779195
Pb 4.199206298927022 11.783922462499111 9.171618711688028
Pb 4.751237681998865 14.016975027627858 6.781835855108277
Pb 4.1007659590172 12.179401984644212 3.974619546460691
Pb 2.1274709528489706 12.219905737494651 6.562428364495638
