49
Energy = -162.08347037 eV
Pb 5.536258779539522 2.8975938022049155 8.754880964639076
Pb 5.164170665143898 1.8148515014533402 5.69031121693448
Pb 6.252604490257439 4.895172745559228 5.879239905515369
Pb 5.251667521682851 11.136433971869328 12.353588848355644
Pb 6.209261441117589 10.370806871480534 7.735670722575057
Pb 10.844989710421295 3.757261308115339 5.152527068378017
Pb 13.43388220691628 8.688305430148688 9.580608080589181
Pb 5.628646752519374 6.313632828069197 2.8353016207212156
Pb 3.410498616947238 10.422676394796412 9.68594365836536
Pb 6.383924389773127 8.609185774217705 14.082770781137834
Pb 8.949303796883077 7.032668208604817 12.943967206994872
Pb 9.105608546518068 10.931337079836492 9.24104707518021
Pb 11.868568094088747 2.799409642252266 8.205839555230652
Pb 8.713843227557904 2.9016459821624863 7.597700018023044
Pb 11.842749703222813 11.115415969824603 10.990890671651144
Pb 2.5885419538907573 9.526522076668517 6.472125384711183
Pb 7.9418146597271235 7.931883368344671 5.938053060510263
Pb 3.7277256197698074 8.173459351992218 12.122775996527185
Pb 7.306670431255456 13.219786746075261 10.684004696092341
Pb 10.922236118666568 13.616752074457022 9.112711781303355
Pb 5.138312069983303 9.13164129246901 4.563501437805841
Pb 10.42253265719309 5.854492349421051 7.645240436618175
Pb 4.685448840256283 13.252921457609578 8.79265284016159
Pb 7.2923564030123575 5.637737653430539 9.188931613192981
Pb 6.750898908491604 8.586399021882476 10.702009409607655
Pb 13.342538821331276 11.547632071217368 7.8929189251883685
Pb 4.740302717567455 7.298721451104327 7.655156003941398
Pb 3.76658640952895 5.206623397239082 10.175319831374448
Pb 8.907924302178683 5.95459256282973 3.495982100976569
Pb 10.763046694999586 12.524826840897772 6.063953456091235
Pb 9.944094398027554 4.152216762507736 10.503044163613229
Pb 2.9129167579908146 6.550145773319171 4.907146384871263
Pb 12.830577869768751 5.408652079258499 9.936367152526024
Pb 6.838275350319755 3.2994157612793886 3.178118061925287
Pb 3.6857411838160967 3.7281953793394327 3.5530539679346123
Pb 1.880440392444635 7.694458017566439 9.1602597192655
Pb 8.686822279795596 10.476874719551436 12.613153575584244
Pb 14.349122494817502 8.469694868930441 6.4747097718218765
Pb 10.995780813755182 9.27740183244424 6.990203144872868
Pb 7.793270429729001 13.508578146276806 7.476176142765754
Pb 3.013465996207253 3.9868013801613578 6.92561087257783
Pb 10.308852666516774 8.047845033663117 10.222431017526334
Pb 13.623728569282672 5.053176811059278 6.73254050464759
Pb 12.827766369888295 10.542397301312946 4.558253003789292
Pb 12.02868922029272 7.073566536122629 4.697291799053231
Pb 4.611145996584227 12.297884518947068 5.73345221529799
Pb 6.012330687447624 5.7624921793717565 12.493568508943902
Pb 7.742832409858593 11.358878007362765 5.011838215417443
Pb 9.90989757306408 9.235494387494356 3.5782167764968817
