42
Energy = -138.94463927 eV
Pb 12.822248798755494 6.858423332648673 7.749432869242961
Pb 11.27294452868686 6.249154958155842 3.3648789383760307
Pb 11.808861566184852 4.247791439232268 5.969791795457978
Pb 11.376108622289408 9.830641021336037 7.923091277073182
Pb 11.03551724173104 4.350482087864848 9.136877290688586
Pb 12.254375474193708 8.811715096655536 4.972706552575452
Pb 10.89849669553184 7.377848548970736 10.473136842671948
Pb 9.605257995527218 4.856419218406698 12.182162661293857
Pb 9.19705349573642 3.62961091857522 3.9585193856192658
Pb 9.923818892377021 6.897617234722526 6.306167249331185
Pb 8.058932475643644 6.145741261849576 1.9099412436017578
Pb 9.799077181765375 11.282412702231412 5.2374891135909865
Pb 7.883499894201343 9.322530062777178 7.697070581030297
Pb 8.249550026315518 2.7391849921611713 10.222890357015357
Pb 9.038389646285609 10.098446126083601 10.605206457862703
Pb 9.550085628369557 9.078718291948613 2.670833640105678
Pb 7.732944952202629 7.627193827548231 12.61177706631421
Pb 9.005609888112216 2.5154422558718452 7.086017208844634
Pb 7.918930612986651 6.091601080567439 9.405684353896074
Pb 9.28561714659932 12.437844601141544 8.17368137758645
Pb 6.978129205446223 8.387864120672898 4.516773210875061
Pb 7.049243877843029 11.380117889521893 3.1192934432390733
Pb 6.472212652846046 8.916204137978708 1.1663496261540347
Pb 6.425736054014439 11.646449588472908 9.657386593908688
Pb 6.9740091950486205 5.306109803590917 5.608549396234089
Pb 5.7029800090566996 3.65611729511294 8.406413987592703
Pb 6.315677452662105 4.793823968277496 11.942229370812301
Pb 6.073515302269008 3.5847143296011894 2.64279728698349
Pb 6.674971546836188 12.138039876322868 6.320733837374643
Pb 4.487546076559023 7.146869594228268 13.472702094396368
Pb 5.199987512153541 8.22216240077664 10.220458843226535
Pb 4.632945742844341 6.52650239828597 2.3257305204254775
Pb 5.311587097076966 10.197119690630668 12.667644254939681
Pb 4.3110159404627595 9.59374673398489 3.4949641968020217
Pb 6.162700895963378 2.133219894445205 5.4751255765796785
Pb 4.404427359845937 9.808694164195042 7.125140215634659
Pb 4.293463871161721 6.519155743731515 7.631398690939817
Pb 3.2519208552231 11.068589823609765 10.0690948668202
Pb 3.975750163157349 4.513841558973943 4.881049224576416
Pb 2.9220498778717308 5.936162251338637 10.729952263283435
Pb 2.1493782613409502 8.836892279629105 12.103978813309812
Pb 1.8420286684693485 8.382587412105302 8.921000413554447
