43
Energy = -142.64219425 eV
Pb 12.845415305461911 10.926977467399102 10.55653172645966
Pb 12.396069107180622 10.996759146061688 7.396062577346852
Pb 13.711888772488141 8.165890352029166 8.741807943784586
Pb 12.615895817644082 8.12602733852692 12.022691274971963
Pb 10.039543854297204 12.051617150200332 9.390566466901623
Pb 9.930409638652288 10.097940533409625 12.129650584800908
Pb 11.710282353491634 8.25084820347388 5.860184160740644
Pb 10.587277000046809 8.68865444973042 9.22913942035839
Pb 9.131191226709014 10.336936801909657 6.509510582357939
Pb 11.975620996811097 5.258161123070541 7.234088286280849
Pb 12.557559992850214 5.217416351309551 10.602523532626604
Pb 9.665838402575828 6.791945885108768 12.779374488069605
Pb 7.443386109150974 9.994773611231754 9.3491071472906
Pb 8.491473446612767 8.232101740547533 3.301471625524536
Pb 5.216141947934221 12.22463182630602 8.994317991638164
Pb 8.767963535111306 4.986190180605054 3.805486839593428
Pb 8.724345031423042 6.982008724991673 6.426646458113837
Pb 11.134586234051792 2.7267591304379124 9.22324854171322
Pb 9.365335676069547 5.568609716456815 9.484039751009187
Pb 6.770358119833168 11.020295840570276 3.8475502063186346
Pb 5.334121305980925 12.982699412124619 5.91192804372199
Pb 9.883119738976163 3.5109060193761037 12.042160974355983
Pb 5.911618502557558 4.052274389424331 6.598835002822748
Pb 7.132607173723172 6.022693411076191 1.2365800641640856
Pb 5.665832902448571 6.737374321552714 4.502709727450593
Pb 9.210403150256395 3.440011569360184 6.688919775370618
Pb 5.3333737492355136 9.702516992360398 6.615762226276999
Pb 6.344946839678518 6.749693479978331 8.848658341457563
Pb 5.33285856435801 8.773518832777668 1.8407410396358002
Pb 2.5853344731275434 11.925368806670809 7.1720766238879134
Pb 7.734525425805489 2.6738062408948777 9.610617775576731
Pb 6.813389586527108 8.194554075539186 11.954872831857301
Pb 3.3782304704440405 10.925240739752638 4.1386695875127275
Pb 3.5258765603098814 9.445392711738098 9.379035334569455
Pb 5.918578205712878 3.5200895156462484 3.1978486692354338
Pb 6.767537132062786 4.911883966486022 11.903875941299836
Pb 4.015212800198564 5.5642302254676 1.585990992961823
Pb 3.136868473590741 4.587392476814286 4.562140758797312
Pb 3.3454338864655995 6.122482955638386 7.678946237550003
Pb 2.548642105916537 7.6997065064907595 3.4075609424568536
Pb 2.00597078668343 8.918206189245993 6.453245468976453
Pb 4.5425266117792615 3.773863482809627 9.676776674783293
Pb 3.920339360855777 6.621984667858091 11.054880262270602
