49
Energy = -162.12007448 eV
Pb 6.522924660643521 6.0503136145343674 13.358556720161149
Pb 8.096580937895322 8.880944813251697 13.19300025124717
Pb 5.666176430750246 10.63607603118497 11.297197182031326
Pb 4.235713742644706 7.63878581171836 11.441430776362187
Pb 9.734076025005967 6.012916853464928 13.898194911049623
Pb 2.35046755784594 8.762445702277324 9.194815318537824
Pb 7.162754180513625 12.89258865783506 9.608173997551056
Pb 2.0244074176804334 5.413610861084244 9.695796442934284
Pb 4.32551898449511 11.679768819912418 8.454760022146656
Pb 11.151903087462077 8.40124548049322 12.149993144319188
Pb 1.2490300656552442 6.813233195577764 6.728889240675663
Pb 8.383945884594711 3.7487266084863835 11.979922389561553
Pb 5.542085927400723 5.098401824305174 10.097849599400552
Pb 8.778353097455165 9.97687809091167 9.922562294979553
Pb 8.472656860881159 6.708855874848445 10.739637581354815
Pb 5.846547144239068 8.538559019857693 8.699797670254995
Pb 3.705062016348888 9.285376043047373 6.369780982336817
Pb 6.338147093808769 13.550949670185135 6.598705208270228
Pb 11.382009196186468 5.177553066363698 11.170270870364993
Pb 4.225768956170191 5.64773107973846 7.158300937793695
Pb 9.915796688647523 12.987678031919696 8.02946536713924
Pb 1.4581794558860555 3.5389440818333813 6.9322703457693775
Pb 7.939562616169606 10.672338295714747 6.691539893901611
Pb 3.661385698386608 2.5514052171869213 9.026148789326898
Pb 9.733916156927481 7.749515842945032 5.54561066582492
Pb 7.026801645215663 2.5615231124227296 8.905864444516013
Pb 10.692026540458452 4.1296540476395895 7.51747387115579
Pb 12.203757709112255 10.479093047039452 9.36000932406488
Pb 7.731997176122814 5.444623966712914 7.150746673748763
Pb 13.890585807736324 7.843637002460089 10.353601034146772
Pb 11.035823949221994 7.3539720486668765 8.617100462542492
Pb 2.8353256486365117 5.057409352642883 4.371181880795242
Pb 9.211824364190727 13.264995268228729 4.888856276424828
Pb 6.24655062477201 11.841641494799513 3.9034240768581716
Pb 3.8673750752239537 9.584844319923711 3.081779290739124
Pb 11.445177295463777 10.97930599515193 6.161378121779171
Pb 4.394170460212778 2.5184250142817035 5.880658559774445
Pb 13.887909771416767 5.458380783103262 8.353085998384332
Pb 7.858727102736191 2.3369044493329545 5.862929446147003
Pb 6.480479726596552 8.269239116224448 4.720121102322719
Pb 9.665274722568476 4.4633899762239 4.3699406706837625
Pb 13.958047260033986 8.547637679269062 7.1627961672833
Pb 12.632827179878918 5.795825840588532 5.437873466703437
Pb 6.303229762338485 4.764821947768719 4.237402442223534
Pb 12.43867278426991 8.69630399518027 4.157951785439255
Pb 9.355278088829918 10.381401615292193 3.2737295806491833
Pb 5.186090934894221 6.974862222548874 1.992523508474724
Pb 6.749314700566118 9.80675349957501 1.4972956432733144
Pb 8.545766770542668 7.105008063794043 2.4579636889052194
