49
Energy = -162.47004952 eV
Pb 5.548453313526121 3.425588567270102 11.584543099956882
Pb 8.738922485147462 2.6674632136153136 11.39105815712819
Pb 3.888268262023649 2.160413909045152 8.13517828493532
Pb 6.459674049747056 1.013686534011366 9.628224110443343
Pb 3.381678097215951 5.1155697658614105 9.278721254835713
Pb 8.02098109329746 5.563220182823633 13.076391543105611
Pb 5.1765912048602685 6.578031372788841 11.748649122017149
Pb 11.028960222286317 5.104426786583999 11.617751063225594
Pb 6.585799670758509 4.138236518533618 8.453345177655615
Pb 11.55443725589905 2.4424981095413307 9.77878430519683
Pb 5.919868822134424 2.3438937881384634 5.536739894240306
Pb 9.122323088699781 1.5504758939010155 8.000051304264327
Pb 10.00822204273763 4.794554295512662 8.04993358958432
Pb 4.908748374626839 7.347348530969763 7.303549633685653
Pb 4.629035428559359 9.295970723708212 9.985189361366574
Pb 3.399215998722689 4.539224742321414 5.980906371390415
Pb 10.291471257590217 8.105641556172845 12.60861329595313
Pb 8.39454494938162 7.012624039355242 9.986878032195824
Pb 6.6562377338698475 6.447575398015658 2.0316628598741953
Pb 13.148705363387515 4.999801187721099 8.565475388894145
Pb 1.984479382063704 8.893970633485122 8.183238075765937
Pb 4.651269204818398 4.011977539151144 3.0686091023421667
Pb 9.232246385635413 2.9608324104907107 5.180942472613758
Pb 9.486804922520726 5.12508256295002 2.926027888252914
Pb 12.151488620804587 4.495758208032438 5.5003306974798285
Pb 7.266013966171621 8.968182295242572 12.400494349533847
Pb 2.642955448171631 8.269766667684042 5.098092779237983
Pb 6.839998952089538 5.503016138419621 5.126008012901294
Pb 1.1248046983358524 11.042513086797207 5.804514056056028
Pb 3.6248207930829923 6.943685546740118 2.458216010636439
Pb 11.768338310971794 7.845121622051072 9.623932270554375
Pb 2.49802977579944 12.180822179885133 8.693143615729655
Pb 7.693922798468108 9.317211272557273 7.619985039747331
Pb 9.678202743724423 10.290421016676332 10.21633884858067
Pb 6.7150090882694515 11.657958204178502 9.889276421389386
Pb 12.359375612733958 6.794269594497224 3.2178016173434383
Pb 9.925457169954049 7.433346541978224 5.55855478462164
Pb 9.565345517125518 8.450602952806133 2.425375211128447
Pb 4.706422200045823 10.887560312059383 6.757439051618798
Pb 13.130278596800562 7.7760637890515705 6.3418472588679915
Pb 3.563868946671598 11.175122315956543 3.5692213015530467
Pb 5.946885805277532 8.902714540191528 4.328016032419165
Pb 2.909693358870554 13.692699438771333 5.687824315737892
Pb 11.172622363505523 10.289138529599617 7.128617870990882
Pb 5.212453102864298 14.000082000037649 7.926668630119601
Pb 8.971260210881898 10.790656488222103 4.57765312235401
Pb 8.127602822158053 12.570778623803433 7.194639681900643
Pb 12.090876007644935 9.869481679043147 4.049888292821617
Pb 5.97280321811398 13.203961253130926 4.743676268168036
