42
Energy = -138.74064834 eV
Pb 4.368821872977633 3.2680349424028843 7.584238762989998
Pb 4.314846963047041 3.180833391525751 11.077883707058346
Pb 7.159435696374629 2.5956776067728855 8.933417163027809
Pb 5.2182572643231095 4.327959280209256 14.083762581399656
Pb 2.8176059211808444 5.868974997777088 12.595241847943514
Pb 7.020281318025596 2.963924091954383 5.390822573920483
Pb 3.2321923402642314 5.924705602565643 9.33031152326397
Pb 7.528960586357993 3.175821483380819 12.101128201958765
Pb 6.487495011222504 5.66391275486262 7.73760482920698
Pb 4.799965314342775 5.437960846737661 4.774659732926321
Pb 8.128400728706044 6.244142693131708 13.475864227348074
Pb 5.183962354507578 7.570117585708897 14.131864361388336
Pb 5.932067987134902 6.128287469045606 11.131392006706948
Pb 9.761315143740504 3.9400860625393177 7.0688637358678434
Pb 3.851628466577535 8.7617311338397 11.293236224996116
Pb 8.989645418531914 5.342886712973335 10.035313645037261
Pb 9.795842441450276 3.631230241281468 3.76171987692974
Pb 4.80602858609559 8.64111790237174 7.879252667658869
Pb 7.009738667297308 4.483736277523011 2.4535998867191227
Pb 8.342098119470462 8.595390720402797 8.756278942727777
Pb 6.174070858242509 7.786386431188493 2.672645751588944
Pb 3.680186183689296 8.748054162869346 4.616013841047703
Pb 7.054615096408544 9.261104740929614 11.899180552843601
Pb 8.1702501389964 6.315409908790923 5.07881118638247
Pb 3.8090634964054533 11.48297315407791 6.312164323287743
Pb 11.40217880958855 6.999317260153826 8.246292482337282
Pb 9.692306136397493 6.5893469523636155 2.131570762067154
Pb 6.320261433644565 11.449987675814453 8.697039240234878
Pb 6.825541194463064 9.887663571002811 5.481558634756851
Pb 8.774242688424442 9.700546949684915 2.3108264355288926
Pb 11.80367097950387 6.026791999883091 4.789773235644746
Pb 5.065727194226571 11.429596613233366 3.3050954133806103
Pb 9.215646378407513 11.243826706502222 10.529206952966291
Pb 10.003018214713988 9.106841347605457 5.8067042646735505
Pb 10.191017621880592 8.243923772751103 11.422960562093563
Pb 6.408891910519647 13.23309743425541 5.721742172924251
Pb 11.923790549112423 9.091615915486143 3.216797979771098
Pb 8.998266298111808 12.335006760765776 4.045083852083569
Pb 9.368862044272037 12.33511988460343 7.311252398445866
Pb 13.274736030721689 8.700438030216837 6.16451848474447
Pb 11.737828030600065 10.299131647376276 8.66761542115184
Pb 12.063617522321563 11.647038328092469 5.489341025291275
