47
Energy = -155.60439467 eV
Pb 12.95382584056333 6.06400880311749 4.352586017437569
Pb 11.000227959391417 3.5407885049313044 3.94126718570592
Pb 9.917338300337631 6.484028660273605 3.261748912832768
Pb 12.903867840721334 3.853375553498288 6.7998968688008
Pb 13.122136120890467 7.249792745861262 7.459264152472343
Pb 9.699919802083286 11.173567671694409 3.160006408435501
Pb 11.234093969629106 8.983309833698641 5.173976351626299
Pb 9.816758731376888 2.5214269780589262 6.791288163905636
Pb 7.956218770982737 4.494058080086598 4.903154767884161
Pb 9.027136036813491 14.185550160396089 3.5401714096622774
Pb 7.585623841651965 8.953482728925808 3.813398776653572
Pb 11.065898261851428 13.068550456979295 5.723622241869792
Pb 10.292081905663943 5.830429079600563 6.56045039259747
Pb 13.050310239249898 5.3296766705109135 10.120893549310788
Pb 11.305773394230833 2.7574918215184576 9.795350102543198
Pb 12.044413743244391 10.824517191922698 7.897218267247288
Pb 6.506072386519236 12.125513199907873 3.850230631972008
Pb 7.136182849890221 7.3633869174081195 6.687571032061814
Pb 11.425361079197634 11.749540178871158 11.181517729127142
Pb 10.121288042171777 13.678288943018563 8.789677544613665
Pb 8.176063460945143 2.629315564183983 9.81471486998089
Pb 7.771619491672771 14.282242645250143 6.4439515770810125
Pb 9.63459984822567 3.5445502283977866 12.721540168499569
Pb 5.996178201912232 4.8156909267208245 8.656136721897331
Pb 4.685682639209723 9.634279355039656 5.447032359370786
Pb 9.711598643846404 8.66200236040215 8.40223458201131
Pb 8.542725822748936 11.020964372182155 6.352897308247894
Pb 5.918438951991289 10.241440443026745 8.543851214376625
Pb 9.585928591824027 5.663325927480633 10.186385743522676
Pb 3.940479600262231 7.45784276960201 7.896405299180216
Pb 12.283504544046432 8.504639281786131 10.533727626450924
Pb 11.484121122742776 6.339669781157328 12.872441447944347
Pb 8.432738830952987 10.649062834231136 10.789905834613714
Pb 4.727061350756256 12.832176693764907 6.717633944822709
Pb 6.390170686564177 4.16768351598689 12.053188789911962
Pb 2.6245882572479395 10.514940609232147 7.815477294120868
Pb 6.62693344512862 7.5188765247089515 10.515219810836598
Pb 8.940886104751053 13.70787362900961 11.856938348709214
Pb 3.7586830286801596 5.748885234439445 10.740943717376437
Pb 10.269658423693821 9.385664428306688 13.226477221149311
Pb 6.716894520290545 14.15526432056697 9.48329146595344
Pb 3.8817180816581462 12.534365267999556 9.977713792711166
Pb 8.318129640915517 6.3526650379338365 13.748444893251294
Pb 3.7160101478335945 9.197527135198957 10.751296567379166
Pb 6.118968585121178 12.338571416172636 12.318047478663802
Pb 5.158509132173391 6.969724945522029 13.422006476398371
Pb 7.089391910935872 9.56578275400933 13.574617121370842
