49
Energy = -162.34778536 eV
Pb 13.163346033862274 5.524452906207107 4.7698156181934515
Pb 13.097983523324194 7.956676752917312 2.7777239139230274
Pb 10.539359498075475 5.888854410765377 2.755382091069417
Pb 14.276497807155252 8.61435939358576 5.755810750337498
Pb 10.051248485636041 4.531006298144578 5.959364193782172
Pb 12.817677387767862 6.0741381964153165 7.9810645779362535
Pb 7.718442163089053 4.326177551673692 3.418135069602685
Pb 9.964028127855851 9.05666435495524 2.3806053301460888
Pb 7.459650526929743 2.068588448145173 5.652778825938074
Pb 10.955963500992363 7.999393352023429 5.493209207541883
Pb 12.244892833194296 10.790733394680753 4.075697967357592
Pb 6.661674013381198 9.050983813516032 1.8573415104567805
Pb 7.538171002712062 2.684054524130697 9.216881154171498
Pb 5.227475075252369 6.256327764116835 2.5844183281320086
Pb 14.060010286290375 9.018168514462504 8.959743717434522
Pb 9.569980448887511 5.312878768638081 9.156359286296528
Pb 7.793255308612975 7.609224689834736 4.524396876927931
Pb 4.699681357979343 3.5368988861190194 4.541359165834489
Pb 6.879308002743853 5.053395343662206 6.83009715002415
Pb 9.578852700948547 11.888518718987932 5.5379599725893085
Pb 6.740308837947863 11.349909326691668 4.096736364695766
Pb 12.327420984735488 7.216198599580778 10.933912381864356
Pb 12.3757790253498 11.29635629154883 7.40214793980204
Pb 4.774720571144328 2.1861696524596232 7.652040793043142
Pb 4.886247063160601 2.2446107366555648 11.255058541944408
Pb 4.757546643632691 5.019848924648966 9.514571755069682
Pb 10.18990411439849 8.563832448898102 8.742700434917875
Pb 4.07695027323613 9.275858571243534 3.815386395870235
Pb 9.306690940062234 12.321044614764187 8.747196560483648
Pb 2.5168158756802894 6.456942577940459 4.4502238592508805
Pb 11.695317380539631 10.57377625087532 10.63539293898795
Pb 2.5556516059779995 4.431667198027484 6.931878783426126
Pb 7.265014372837504 4.516847589759793 11.937612792837692
Pb 4.313184641810596 11.435468942210568 6.431918064198748
Pb 6.957408642644612 13.42445459736426 6.634187918760752
Pb 4.4001720537547815 7.450170876648414 6.993148919749729
Pb 6.773897378838749 7.560852737647796 9.845323364128381
Pb 2.1332358223373005 4.111513967206886 11.061214641172175
Pb 4.2782507229847155 4.5684711718350215 13.467514384945888
Pb 7.366667918041916 9.923620650411895 7.114181497066342
Pb 9.299954228063411 7.358533409097293 11.91548288824868
Pb 8.240862087480153 10.32054564193553 11.143280207892332
Pb 1.8041131903680065 9.248977000432637 6.101793073439277
Pb 1.663394862828301 6.7338317464391 8.892092592082994
Pb 6.021335731852731 7.2034474340977175 13.244739283683097
Pb 2.895038190629571 7.185979549428122 11.934707735215733
Pb 5.88164644318137 11.907317049475438 9.298395766869158
Pb 5.0253756661167115 9.780162995473457 11.658739567403156
Pb 2.9016568776236666 9.731092781345875 9.15627068053734
