46
Energy = -152.30497506 eV
Pb 12.083534462097232 12.091141054795036 3.1835663137786105
Pb 12.398895711877655 8.959075262870066 3.9648682483123756
Pb 9.742343587640075 9.953953097879394 2.2487487965427935
Pb 12.889849147926318 11.313062875575776 6.402375320178007
Pb 10.862606558920774 13.9385944140946 5.584476093213515
Pb 8.905760645133048 12.96017053417707 3.126782550079526
Pb 12.429784193721714 7.735501031573222 6.892060982400116
Pb 9.43715060092327 7.0454374391054735 4.209184729630983
Pb 9.249268838375134 3.930556079004733 2.9608863229893605
Pb 11.150834431036552 4.46804715972442 5.49762009259631
Pb 9.84990092479168 10.437242466778825 5.51272674538384
Pb 6.396633801953407 5.7278073777088885 3.25878742620406
Pb 9.398359619021079 7.840248978572677 7.995416972321593
Pb 7.689880859447526 13.252486671315204 6.0705586663209665
Pb 10.1566391323922 12.216021304720838 8.209246447371399
Pb 6.5904105120695124 2.4282413263833518 3.760704720028615
Pb 6.898090051716536 10.55635682330188 4.063457091221276
Pb 11.928326523840756 9.740760155487381 9.354345029525593
Pb 9.311866340270738 1.784670935768831 5.358260356084383
Pb 6.677196444270817 7.784005492832542 6.000599955591297
Pb 11.123095256174599 6.895359597260546 10.829222191406494
Pb 7.940259792482133 4.586333704300971 6.186059764264375
Pb 7.02848946185404 10.511001565472991 7.848772910978238
Pb 10.386841928259523 4.544160559872765 8.703197695043201
Pb 4.034959943838618 10.149261496293782 5.9653744228851036
Pb 3.7761899675208297 3.791820128638056 4.836303358967861
Pb 3.7423029712425704 7.1763868667890245 4.7234500261171455
Pb 8.928165613756429 9.440579248484328 10.877137436654454
Pb 5.740666276660614 2.1284925644333086 7.113090473248939
Pb 5.0217627596549494 8.306754329826525 9.420984916286661
Pb 7.606736040469773 6.107504140390707 10.259321430618952
Pb 9.95821523012957 4.182947940086928 12.094368335995993
Pb 4.771834155592151 5.332094887250996 7.705472096098157
Pb 5.963270200906598 11.206836494435258 10.988160421062394
Pb 8.809309418433669 6.940774696286751 13.242088380094035
Pb 3.8365696376687914 11.774174275633305 8.71386456023386
Pb 1.6139374407578115 5.738673177477071 6.66663973627375
Pb 7.942147164979619 2.7026364273272363 9.770920653770874
Pb 2.5046590569844356 2.7421531188027513 7.675065911440355
Pb 2.10610559794712 8.912800132860196 8.295881480020999
Pb 5.83885867618705 8.478302632524922 12.633118783035615
Pb 6.8564423494068025 3.9369403430710577 12.641294397634747
Pb 4.5799430639366445 2.8851260325643917 10.239792430110038
Pb 2.9490879587784824 9.935666744673185 11.24531458942091
Pb 2.145078877827008 5.161397288660092 9.74686111526734
Pb 4.316273246767153 5.812315654295579 11.965806398850402
