43
Energy = -141.80040103 eV
Pb 8.740828248335946 3.6378160585778256 12.38982656593922
Pb 7.183303642570601 2.1779867626493274 9.97277158362277
Pb 9.526582069398756 4.542716120048688 9.229309557684328
Pb 12.41843367082136 5.8561130763643074 6.540844126406518
Pb 10.23477771069837 3.4868285004250064 5.958965940241038
Pb 9.305827264194521 7.010624837809305 11.91858525465886
Pb 5.639998979650715 2.672852144531312 12.759183237999409
Pb 12.07737696960803 6.549764782748268 9.816874192051035
Pb 7.122017307119432 3.936508871068502 7.132846668525654
Pb 6.410269640638874 5.378401540975405 10.633581339412508
Pb 11.159619866026588 4.909206086955011 3.28514414629501
Pb 6.615728393903058 5.496576410923869 14.023782391191977
Pb 9.344920451356048 6.648486407631013 5.794705261891206
Pb 3.983348585896505 3.085945351861712 10.006004830451097
Pb 11.57954241028022 9.318549000549243 11.184674425756667
Pb 12.115644621538463 7.940922323063638 4.090751922320859
Pb 8.003282283244605 4.532011866517125 3.7572011422481033
Pb 8.265246667465378 10.125486614205089 11.309676388274074
Pb 12.307788754079796 9.142069127226366 7.896739023363267
Pb 9.230001784352497 8.275595013892984 8.795568225918357
Pb 3.5510530036806935 5.314674746026075 12.523337225473952
Pb 5.106489955622184 5.933104356005196 5.752517030621214
Pb 5.395796610761836 8.069960689092735 12.697678272661056
Pb 9.10628590535609 7.374375318571639 2.579548720518931
Pb 10.620346536358218 11.627818938055166 9.234722022569526
Pb 12.241392343433356 11.553210158385117 5.119629710385681
Pb 2.7490721193733894 5.912456481470232 8.300815544742903
Pb 10.830500727164715 10.296839845085469 2.341394047595485
Pb 3.8925625990450796 3.269469686594159 6.824170000778054
Pb 9.476820073320923 10.196442863050844 5.628978197812922
Pb 5.384047151245938 7.875863417004321 8.65421472847587
Pb 7.403283644106558 11.774079901837158 8.379099169495882
Pb 6.465143224910082 9.089384744087514 5.766796796653278
Pb 4.928927645494063 10.422930478513516 10.61536639463166
Pb 4.7301015509897955 7.812086789972159 3.273282941502477
Pb 2.784482783866146 7.994965247514016 10.767554562743769
Pb 9.786523187636496 13.38895505234022 6.702864878435252
Pb 7.413797209772469 10.519597945652261 2.794095237922105
Pb 9.699343843030544 12.947071343863106 3.5276901003356143
Pb 2.849208860819145 8.350938961117611 6.064275311963831
Pb 6.772259551728018 12.627975369486228 5.200909318747412
Pb 4.286332546512948 11.007345826796234 7.37087266524134
Pb 4.057575262785523 10.74481053937647 4.190345372235924
