40
Energy = -131.85808078 eV
Pb 8.005699609345953 5.488782047521587 2.709163458408303
Pb 3.2101660692958567 7.15325875408692 6.717378388385075
Pb 4.875288392208369 4.24650545818641 7.2107208577535005
Pb 6.617857014764189 3.5212645128799624 4.759750949367584
Pb 2.820766004931076 9.841787513019845 8.829420262239157
Pb 3.7879199315591006 12.604475044593697 7.194902479197387
Pb 5.251228838794785 11.00207294674132 3.9251541504971437
Pb 6.251466059624416 3.8570208219467714 10.067313978910425
Pb 5.280387661156108 7.318577863587715 9.222529483556134
Pb 8.070757025455332 2.8014481003785936 7.629695446196556
Pb 6.61490426447069 6.767608615474038 5.537503900376833
Pb 4.0524397050404 7.934721903062341 3.701773743377475
Pb 5.648624046133238 9.842583612310829 6.91473581290568
Pb 3.9673896346046726 12.500147293668194 10.441261286128546
Pb 8.263727136510571 5.923886581635861 8.56071354582399
Pb 4.81043000892944 9.638219522981624 11.565089997284144
Pb 12.266651314273558 6.826537870472443 6.077265818553614
Pb 9.68353614475355 4.24398755674298 11.207745982845141
Pb 7.297278479830883 6.494527144248002 11.889481407225212
Pb 9.692164059047421 4.762111764668371 5.473294414917009
Pb 11.267115141794728 4.389941686941574 8.353828427638211
Pb 10.080144885025712 6.41010714911068 13.59463792824368
Pb 6.725505939929912 12.609873015511644 8.527497721509379
Pb 6.928952589565937 8.554720487693437 2.4835530791016374
Pb 7.748850714787165 9.60660482367611 9.642293211142192
Pb 9.47187097667247 8.451865521161015 6.790333432144967
Pb 10.656983454913972 7.498902505563476 10.293835135459977
Pb 8.631568176438389 9.389613006172903 12.825659294683366
Pb 8.571342571223823 10.786298240143289 4.474837291805771
Pb 10.031920899653366 7.913160258507614 3.511838560290127
Pb 6.914590497613642 12.139606967554522 11.628935250116507
Pb 13.780602086087127 6.571846957208876 8.964339419430873
Pb 12.898870568862616 5.994494256585407 12.037823974998426
Pb 11.93913274664853 9.027994503349808 13.356881146252109
Pb 9.867465313849745 11.596919621743442 7.501730559722788
Pb 11.672802615367273 10.254274517856224 4.967881229958485
Pb 12.704076531202364 9.59607341492572 7.9082337573635515
Pb 10.84547345381919 10.7859085608164 10.67413054217469
Pb 13.899557966937717 9.119399295577521 10.947111273593176
Pb 2.5113059622839216 10.14968477509888 5.496537893826463
