40
Energy = -131.80564484 eV
Pb 8.716246597063888 13.210285819422676 7.777677216223018
Pb 11.427168982340422 12.042265228676456 8.972587242318808
Pb 7.788526070743207 11.685951031076812 5.147500887163518
Pb 11.225782201245504 11.76257981742043 5.585546350451864
Pb 8.423112493474143 11.311798260579847 10.47276182518053
Pb 6.2032495315379474 10.781194834946277 8.036235669345507
Pb 4.099816842375328 8.630031770957038 4.290429305847109
Pb 9.290051149790864 9.828015625358688 7.619190790699266
Pb 9.564774852456212 9.622401810161593 3.475353164630799
Pb 6.390288927269479 8.119715463918535 2.015034673646622
Pb 5.308334068603535 9.63851094910306 11.749784395972819
Pb 12.479685889506257 9.264775405934365 7.6141961429262
Pb 12.411005547109239 8.767244669540318 4.513611256890816
Pb 8.243819425092466 9.071387178929601 12.890767948657645
Pb 10.872305811707712 8.90242494790787 10.45641508734226
Pb 3.0366111173478303 7.401834846333639 11.96383780519113
Pb 7.529340439069362 7.869389857786469 9.889653235786856
Pb 7.269931986535419 8.355183057469587 5.457710881490908
Pb 4.694576158473417 7.255784890380824 7.375300148885564
Pb 10.256795104749564 6.931113986022016 5.938180221483669
Pb 9.632219590325045 6.268395389329825 12.260899772593868
Pb 3.130391814129443 9.308898102780566 9.348258457584318
Pb 8.926508256308122 6.028224303613773 2.716891403176273
Pb 2.7381314333021134 5.749698645552251 5.043272019152632
Pb 3.5462937918848856 6.379197372526414 1.9676126466353694
Pb 6.029047292784251 5.551530671376362 4.30452201891135
Pb 10.174673007676061 5.743314036639491 9.078498999564077
Pb 6.25397850525596 5.0445008870787715 0.8982454184320624
Pb 6.111778350377564 6.521194315147111 12.968049042139821
Pb 7.204446269150431 5.053009178708122 7.543058304757645
Pb 2.15329210604011 6.182279996194557 9.206830551798673
Pb 9.533432178898353 3.754727898572844 5.249242930481869
Pb 4.366420560023377 4.531871398189909 11.046357241791547
Pb 7.711522709704617 4.18675525326251 10.885566458493468
Pb 7.659211931904807 2.8799947372089014 2.7748829155563484
Pb 3.9067821836983585 3.9529082440263936 7.541016612481139
Pb 4.228171352552295 3.294904399487602 3.065053090879505
Pb 9.230310095623688 2.5166231762962283 8.224710917762255
Pb 6.668948480841888 2.207809818339579 5.857488603736333
Pb 6.090623031468501 2.1595638780506285 9.112579501539841
