45
Energy = -148.59892056 eV
Pb 13.533503351312817 7.452069380277235 4.91862334643356
Pb 12.61311837298918 8.566491272185935 7.963524106311489
Pb 12.57604760993012 5.135526008224712 6.945531173149509
Pb 12.277845293755941 6.172231517656332 10.125222067871311
Pb 11.60966227141161 5.20546861395401 3.1950350407797403
Pb 10.914407469254353 9.82938567737823 10.642186702767695
Pb 12.028711821949509 8.319871095609564 2.283646031429053
Pb 11.766379020596546 10.255972325232682 5.084417798106607
Pb 10.84009618027545 3.380364377209739 9.125648152346486
Pb 10.348938026323957 11.252768134882118 7.8182697082735695
Pb 9.613687046620552 6.475862387032362 8.43572099856741
Pb 10.168535372107266 7.265941817348462 5.10558041137975
Pb 9.463341058071313 3.8015678786344314 6.231257091776273
Pb 8.510282286302727 4.288609168682542 10.980090283415112
Pb 9.521789052956938 7.142646839248168 11.957922804900624
Pb 8.782138283454616 12.27093926379217 10.454694438815128
Pb 8.273989793097948 4.556439897782399 3.3968892496275735
Pb 6.953123020241355 12.264978822653443 4.166945919676621
Pb 7.175628138877391 2.047367908635206 8.661880575871363
Pb 9.461026155574721 10.380431393254394 2.772473300124693
Pb 8.993225108199844 7.315585827501959 1.7191942685379522
Pb 7.905989166469072 9.352245709565347 9.133207974208327
Pb 7.9762182874578 9.945301111277178 12.781492309153647
Pb 8.016710337899005 9.714598632421747 5.777687496659042
Pb 6.8261751596170805 7.108970302923193 14.064084406745977
Pb 6.070172366005598 7.372450270687552 10.93623173477206
Pb 6.37950543925591 5.1871916967001805 8.302635744725224
Pb 6.538789717948414 12.111223260698875 7.561175756540157
Pb 5.997407413248226 3.108614165282238 5.785831722862769
Pb 5.352228154179661 3.5799252478412873 11.129884949839486
Pb 6.632738911423396 6.7006972504506805 5.271275140808434
Pb 5.554907624716939 11.215534748981089 10.886730824726015
Pb 6.191725521891208 9.557221275216499 2.5580230673847533
Pb 3.986921406449275 2.586339109196478 8.316319927949039
Pb 4.70382724148143 8.307037776725466 7.65779324632137
Pb 5.8484248637375345 6.421259913713437 2.156423126841837
Pb 4.667233796791145 9.44462061900928 13.468234844467165
Pb 4.225237869005792 11.04167994116483 5.1092260448403195
Pb 3.8406597239365925 6.3402848500853795 12.993289801879541
Pb 3.5527007974994222 5.27255650041998 6.343304091002454
Pb 3.1806027418892096 5.549420803386958 9.594809036344138
Pb 3.4105827480484954 11.34302613301758 8.333089060937377
Pb 3.007604963151352 8.782456927984029 10.7232698031331
Pb 3.6443719544151487 7.829578434532573 4.142198245225735
Pb 1.9162284179830626 9.30883032857268 6.395851740850383
