47
Energy = -154.92191603 eV
Pb 7.297058257360307 12.336691494377293 10.208984893769601
Pb 9.970277306376888 6.298617860305988 9.376203616429773
Pb 7.149870287929456 8.000860241116996 13.535370457892377
Pb 6.727081201479541 11.869241840148861 4.254142355520453
Pb 6.695734891191737 5.179150945769104 3.5464390022853847
Pb 9.14150874953839 13.116618683186056 12.673287824876219
Pb 11.846569902545673 6.463205033843068 4.786672013731462
Pb 13.277247521375044 8.543079857037302 10.246114481192807
Pb 8.61162350326164 12.711223930445291 6.932227480435419
Pb 10.652577462412582 3.881142355488116 7.057394358935643
Pb 10.329516526786305 10.0179676837929 8.911439654922415
Pb 7.275468659748137 9.676606182797189 6.937772658098959
Pb 3.5072110968788155 6.1339855364984315 10.322548455349988
Pb 6.723022200837966 8.528572038944407 3.8454829207572216
Pb 1.8117455431647087 4.352228777904321 8.438491629736381
Pb 8.782352286833333 6.710706275652201 5.882520567813775
Pb 4.219246766669866 8.80926654792339 12.106015806073883
Pb 7.224929006016767 3.6251762067873665 6.362456017370054
Pb 6.5941559708091315 5.6933908287132775 11.125321273543175
Pb 10.321278360724635 8.080529665063272 12.10280624207573
Pb 9.922812242835187 12.234304731717884 3.860179063547496
Pb 8.710762643643262 10.117967548551027 1.8950201264841686
Pb 4.891302620251323 3.4153350461180803 9.040591113997625
Pb 3.9057423321759845 4.355972441037174 6.019650577455383
Pb 5.3357662532577415 12.419481164796771 7.609540916070632
Pb 5.995332488262597 6.4228537335406175 7.944611215161589
Pb 11.479079871138552 9.453049786694981 3.5928723524073134
Pb 6.30279138639389 11.239068391751323 13.220164226569926
Pb 2.5287644928582376 7.196179696372709 7.13142293578826
Pb 8.28621100211601 3.3564855774384643 9.600654768764764
Pb 13.416731855545157 11.5810683269594 9.11788331406241
Pb 12.746689734360004 8.926579420410638 7.028192621088724
Pb 4.297108477217721 10.144427898934667 5.447214382311069
Pb 12.748885564058108 5.720320706684805 11.647314572456464
Pb 9.30071378561812 10.345374129442764 14.17275049826081
Pb 11.557202311280868 3.224940814037997 10.111226554073967
Pb 4.276585467107221 9.457087780194952 8.752374429984606
Pb 9.699159010444992 4.071126501110367 3.979395579615591
Pb 11.724042402543942 11.143488605145969 12.02248064287412
Pb 7.156424865542437 9.101704528387794 10.49586292965987
Pb 10.679092073554926 13.176613055137546 9.599091764993776
Pb 9.706634203639656 4.700347319423215 12.313580414652284
Pb 9.540822965405788 7.0125730603538585 2.4690447388620544
Pb 4.165219531800209 11.915014626366482 10.858956593680206
Pb 13.105121497249089 5.779844800235054 8.344112602189579
Pb 11.875019103726492 11.90696526434786 6.324364032146504
Pb 3.9439121908168078 7.009968933798664 4.206161196816161
