42
Energy = -139.40742837 eV
Pb 12.76654240623629 8.860742693652279 6.2332424792315395
Pb 9.394907095403365 5.335564787064912 3.6878783525958636
Pb 13.149547542485895 7.055352345779697 8.857026896097702
Pb 11.456138214162568 11.9551293724666 6.730718828591615
Pb 10.811231349251413 6.194268572141998 6.592833444958645
Pb 9.728623507860402 8.690011417993551 4.085484698135814
Pb 13.129888161754302 10.287615491001942 9.115792604593384
Pb 10.137494588171505 2.9888965117967112 7.45291259855335
Pb 10.155624915504657 5.729125057951398 9.885159531674088
Pb 8.46168375288569 2.3505207427419585 4.641023461094453
Pb 7.1971480737092515 7.372353582553507 5.542665018283631
Pb 7.39732718250219 7.192436711740266 2.0820678630292395
Pb 11.714143058870068 8.412388725027602 11.384256551117014
Pb 8.199955768338686 10.734783606658732 6.733175384483399
Pb 9.004175190605043 14.088861678117519 6.801290818708178
Pb 9.48493994479408 12.173277919702167 4.088311972308626
Pb 10.217390144657445 8.883177983260662 8.478854683820487
Pb 6.778696879723657 10.075475242204233 3.4690663081187227
Pb 7.911042588012178 0.660605666321746 7.241251653209609
Pb 8.167808778750267 2.61436759806944 10.029975020892218
Pb 9.467107115129947 12.184398875520206 9.413928657416914
Pb 6.040203263727396 4.788582069384485 3.7845386904620364
Pb 6.402936483196023 12.949845764427524 5.153261288838745
Pb 6.441311562326866 13.037520942143237 8.391841615554236
Pb 4.358453548602963 7.709784420146463 3.4973639015382525
Pb 6.974468583047841 4.019512441808459 7.286207147203248
Pb 5.324431768273818 1.8712920661513084 5.562997051971457
Pb 5.299311566197018 1.5163105321846837 8.833558199771442
Pb 4.169305117563762 6.53993700531714 7.334366224895141
Pb 8.452367044320178 8.708606739424729 11.441412954068573
Pb 7.5953819259380975 5.6551227959296595 12.016329993585751
Pb 4.861232339875456 9.94958233621574 6.368272129507422
Pb 7.214783799933356 6.989607335321575 8.975239456748637
Pb 6.108532587304151 9.948615176715501 9.574402440172802
Pb 2.5451258577227853 5.20589005215543 4.8074370745082105
Pb 2.8409596073634473 3.597025761890379 7.694838292369961
Pb 1.967790951971575 8.455814992231316 5.5144386976913795
Pb 5.067549502199206 4.210046616491024 10.680190264653247
Pb 4.825274665050082 7.499396907288297 11.33181394466348
Pb 2.4561768793236203 8.759627979180365 8.881004931089073
Pb 0.7326006875549809 6.25728933175197 7.3907325238437585
Pb 2.231801417282399 5.801860648161618 10.146677352288899
