44
Energy = -144.96139199 eV
Pb 3.3892440154052 7.356014693201299 1.9644859101979184
Pb 2.826940871501584 8.078547391354734 7.508349912274234
Pb 5.863655039970279 5.392597457478478 3.1112167597056644
Pb 3.2773388639074046 6.088983406393011 4.940424391937383
Pb 3.3882999628915353 10.873574365614632 10.335927046120046
Pb 6.059938518079609 7.235713363401356 0.40553491076239584
Pb 3.0467367820923865 9.479222887658809 4.396948888995277
Pb 4.937274858237045 8.309449643499908 11.604490370339427
Pb 5.835388955498815 4.4823649395850245 6.621663999099277
Pb 5.983775481970083 7.902978056827461 5.447727170400592
Pb 3.0096326278717394 11.263977211930468 7.180851221680015
Pb 4.895967202426854 6.263328280091341 9.178572421264763
Pb 8.696734662643204 5.689844403659833 5.363070139051737
Pb 6.065787699085654 11.47818760030981 12.03550808961241
Pb 7.130121534810994 8.835387765416474 13.870284684538165
Pb 8.269992186988365 7.6155169548442245 2.517377175100211
Pb 5.7257959878825035 9.83413527772344 2.447301777126524
Pb 6.532053298049692 3.4248700744981644 10.091154002668846
Pb 5.838178363720419 9.51996206914238 8.405282528595452
Pb 5.616387633483329 12.785760160682143 8.648509426233042
Pb 8.137146992858849 6.007465186302496 8.807908547868923
Pb 8.128090702624874 5.8115329210276565 12.219557882949921
Pb 5.602768679945491 11.625031959566728 5.253180519815607
Pb 8.696518043499102 10.543954754507414 4.111760032970584
Pb 8.187223190650357 8.938340041227503 10.756044012364438
Pb 8.484432122733601 2.9188780744887586 7.624388008675098
Pb 9.816062560900638 3.186057466003506 10.626727471077155
Pb 9.429411543314892 10.984742203065013 12.97781595822158
Pb 9.268153649164121 8.752780959834352 7.088280453318361
Pb 8.559512766683731 12.361199040555398 10.234032268220009
Pb 12.933948795442529 4.3934388470352745 10.648361500327946
Pb 10.449262274170293 7.913423159317744 13.660679883260178
Pb 8.502976809763126 12.070911307694988 7.00392126964417
Pb 10.906605638756174 8.112580624787734 4.278547232776095
Pb 11.148031468349535 7.147050142204013 10.406734461853928
Pb 11.800133364993357 10.959215648117478 5.8980259633344
Pb 11.073800809564824 4.894334062605584 7.938442406653259
Pb 11.058658253922639 4.759619688578834 13.246666645470933
Pb 12.635062994025485 9.857429189233258 12.160123398727924
Pb 13.661660403453508 6.832046033877315 12.65739877507964
Pb 14.282156584805275 10.785701430850038 7.756228219764563
Pb 11.293654177136856 10.358581406861184 9.152279228910311
Pb 14.333059888952112 8.34236643142773 9.77541151377307
Pb 12.640774231722581 7.951253911468033 7.061154013189795
