48
Energy = -158.59857653 eV
Pb 10.588823069929157 8.54565957280097 13.91373063837622
Pb 10.860163150334182 5.602240491242089 12.514679090863261
Pb 7.3392613955962345 7.8096666268935 13.854820614538335
Pb 11.456103923112567 3.1690650300069656 10.519256419168421
Pb 8.450049046881501 10.784562200714715 14.742181113357493
Pb 8.430103107846215 3.7743215159664465 11.466356336211197
Pb 5.627852897074504 5.295995959512152 12.467536474167662
Pb 11.162942974415152 11.588579465735016 13.184606849160106
Pb 12.956009518001622 5.958168137439233 10.131959087917462
Pb 8.91468645231436 9.828527999718172 11.434005912826185
Pb 3.968566078029983 7.93526037607287 13.143586482702338
Pb 14.19808104771996 8.935514326393733 9.479944028872584
Pb 9.755738995677001 6.036723529601656 9.462482145814636
Pb 5.798308601237473 10.6199249315018 12.816512721942821
Pb 13.463433634567924 11.884290858283268 10.457731670582449
Pb 6.321846696508459 7.7866842692806735 10.503249435057779
Pb 9.024391734529228 2.874712516830342 8.379021534350626
Pb 8.113849757768515 12.904219616910936 12.305830152426033
Pb 5.731410294831748 4.301502717574869 9.227658123572024
Pb 11.353264989237948 10.18113053096677 8.488086259105353
Pb 11.846703791438426 4.344697913765278 7.562482835578375
Pb 10.876321413566469 13.741358272714985 10.833776903115035
Pb 5.443651956903616 12.455465137174897 9.751506996154047
Pb 6.99493507507411 6.49415508275962 7.102379130008572
Pb 14.427421190102564 11.416452516409795 7.435434211395515
Pb 3.554233466441091 9.627570657689523 10.41100657948594
Pb 7.25117700574402 10.613548515266155 7.655955822239177
Pb 13.54048108252676 8.47350281563667 6.248365333824751
Pb 3.271237977137817 6.322274275720228 10.408883998890387
Pb 8.33629497424961 13.649423628132915 8.755877792436104
Pb 12.059678227209272 5.977887282422524 4.6499529571544125
Pb 6.358243936551917 3.177004532057202 6.275414779491904
Pb 5.8340154503207255 13.68727592769134 6.757311225491658
Pb 9.034220656665445 4.64483198480671 5.27484576876812
Pb 8.770466702564073 12.779973875150018 5.634186724471464
Pb 3.9650079939765175 11.069723840593046 7.176335037800639
Pb 10.079351454786986 8.23746658317375 5.930877974776274
Pb 11.864104744423647 13.35133936919313 7.785931388601915
Pb 11.986857512236947 11.290379476028072 5.2246808456028235
Pb 2.5772545270740665 8.031143311912942 7.729765174444044
Pb 6.053038968506582 11.281022800400947 4.597354870749408
Pb 12.176239435277774 8.788530142961474 3.1384896875207478
Pb 3.86533688512674 5.190814919281 6.569623372994309
Pb 6.010612910725252 5.425816183979681 3.9901244564590304
Pb 9.495279617193383 6.9796009607638 2.8485557318826236
Pb 9.282090069391456 10.237092491294668 3.3736234924505184
Pb 4.641203111677348 8.145031978253678 5.299504466098301
Pb 6.604184167766532 8.464396521592523 2.7990490213734547
