46
Energy = -152.51592768 eV
Pb 8.648505972095549 0.7086698041159495 7.536923812194533
Pb 10.325376580366399 12.537765159225316 8.381203390393
Pb 11.064078378255878 2.8068893514506748 7.371156645026843
Pb 2.8702427095630774 12.10093808076747 4.215626176448769
Pb 1.5583276566752844 9.289704576848774 5.373824458078739
Pb 6.450615489263173 1.180081674327187 5.2853219696991385
Pb 7.588956660404355 7.1628870586326165 4.9140677703241575
Pb 3.260419974641628 11.36089015974485 7.378005940958527
Pb 2.983569106382349 9.432786162385025 2.3497745093724953
Pb 5.4684879852539 11.518612129555335 2.3665681524723032
Pb 7.156100439842344 7.840486376502753 12.509648173387909
Pb 4.0010071863689864 6.660930975700371 3.97034838407326
Pb 6.093572072502056 8.295874068104938 1.9663593843761142
Pb 9.242112401909337 9.494708593235325 10.121246455850311
Pb 3.38954827299135 4.124710594536132 9.058280692151188
Pb 1.9854627530163518 5.966960553440242 6.391581403192136
Pb 7.503253703749231 3.848377381656087 6.951823315299686
Pb 5.988414420009436 12.371752997031736 5.5466600418796945
Pb 4.931769623515453 9.395831624866846 5.301925008956035
Pb 4.593564524311083 6.56583370171772 10.773597083458357
Pb 5.237724470479217 6.407777388349326 7.314226699374713
Pb 11.894399661251157 9.705763026295449 7.823831054033653
Pb 12.992675515071744 6.712781801907275 7.628248918058974
Pb 5.843202796860276 9.34797818044987 9.140226410440984
Pb 6.813941233982046 10.971789226107536 12.08375450714377
Pb 12.378643941256836 8.10648571428567 10.79030673394928
Pb 4.179508054428714 3.525640535212505 5.871812940402438
Pb 7.8103815155895 6.129660131336735 9.74007355536432
Pb 9.952742080521787 6.438854105263615 12.337143435763902
Pb 5.442066537558306 1.5727319587786914 8.42515143774299
Pb 6.731932019434501 4.128135728524646 3.5847079346964827
Pb 2.7267923702196244 8.315388662872476 8.396309212655607
Pb 12.237632209077766 11.31779944956262 10.799200080308395
Pb 11.10603488168436 7.7801554206357295 4.856308398354682
Pb 12.001381687404301 4.587606481565396 4.8584682050373384
Pb 9.493032223112621 2.461987927981684 4.436352777045304
Pb 7.218947424444837 12.371273129852222 9.122793657807945
Pb 9.446473617430478 12.712301954983504 11.540380237262374
Pb 9.632212049572871 5.605451917019894 2.954308499563365
Pb 8.056567055062374 10.190756756250542 3.745959009429152
Pb 10.370792138798896 9.742228707244735 13.082676897565438
Pb 5.9730304442179625 3.640913771840105 10.981942704980497
Pb 8.391634486408615 9.975873870556198 7.024956923437427
Pb 11.627004898057269 4.935294285548338 9.930555413604674
Pb 9.933771737120683 6.037979751127329 7.218261975721855
Pb 8.95833511497871 2.850168732671667 10.030043350195196
