47
Energy = -155.23485039 eV
Pb 1.4416017550482487 11.600466742016874 4.537999175176733
Pb 2.3674036956840534 8.737400816266605 2.847126092056084
Pb 0.20500516027854218 8.847715950344577 5.512122193663877
Pb 4.256429451593029 11.454038877982782 3.1134670609617734
Pb 1.634789898739394 10.850644194166422 7.7717596905532496
Pb 4.078352533972188 12.590768212749504 6.256207957136202
Pb 2.0980769547281692 6.204602400414497 5.539112448660042
Pb 6.087311892548095 8.811559538956521 2.876534847541523
Pb 3.7942332568230355 9.252700187985418 5.628180661237336
Pb 0.8968747606569967 7.480228452983288 8.487029790797383
Pb 4.891157559765195 5.851721428247834 3.6006186744275093
Pb 6.950784622446653 11.127674990728865 5.249680703622765
Pb 3.0168562982133063 9.247745435943788 10.285927412441705
Pb 2.17269840130862 4.384349188781859 8.40474645029564
Pb 4.297043873200559 7.051246989252409 8.222667249567436
Pb 9.407543605776954 9.00878773628469 4.163876996905889
Pb 8.374808048400478 6.033231927130283 2.957192193158183
Pb 5.71717906896213 10.295630070406308 8.250271336500443
Pb 6.843368767200115 7.3672857542217685 5.741646034212726
Pb 10.342270710334247 11.881508976533752 5.989048920544825
Pb 4.7736656420078925 4.178294419588145 6.388099284955007
Pb 2.6770066988617427 6.100666847096746 11.054582337683891
Pb 8.383415430752251 12.338590917294603 8.409552233682145
Pb 5.344820039612177 4.383393113525466 9.843731109050063
Pb 5.7188347517672105 7.402340166037931 11.400060736534789
Pb 8.935632485162937 9.247462987927648 7.480177952317257
Pb 7.486571598949601 3.1240251255239433 4.293717581668939
Pb 11.422255246318278 10.994115904999013 9.072870904942663
Pb 8.38368918214225 9.944387232996199 10.73689169364513
Pb 12.561799083078752 9.521576872458711 6.2156987423941885
Pb 11.741759463329688 6.610248773808816 4.427206177455567
Pb 8.506361506397461 6.452513429343117 9.914110416267574
Pb 10.514912988082758 3.6368347175424365 3.3385105670957134
Pb 7.334197373292609 2.5782210359851363 7.599037909478816
Pb 8.753090335205906 7.600470293323306 13.142485326669206
Pb 9.345397680304103 5.048340899150424 6.333652595412891
Pb 11.346392655400237 7.042215977494993 8.15660392913081
Pb 7.404974154721296 4.819216459495062 12.663992969041656
Pb 11.41840786933734 8.402419548097578 11.350038651762421
Pb 14.060996987630958 8.993621789778787 9.15605627872494
Pb 10.005085794376427 1.7897115737839866 5.956287978962586
Pb 14.22003665162399 6.701764815927495 6.827331791574414
Pb 12.548223302514382 3.7750859853924226 5.8875995004517785
Pb 8.942242075398653 3.0903747961594354 10.442347908733433
Pb 10.786728339409532 5.191855932088795 12.13272594443794
Pb 11.796261860088123 3.6868010179485333 9.0385991189836
Pb 13.667380339781582 6.014682394951617 10.225358329176794
