49
Energy = -162.76526579 eV
Pb 1.4498826539279193 7.331876966315383 7.450488269987936
Pb 2.427196286476779 7.00673397681849 10.644639094226239
Pb 2.7734524550001702 3.894357777621789 9.648775568750931
Pb 2.196645686549977 4.306244154363692 6.487005612348727
Pb 3.3795628574275645 9.542808560145732 2.6498043733253422
Pb 3.492348756193887 9.50244430051702 8.691345515955417
Pb 4.734538401390535 5.011958418737859 12.280214767163748
Pb 3.987291066648405 1.6209047901522216 7.473603349756399
Pb 3.570412836771049 6.820621973279371 4.809973291386341
Pb 2.1911316650987027 9.963667528631557 5.617811330973973
Pb 5.5064296638784045 2.2014427573435307 10.76616498677068
Pb 4.515573279581534 6.280125356075526 8.163040324379828
Pb 5.368983296058158 8.182436555271924 11.512131728809173
Pb 4.111551092977986 12.272183672661901 4.334029252332719
Pb 6.102739991366291 7.681574569959062 2.2213651490975
Pb 6.315287606366637 11.020577149734386 2.2606652284124498
Pb 4.5531798426257835 3.201655275287079 4.477639667287601
Pb 6.111381981095134 11.865935800277642 8.019913620010277
Pb 6.880189501979512 0.21744085169915386 8.44584616095216
Pb 5.510631042355924 9.530973642038083 5.472827380333691
Pb 6.780846048505079 3.4389793813213534 7.160081637613061
Pb 7.334777698860321 5.144614352001253 10.049038415489393
Pb 6.271008746536322 0.5966983820517873 5.313983170695254
Pb 6.7949432705403625 8.639864825243338 8.624758232188638
Pb 6.87113555586033 6.130427010741415 5.123868429638858
Pb 7.541888333058882 3.3502985885747423 13.10745492773743
Pb 7.314999088860879 12.488368555513103 5.0710993322586475
Pb 7.707369282616385 6.568888063444648 12.981517621088232
Pb 7.783654401309318 11.074125877349092 10.707642609761454
Pb 9.315808386726923 1.430561972969339 6.652813305421982
Pb 8.706368208633782 9.158228261328361 0.982817385885094
Pb 8.765393514923188 9.159281744054292 4.5057620328031005
Pb 7.824743042427568 3.030769294881571 3.8966683808669487
Pb 8.895667313252563 1.9475351870372268 10.427998128649426
Pb 9.375794086177262 10.693487099933138 7.577382263572179
Pb 9.739866002279651 8.338702171948686 10.36407066344421
Pb 9.429529488530845 6.974740922126776 7.465121328404875
Pb 9.396246328092564 6.397951964222234 2.7074047854544148
Pb 9.704099938609374 11.806972976547717 2.7754161830621986
Pb 9.138160196757886 13.549414586137551 9.063089486197407
Pb 10.08609878029745 4.779615146771064 11.747794757254605
Pb 10.161123538291106 4.435598244024825 5.471319236591459
Pb 11.994672786696022 10.81213417042013 5.202502492801563
Pb 11.020219678237217 11.341836602339763 10.631327126411977
Pb 11.448323709216586 8.977629416040635 2.516743955925087
Pb 10.700957118930855 4.074759811759752 8.585261108850933
Pb 12.359045414439091 9.409407037553862 8.318327447460312
Pb 11.873770266315944 7.5319819457436825 5.3737713764369825
Pb 11.991656857615265 12.682674913190247 7.878500814197297
