43
Energy = -142.61647291 eV
Pb 9.997308536192897 14.229672463258233 6.639945728307274
Pb 11.072247403348426 11.65144682748804 5.087006949822089
Pb 7.632790280052787 12.118121714624056 4.905445580237831
Pb 6.93426450184226 14.117261631493621 7.631765134459022
Pb 9.419046032706042 13.859613572949579 9.802835624324858
Pb 11.869297735888294 12.010471276475057 8.422634574341474
Pb 8.760892125403226 11.134174378443312 7.612503939251729
Pb 9.384029123395862 8.888366211273722 4.57670735913638
Pb 12.166225119818435 9.091999400097412 6.683374365425505
Pb 9.416533828933005 10.63908470280387 10.62103705467485
Pb 5.129298203994443 11.37311226203431 7.411744464193681
Pb 6.455313304431764 9.092837747821596 9.4352414227042
Pb 6.416986689690864 9.319662017053572 2.9500554871259115
Pb 6.577210367519803 8.653728894737817 6.158097524923214
Pb 11.878606410693738 8.662276571713983 9.797971644240581
Pb 4.554459944666049 6.895302179905048 2.2603787367778496
Pb 9.441908603707004 7.4847781108061 7.899204152253964
Pb 6.5816453469579965 12.331389321167208 10.313033501996895
Pb 7.6906009416689765 6.139382785702256 2.6804825769877754
Pb 11.060242927361251 6.033159304907633 5.32178052260147
Pb 12.480744148127531 5.604517684504236 8.158610922599069
Pb 3.6934238376452626 8.828055876048655 4.760687760111121
Pb 3.0071370541416425 9.54861286320705 9.465290135148972
Pb 9.067604804977755 3.673450013784716 4.261482375810776
Pb 4.414954879129892 7.357539123060581 11.526101641992433
Pb 10.447165314973331 5.6802274999716245 10.833105571638297
Pb 6.495138698570211 5.222652579846423 5.729488357423307
Pb 7.094444372583437 5.577717494920093 9.884115759135447
Pb 9.118671480954047 4.1862121294972345 7.804000540583066
Pb 11.619344012381633 2.786075711648194 6.459750511226825
Pb 4.341808462037208 6.666204227932941 8.146620717437877
Pb 5.315845304366065 3.862253902710294 2.991536396464516
Pb 1.5021707524354835 7.870723309263679 7.078106731142089
Pb 11.797152898416268 2.8165804374358947 9.716265303221867
Pb 2.6670695471043273 5.592066213988609 4.538437718492456
Pb 1.5285184515696046 6.820625430391396 10.188862055168938
Pb 7.054314325023026 1.9066754068417484 5.965214136727406
Pb 8.841429790265021 2.8868082775458417 11.138554958239615
Pb 3.702545031006383 4.38088959293457 10.449409157596317
Pb 6.359461103341322 2.4723120787436326 9.116133493753233
Pb 4.077638618217628 3.00591219291571 5.935811902344957
Pb 9.332001511273594 1.02163665319483 8.4387617827502
Pb 1.8063247627676848 4.621653983662554 7.760006408211374
