42
Energy = -139.29366605 eV
Pb 10.583145150742496 3.3656351678670067 7.067518791858913
Pb 11.731268067270758 4.178465780361485 3.591564733249972
Pb 8.326008872015207 2.903668970507008 9.52137851663799
Pb 10.538002830137847 5.023199052690146 10.414290028838012
Pb 11.735588295476555 6.316851761600791 7.187885405512157
Pb 9.35234781466513 2.055874833825482 4.393546318587061
Pb 9.903295404163723 7.010730590706133 12.903418285210469
Pb 6.379040336998477 2.976989183830407 6.809014032342648
Pb 10.224085230494383 8.221878888305888 9.680434930928746
Pb 7.854756113716937 4.396056685276107 12.651255347080218
Pb 11.569638278758502 7.5131362190933695 4.197152052361692
Pb 9.041044096146006 3.585063870462132 1.5378233112037438
Pb 8.526543746722208 5.852762764645337 7.797479555660767
Pb 8.95814827320382 5.407963814998287 4.540726222412797
Pb 9.38124927007652 8.937081085293428 6.305235963889001
Pb 5.1377698130605065 3.1959250226726046 10.373354621054558
Pb 7.30704310667218 6.857505573972275 10.736480550036424
Pb 10.24507200365835 6.492981692780968 1.4637910266628449
Pb 6.445197352684014 3.2909567156810295 3.4840527533114725
Pb 8.361426504018954 9.76558604194497 12.017273316518978
Pb 6.979667956668268 7.480288312755811 14.095623034886405
Pb 4.492937805977557 6.033272695382419 12.448313158756752
Pb 6.945261002169759 6.187756839037513 1.9056213397199184
Pb 5.200740837359051 9.303699281620904 12.0614486592381
Pb 6.658283968116111 9.52167428725596 8.913665428781078
Pb 9.20343587243953 12.345493521517001 4.90874276654484
Pb 5.153134315856794 5.7184151886597085 8.25060529838934
Pb 8.500182569831134 9.007709508850605 3.10684744953667
Pb 8.050602078190483 12.458150373912408 8.00171454143856
Pb 3.14624799716268 3.0563681293912897 7.655960445896052
Pb 4.055560335202067 4.897614964146965 5.127787111871357
Pb 2.386788030444565 4.917356189535406 10.182707519431219
Pb 6.349202087874433 7.363348773493827 5.0434650969798005
Pb 6.614363212979477 10.646058635024492 5.613532130788866
Pb 3.53453417327501 8.266661956014138 9.492823411277636
Pb 6.700657431735754 12.301045530875484 2.818798583161088
Pb 6.463737405626002 14.075214812052685 5.671412418354158
Pb 4.708365958256356 12.20309941598686 7.770198273179944
Pb 2.0243462579341736 6.1622207850240525 7.269391702720924
Pb 4.901795347426721 9.563369094347065 2.9775931581869286
Pb 3.7360755046015206 9.28745135290503 6.12821232790398
Pb 3.8445898854508913 12.314610371444582 4.593074405287346
