47
Energy = -154.4432352 eV
Pb 11.035728704788111 3.8182065033608383 5.625011996006114
Pb 13.251963982159847 6.406849435626602 8.649111289229497
Pb 10.372931794088375 10.083898816991436 12.578873262592486
Pb 12.725818097533464 9.081909792353919 10.350652333424563
Pb 12.658966819883503 7.73407914907655 13.204801967429443
Pb 13.107558377014065 6.428511296865222 5.456694379078827
Pb 10.648349129952512 7.22229742516089 3.562194738394739
Pb 12.86556300165416 9.514736447462113 3.8618728954364894
Pb 11.323016207462377 3.999821300779073 8.878755404490034
Pb 11.510273557931376 11.924743422980628 5.7218616673028055
Pb 10.757071439401203 11.475225847953498 9.340944937609077
Pb 11.353923468694974 4.850102371283738 13.613330288409593
Pb 9.829045663465365 7.492202758336006 14.720904569690305
Pb 10.00576228556389 6.594615908190579 7.121667679119429
Pb 9.847321254057498 10.422818901646263 3.2317594562614738
Pb 7.140062214446757 3.5403960365849896 9.942128534123675
Pb 7.308421017659402 8.313131599892879 4.151308489451711
Pb 9.935114690048037 3.006178582606836 11.487237232867162
Pb 8.271631591263342 13.12962831608458 7.860139180357708
Pb 7.443127815312748 8.574806649599246 12.87941390088493
Pb 8.050001310622742 12.26890119785272 11.202507296408818
Pb 10.197996467585297 6.685707859320636 11.108410524418606
Pb 12.163600546377726 9.090521392891434 7.076910959444541
Pb 5.473210521642308 13.754695152018666 9.56775589077227
Pb 8.084575113765698 5.192564718075868 13.233963750711762
Pb 5.632078102810665 14.143354675561843 6.152778861962439
Pb 8.549789323785202 2.1119234770569357 4.613591803605097
Pb 9.038279641197493 2.0222660393787195 7.802953186964074
Pb 8.683812467482241 13.169084695970014 4.626524053557974
Pb 8.219854267968726 9.35031736656542 9.705393244593104
Pb 4.006015510343298 4.600087863329735 9.105551665866896
Pb 5.66412664463718 10.757563301529958 7.661958738140542
Pb 2.9114239416800793 14.513092653261847 7.798012423872421
Pb 5.309519588520106 10.616770657630482 10.947308030432303
Pb 6.366298713967494 6.600446478312745 10.482752924802659
Pb 6.037245332106297 11.418834877395188 4.341926747420969
Pb 6.5713647587871575 6.779261794810527 7.1941459922107605
Pb 6.383327543298614 3.440146952179705 6.696117303179946
Pb 8.759608484461815 10.167973253244135 6.437170794794884
Pb 8.130073283556664 5.203541278336573 4.385235747687039
Pb 3.149729471710177 11.880648998763775 5.840737029877824
Pb 3.7742963015300544 7.959156262007197 8.88516364595108
Pb 2.864488344866251 11.64419630617156 9.103852345301236
Pb 4.173295770882158 8.412048470792866 5.649976032596601
Pb 2.2328564926674135 5.997801389954472 6.7832762212515005
Pb 4.598350240734354 5.33208777420038 4.644588142265359
Pb 3.2932486981972167 2.9829625481175484 6.4228904373165205
