45
Energy = -148.43565303 eV
Pb 10.048569165868777 7.372684792845299 1.3159098135970322
Pb 9.639508742798421 10.002381487791753 3.029918116993745
Pb 7.02666700375223 8.306938512239837 2.113243193416413
Pb 7.830128166570039 5.109976722246459 1.1146664598729203
Pb 10.770617055376382 4.560534388441189 2.686518215736162
Pb 6.794856398885486 11.25910162600537 4.131703625142428
Pb 13.156550197167567 8.613224597319608 6.585847550760505
Pb 9.526581476968776 11.343510646991104 6.210057419384952
Pb 7.6856602936331635 5.555446694523346 4.298489255558135
Pb 4.925103969727492 8.473104599638035 4.692193618394931
Pb 6.738298338089644 13.164339747017364 6.780593984522877
Pb 12.840219765400715 10.706097050944887 9.461962663227474
Pb 10.75148083325043 7.251557105343961 4.581051508092433
Pb 10.05499927667017 3.303304109642147 5.769192643154813
Pb 12.011614942088386 5.71045576874625 7.390691408323199
Pb 7.953560571377316 8.539555835104007 5.844119460451691
Pb 4.130743173425572 11.384428166757287 5.968378962482043
Pb 8.275238884857295 2.5815099043775165 3.092242620308827
Pb 7.035032094844625 13.737948769026092 10.20124563484137
Pb 10.535826387623125 8.551069304383464 8.46617776861266
Pb 9.94910869959757 12.696071631614455 9.322827788089326
Pb 5.147886128676234 5.601926020220331 6.68271948994175
Pb 6.7125867607594065 2.6859164786984504 5.92517623565334
Pb 11.506894168776025 12.047110599350683 12.20138427928084
Pb 7.587533374203763 10.55035266652864 8.74994837506746
Pb 8.426635448150023 10.708158153947425 11.963078988246165
Pb 4.9903952412117025 8.783677421190639 8.002953236310324
Pb 11.577176513350219 8.671493514499266 11.710504436448582
Pb 8.360806530345121 5.465723318241445 7.87108244352322
Pb 13.722046465339677 7.57930332572991 9.51316288170427
Pb 8.834002990579846 13.691818972880425 13.137688751319741
Pb 4.6168988927950645 11.900413796511192 9.180408815163338
Pb 10.919223482702765 5.688255212852703 10.387973437978753
Pb 8.722239565148923 2.314875105326582 8.583734804701113
Pb 5.702787474262784 12.518767981384112 13.011841845795194
Pb 5.1114859097909235 6.1581652749602425 10.143616703048076
Pb 5.655904759763635 3.2051191607155056 8.920627412658163
Pb 9.086534568354649 7.864697562702372 13.885635078840775
Pb 8.08223326660838 7.653624499142412 10.713718603715858
Pb 9.922081226989677 10.923616850186033 14.949274039417915
Pb 5.239144383566132 9.511558124751721 11.650349421327675
Pb 7.816303553555575 4.375276083997125 11.078962082348177
Pb 7.358409685608005 12.621027688662254 15.817959343441524
Pb 6.497750426380981 9.767753550052273 14.844144223359805
Pb 6.122036304895359 6.887489736257606 13.41638591953212
