44
Energy = -145.76666016 eV
Pb 4.528030061867503 0.5409644980116868 7.829771772482505
Pb 2.761787334732974 3.4637460584041286 7.132816562860063
Pb 4.69128043184319 5.412889575046413 12.398572688624728
Pb 4.046587832511675 1.4003643483838593 4.781084335950118
Pb 3.080123497891195 5.9092237728083115 9.474007618751681
Pb 4.470210719150771 2.920667847426191 10.228157558676456
Pb 4.210136780855178 8.603188570765568 11.51333119223613
Pb 7.357769906728915 7.391855415494354 12.28270395936395
Pb 3.284725264112727 9.182267786684841 8.411744726661489
Pb 7.036172227977713 0.42165826539684426 5.744046576659256
Pb 4.418325001995408 9.360070152056673 4.761298181538738
Pb 7.3070532700245305 3.4106472283369813 11.67648663264902
Pb 7.537603011740295 1.2914201205992146 8.972878760558341
Pb 3.926395292751501 4.588795907191504 4.272161946214242
Pb 5.9954919439803325 3.4919577422588404 6.869014163912831
Pb 6.40291989752173 5.784155876272018 9.631146296673549
Pb 6.613830952737422 9.304533837407993 9.120202495897992
Pb 6.754707248695034 2.943006084074947 3.668594755709817
Pb 6.709617659788493 10.600575395299614 12.142302010058916
Pb 4.122976360071069 11.621797623166174 10.428390494730987
Pb 9.386669141104806 4.093487774592615 9.22354981247483
Pb 4.931479423200224 6.720735389028571 6.628733870353146
Pb 9.111802394545066 2.9185831725955356 6.143718943052214
Pb 8.25386956756378 6.263753783548026 6.97296435336027
Pb 6.32430926461625 6.790485487760586 3.533968158707437
Pb 4.9075112955017275 11.82413729109207 7.232229389435797
Pb 9.70452034047989 7.39236898940664 9.855490806837238
Pb 7.181819231361519 12.527124408762422 9.59746810164615
Pb 7.810872325743009 9.315315021787617 5.150161991268789
Pb 9.61510411590927 6.001015265160114 4.109366135173103
Pb 5.925708062791629 12.138530340550856 4.144504717372895
Pb 6.414377961116344 9.88311658324938 2.0135899583950527
Pb 11.57974046681509 6.7399309759249615 6.933307342032947
Pb 10.529945716686228 10.537637485989215 10.82117548805594
Pb 10.238144424302714 9.82867897767231 7.6449169521256675
Pb 9.128841304073585 8.399797725820266 2.016721213507088
Pb 12.82148695699221 8.429171128898778 9.63625805990338
Pb 8.319126990724346 12.702425215319176 6.220079718050679
Pb 10.321593957345545 13.097657373420127 8.718601160426433
Pb 11.498172111337606 9.016754615650099 4.085084749488243
Pb 9.317966171997393 11.496330033307473 3.217414342891026
Pb 13.55104165302095 9.369442037935663 6.594988872806053
Pb 13.100020644590792 11.532530433317902 8.925012254766157
Pb 11.730728036256249 12.092798591174352 5.767141702030113
