43
Energy = -141.98944353 eV
Pb 9.077569795952774 3.4925093415389314 13.467112165532303
Pb 11.724430000648557 5.3058851783516925 12.617115070000203
Pb 11.249691776187044 2.3236342283934954 11.34922593727761
Pb 8.78348739170305 6.794387371494394 13.023471936241553
Pb 6.309513610060192 4.728769701316102 12.345343231319497
Pb 12.485092393624555 4.740356540425079 9.476952674780973
Pb 7.872274278396141 1.8708247913254392 10.618698271466437
Pb 9.080603469488727 4.795526005516651 10.306947224653324
Pb 10.871608493445153 7.527827530642864 10.402494170213089
Pb 5.843587452409175 10.128570365330697 12.147489421664636
Pb 10.619919620134048 2.3248084848865 8.165842683178422
Pb 3.6877179212624447 8.179145392971199 10.468433422591165
Pb 10.012663112216153 5.479169985941797 7.215476874365905
Pb 5.489838293538358 4.011293829255896 9.359238819901305
Pb 11.479294241257827 8.701950462808684 7.229209618238333
Pb 6.977637459422435 7.511227975433763 10.33603240719479
Pb 12.266111318612088 6.555916680397704 4.941154361390916
Pb 7.576118343144632 2.7870998228728094 7.318782737539458
Pb 8.336072031047978 10.937981654245279 10.350327769563993
Pb 6.686592821896468 6.140268525184339 7.304309406024133
Pb 8.340949402382751 9.328409065106111 7.4416808350019625
Pb 10.680068074156239 11.656873999949083 6.349847468606061
Pb 5.822044117138534 13.039382205210801 10.558560344045574
Pb 3.01212490282009 11.266897665871626 10.977192441278278
Pb 5.2825640055572185 10.394188037105597 8.66948176259754
Pb 10.069488709669288 4.416245879296535 3.8111685732291054
Pb 11.076802949278918 6.925351814633013 1.96128160728428
Pb 8.861023910594499 7.457295566449512 4.6179398616633
Pb 3.847372488773798 5.690166407698203 5.093909639186284
Pb 11.32384186990891 9.674625257443825 3.7752393014609846
Pb 5.445060102068034 8.766188222171186 5.6592320077753895
Pb 6.791928404273929 4.370097722643388 4.479375767827149
Pb 2.671313934742382 10.786614194741038 5.9805346324480855
Pb 2.8310784862516796 7.786067518368391 7.2626471627361635
Pb 7.906494076810841 12.680978676987067 7.66467840288548
Pb 8.096269748028426 5.923129011711534 1.6610937323609332
Pb 3.276278020619414 12.954790678827926 8.30538054132773
Pb 7.958151101839206 11.133450909717853 4.665077346049335
Pb 8.542301081853903 9.179035503354978 1.8996104656527975
Pb 2.45830274231359 8.376906929094934 3.903032176681925
Pb 5.35476977706852 7.4383845901789085 2.6855503265186496
Pb 5.296927134552183 12.888788805171385 5.776905977768917
Pb 4.8247485311741 10.719361214615017 3.206716919612634
