40
Energy = -132.15599621 eV
Pb 6.545523882930497 14.021318465114375 11.812927945094682
Pb 5.423965965104352 13.746729162935006 8.774973875223832
Pb 8.677661834224534 14.091039924808864 9.274788568030095
Pb 4.274283827053053 11.718738763914523 11.091950519457228
Pb 9.515819444562942 12.793396000998928 12.19127079429491
Pb 6.941949828008063 11.026205116167928 13.193784032802494
Pb 7.296184209273443 11.250738698319754 9.866602208621792
Pb 7.203449213902656 10.884754956818186 6.522988047042322
Pb 4.6412602655373085 9.40986682319954 4.613987403264996
Pb 4.060389357218421 10.954291264864818 7.665534096494606
Pb 10.69117537918589 11.400514575760829 9.468010660646133
Pb 7.846967274162545 9.661446939438251 3.3232566254858518
Pb 6.586234818411081 8.242659312242367 11.205450121200743
Pb 9.75468387747514 9.507898792062251 11.901925620652436
Pb 3.5167696604597047 8.593015754832491 9.936522523568614
Pb 2.5604809182073898 8.108958982454917 6.831918235662899
Pb 10.849468803207268 8.994081548667237 4.254374443271995
Pb 5.79559983998805 7.609533344258312 2.0944995952716545
Pb 9.14546652948232 8.63541011305276 8.751398271244822
Pb 7.088249334211386 6.7591679432423435 5.076972715361789
Pb 5.932610034381251 8.26457916359636 7.852775181167819
Pb 6.111484538020154 4.863528581269342 11.293814013263983
Pb 9.227735596386168 5.832198686081743 11.460195120730976
Pb 4.051094890004614 5.446039179166464 8.156878206038686
Pb 11.855572688118087 6.96493511839592 9.782108638094527
Pb 3.8684831240643995 5.9711861143929355 4.6713226750697014
Pb 12.410735933526032 8.68504211401659 6.983089108552133
Pb 9.109011863487599 6.706977686986189 2.4801394932533203
Pb 6.104364157157767 4.544432249318585 2.609396442376625
Pb 10.188496714152963 6.26988598159278 6.371351717465373
Pb 7.684564995914957 5.302460573768814 8.465670136431672
Pb 8.388730279970067 2.7125445563094694 10.537934162870915
Pb 5.581813024161752 2.696337524162318 8.973701695263893
Pb 5.863537036702069 3.4679803136967498 5.7386050402070605
Pb 12.708674499649739 6.408942741566326 4.3383841029478365
Pb 13.427363208372842 5.574934178757157 7.334958027886981
Pb 8.883002923424378 3.785165101999489 3.962646899388883
Pb 11.077564658672731 3.8275489289539877 9.013791951446644
Pb 11.631873127162095 3.4212034978129626 5.58829517565275
Pb 8.668726438247047 2.391871379613402 7.147599330533716
