46
Energy = -151.54537735 eV
Pb 6.331361319566813 8.819094707780582 11.826298664999122
Pb 7.58695932915215 10.317067869245804 8.895547425362693
Pb 10.528389863356287 14.26136031897009 8.451214844652533
Pb 11.58884328801817 6.336100085082283 12.914444305578243
Pb 6.642351159256678 6.946638965042417 8.814276629622146
Pb 13.070161892467022 12.732144434224614 7.151759504121424
Pb 5.20247684654386 11.932440188108272 7.153847777935369
Pb 6.391293208357444 7.008266473181924 3.509962579799046
Pb 9.894949100070995 7.385485425089333 9.97058546252135
Pb 4.509427360193965 4.5198713384033 8.256516918102115
Pb 8.460821706203522 6.2606548307888685 13.192712101501083
Pb 9.124325745018746 3.361184437326588 4.895062182693978
Pb 8.845435166919032 13.226887991815564 5.6738041998030955
Pb 9.712649877321036 4.23587530648992 10.753949132053028
Pb 11.689439911029467 12.22300286437804 4.060090544363103
Pb 14.21953275654248 10.169071080097591 8.704308467156121
Pb 10.33225027103962 10.256158163634762 6.593148127921963
Pb 6.680897862696969 9.379652658790418 5.913200063994554
Pb 6.4114561679646584 4.6294439317064775 11.08518541990339
Pb 8.77601140800024 6.619297076045626 6.039163189834061
Pb 12.88156380267794 8.670108003213045 11.12325231502264
Pb 9.86645551279104 9.264905965910094 12.660727808388648
Pb 8.72663276984928 10.554859218852444 3.799271228720288
Pb 11.468404060455864 15.041093934684573 5.53531551951047
Pb 11.311860417694191 8.60950238734847 3.785489205473744
Pb 11.153259571645705 11.236592162413979 9.63695271271175
Pb 7.153857830713324 8.705738071780056 15.057315841974207
Pb 7.678486273400925 3.5905707360625714 7.888995243770412
Pb 5.500308785548348 11.422300573096908 13.648908975018644
Pb 4.001918697725375 8.741575838322756 14.599014283638805
Pb 4.455838652468237 7.069203492745453 6.309848832504354
Pb 5.74554509372632 4.204147388382386 5.273185132113578
Pb 13.660235584989316 9.951583692174708 5.525151807521866
Pb 9.473922419127693 6.037604182924937 2.781401158622719
Pb 3.8126588227770006 6.7258010842489915 11.109669795332655
Pb 7.405369906749761 13.623781219408343 8.658563873120833
Pb 11.78303935384408 5.523566962437413 4.892432633872567
Pb 12.136632109775407 7.637516531491147 7.537914116906265
Pb 10.929545831047044 4.300520325901356 7.738702934546586
Pb 3.0155067079290294 9.99248020573196 11.845502767448702
Pb 7.055173351590902 4.018248731579202 2.457915374492704
Pb 4.909483294683098 12.228051196205778 10.433762410212193
Pb 5.408985937020393 5.967020661629412 14.020265781089414
Pb 12.855126986024851 5.591301622249763 10.098181354358823
Pb 8.103320512393845 11.98576161936363 11.5529932674394
Pb 4.16851195019053 9.347144522197953 8.834866560828502
