46
Energy = -152.18833588 eV
Pb 12.328130322586423 4.1317394430859355 10.494551837545252
Pb 9.446255114821001 3.5693269270780696 12.159418386563253
Pb 10.53759145377539 1.5854584976418389 9.805949840736265
Pb 12.058579704892123 3.11243703315522 7.3999078443939
Pb 9.257713612045789 6.869320649844543 12.083765946277229
Pb 7.278686285875394 2.3726688257538946 9.880415586347532
Pb 12.298451229463007 6.411048388171793 7.936233283874249
Pb 6.45438883051605 5.029292484942293 11.706486748710915
Pb 9.488134824330269 4.86244881972579 9.05426157463875
Pb 8.875801963058676 2.182819104997979 6.9532119629660105
Pb 10.193974399103297 5.007540853380002 5.293563501130437
Pb 9.701470106303548 8.121525444732839 6.315910534932668
Pb 12.723157799799095 7.493311491154688 4.899525433449165
Pb 10.502183349891308 8.765486218484984 9.638326571485575
Pb 3.926317607891347 3.633859353973544 9.87491910734772
Pb 5.421593693169918 2.5772996854479446 6.807397185677007
Pb 6.426917118583865 8.209412254287235 12.523428437604554
Pb 7.213208905503879 3.262049608594618 4.18380498109471
Pb 3.2091787842571087 6.5344035858198275 11.322543901028641
Pb 10.176240954677464 7.386086527879466 2.922554239033433
Pb 7.153187447397222 5.362472352167102 6.6378610326353815
Pb 12.501723365644013 9.88683679832905 7.179978480819431
Pb 7.92387473792672 10.677598946058696 10.361132516317607
Pb 7.345737286706998 7.511645581405299 9.411734549064963
Pb 4.184560222876707 6.365789165171146 8.043628612558752
Pb 1.060173505024805 5.253758578253905 9.189263327473357
Pb 11.000417110014961 12.467834646009814 9.24287057961344
Pb 7.009320007238129 6.387320356939246 3.334666135397928
Pb 4.621187990961579 9.326512172605469 10.06469650656985
Pb 6.415804341657033 9.002869523758134 6.519027594761856
Pb 4.1950204743195005 4.854836303630212 4.456975443201571
Pb 2.325773394418149 3.6128552114002193 6.8263127287014935
Pb 1.569727780341145 8.383225930774884 9.117509167609985
Pb 12.01686109535053 12.816856020237186 5.993727542577904
Pb 11.307319088909619 10.299549050312994 4.0110608143595945
Pb 8.808141493213995 11.51817506350281 7.00361549008522
Pb 3.2488527578654405 9.721034096495812 6.643459242863614
Pb 1.6419594007730194 6.754312484392391 6.04739841736283
Pb 8.003087553961503 13.837186937231571 9.432733270342446
Pb 4.387084477742875 8.185000121620135 4.032419596821473
Pb 9.983917232706313 14.893756544734874 7.108152175565989
Pb 7.8300249620788644 9.63715097809715 3.4630016168051245
Pb 5.466868503240662 12.00917823730525 8.184181308245401
Pb 9.089784086796211 13.167282505174033 4.251548223195135
Pb 5.907908392638351 11.804067256181474 4.825335198273784
Pb 6.882618130305862 14.457201865631937 6.429757024400761
