45
Energy = -148.95644819 eV
Pb 2.7213186357480748 9.726705158474095 5.129176641476614
Pb 5.65493647051455 9.539868334532901 3.9206116081285494
Pb 4.876992214228506 12.35678011605406 5.514445912600704
Pb 6.841171840294931 3.1866715732933044 4.6903460063789035
Pb 6.090967122782028 6.2302792937121065 3.9276097642182903
Pb 8.186091576166584 11.456905765724287 4.596459096776574
Pb 2.265870596662315 11.760997612241402 7.55399235619942
Pb 8.56791233913808 4.71347416457681 2.2335904787441425
Pb 4.424446933069195 4.697983594371562 6.344571076277172
Pb 8.845657952051239 8.0517558925825 2.861375264462651
Pb 2.118849927929767 8.639214919009893 8.265559126004266
Pb 6.869937117561856 10.750083829424192 7.791257473125825
Pb 4.943479073181699 13.360795604248416 8.689379359356964
Pb 9.330084665055507 2.408973241865321 6.503461796718243
Pb 7.548210850766111 13.962091140191374 6.72947045701893
Pb 4.988682655459997 8.099245338288503 6.808562748341779
Pb 11.452999561040064 6.071780072028454 2.2627525066207155
Pb 8.996875043952878 8.681934084496397 6.319624643414471
Pb 6.427770901489442 2.7398492349073402 8.381070550068024
Pb 7.392573180619724 5.621388519938256 7.268091918621607
Pb 2.5212948859787954 11.224477584805223 10.78901046174112
Pb 11.215957190362372 3.13231877016268 3.7753529940405715
Pb 4.863398330136457 5.573263902807411 9.495585107439812
Pb 10.082941656212672 12.02123107649977 7.174974066068846
Pb 2.2356072219067578 7.886054678277204 11.503667609257805
Pb 4.9752387047854505 9.090622835287535 10.17998451382616
Pb 9.90302785975546 5.648798271340579 5.153624308940683
Pb 13.414861218362855 5.5644604520987 4.764208074204007
Pb 7.255313109117292 4.079721691593933 11.24604804398759
Pb 8.276740041199446 12.947383079344569 9.763959822020329
Pb 9.595799889632348 9.804157807441612 9.621221064155987
Pb 11.833464734442634 8.558417451659423 4.367553015885765
Pb 12.39440843619283 3.4676185437664317 7.236127124481072
Pb 10.562021837455958 6.098338876344824 8.469596673867203
Pb 5.708532596974533 11.94648526587851 11.714109770200162
Pb 5.04589034564077 6.785406604176184 12.745423173640875
Pb 3.949482593513282 9.80562227942139 13.431795547398773
Pb 10.046606484283917 2.9012685647783565 9.706575795597272
Pb 7.658429289017069 7.208211649786268 10.37195594755722
Pb 12.13653748129314 9.301425098800772 7.537428092360221
Pb 13.889018787020678 6.387707587885028 7.917757700472526
Pb 7.12509207248967 9.224248154478673 12.90390382962379
Pb 10.198542890112854 5.5099741518847924 11.798982704760332
Pb 12.40982154894915 7.741198535287965 10.531574741307175
Pb 12.92558120710605 4.515298704464526 10.36328459922529
