48
Energy = -158.596208 eV
Pb 12.52723849959349 5.159829398750499 8.167914404095416
Pb 12.532952501053623 7.992587685390858 6.218131592750876
Pb 12.211116080322384 8.688420836524905 9.781792986094164
Pb 11.43251051969224 2.6852355864585675 6.197105530119464
Pb 10.993013007309479 2.4509660423764097 9.473966181789653
Pb 13.181649575881163 5.109417523613757 4.935384914000544
Pb 12.028961849477275 11.720123575227042 11.350294134599363
Pb 10.876769512240156 5.898720090604747 11.053004074776094
Pb 11.512995745568903 11.371590708181586 8.132264005687372
Pb 10.754920906162948 9.109889640383804 12.962036658679203
Pb 11.348797056833835 7.27414115126421 3.114869031353291
Pb 9.525053743075281 8.491301234201032 7.582152408896553
Pb 8.688201536053263 4.351457219383577 8.228933398957533
Pb 10.55185975254239 10.177354310786468 4.676073620063689
Pb 7.8376079790288555 1.4047145765698914 9.262979681006167
Pb 8.37721194597839 2.8750159346217328 5.007703865419842
Pb 9.520872625142353 13.356056665714883 9.980629650934512
Pb 10.061121571068401 5.707580632395792 5.630252712206192
Pb 8.706000146168334 3.558505065630072 11.636933755613388
Pb 9.163638138497705 10.189484628227259 10.401250844765563
Pb 8.597533801288403 6.621881294979739 13.408332895042438
Pb 8.829606170924984 5.259260431474131 2.5199172545902955
Pb 7.761651063974442 6.644775554240817 10.234811138092468
Pb 9.388385966403865 12.210558041068051 13.118100041236252
Pb 7.095561518554557 9.718293068921081 13.466068970704878
Pb 5.970573981046464 9.387559021156317 9.924472987398579
Pb 7.728884020560211 7.934219330787255 4.45763473207946
Pb 8.656885988423383 9.55400540238331 1.758660005719849
Pb 8.112650918755199 12.087798635942713 3.7212018785814998
Pb 5.996544019115785 4.762589957595951 3.99769481092728
Pb 5.80810969400109 2.7322682671512877 7.133855969641036
Pb 5.4752286056014965 6.948003450616876 12.647431803237053
Pb 8.35167567522266 11.571865297067509 7.0042923775087935
Pb 5.79122088204817 3.989836821239019 10.271638671027116
Pb 6.380101700232888 7.136920170790358 1.5311845151241126
Pb 5.992283739934636 6.292901861909772 7.0184394426049375
Pb 6.541384479649209 12.338648646543577 11.499431617360028
Pb 5.556170730745376 9.637807606919583 6.6500166493907304
Pb 3.780212178703259 9.86167062079442 12.234123381629846
Pb 3.4435049833370046 4.822025427575661 8.196281372261252
Pb 5.531531018217227 10.15774204010879 2.728566734007219
Pb 4.146859748892605 7.325183312002181 4.002778751271256
Pb 5.32331528725529 12.553800643043786 5.2327498512402775
Pb 3.1967461088686404 7.362324068254517 10.358792894754028
Pb 5.302487198784477 12.463700685476972 8.512946562636378
Pb 2.9208539814954886 10.396526135998066 8.949311128460788
Pb 2.6939217073877755 7.805423168248607 6.97767700680077
Pb 2.9999614931362464 10.38556854514784 4.831903734764036
