49
Energy = -162.27140814 eV
Pb 12.756009572244897 7.595692699620883 12.463726799625604
Pb 12.184145023798129 9.968381244216323 10.070061719390404
Pb 13.245515482495923 6.847351672407471 9.390104358353454
Pb 14.17792447345926 9.430239406858401 7.302407050669326
Pb 11.527284675341546 4.758355903542801 11.343742132321557
Pb 10.22982142174095 9.664107537542026 12.891627145386368
Pb 9.859497289256165 6.523623463956585 13.630025403184144
Pb 9.837464974759786 7.393609599192067 10.442452598609634
Pb 13.17928732539523 6.536615767188418 6.089328399803548
Pb 8.435488384138958 11.835414814952205 11.069266518640104
Pb 10.730316984442021 4.877988267995989 7.845232346453996
Pb 12.197710968608323 11.818794704080146 6.544647906976067
Pb 12.250062098737606 9.217358768712609 4.499491580677972
Pb 10.928936399214278 8.524375893704807 7.434714879840242
Pb 8.247060918134503 4.2483422288928 11.96492246223479
Pb 6.976276491756906 9.165894120181099 12.677476175284847
Pb 8.129994937613308 6.804400700170732 7.413524941462978
Pb 10.03043006352552 5.869179876729761 4.611432117022394
Pb 10.196304181216098 11.691982253196983 3.968198395557671
Pb 8.915289211463849 11.128744569171774 7.946285472101809
Pb 9.793521982902393 13.769680664878786 6.36832069761194
Pb 6.083891745495567 13.149422131176324 8.951489640046503
Pb 5.697290789528484 5.923281712529262 13.25104992668472
Pb 5.409378391917739 12.037263900876713 12.072442745383391
Pb 8.589719832511042 8.903724764687517 4.821296843547329
Pb 7.157808757951908 11.9300707815535 5.416675112099391
Pb 6.000523439757933 9.969571365255943 9.330024358999236
Pb 8.846319428461241 2.444857760738339 5.580293247086047
Pb 3.7019014206172844 9.223542731926727 11.683578831011376
Pb 6.658192699582869 4.881602008939616 4.909325179352094
Pb 7.6827515459751465 3.6914904854261286 8.650778617501977
Pb 5.247730888445958 3.623477895828837 10.998823076235436
Pb 3.234224576494075 6.0917550964321805 10.892369318947718
Pb 8.802350239046335 3.5824372032980785 2.5798183244736506
Pb 6.357332240342753 6.8159339565705315 10.25015468787906
Pb 3.1616027266794338 11.796081488056625 9.781075074011168
Pb 4.163547568754071 11.38791358804742 6.691348380050595
Pb 5.342006453830706 8.193615812234949 6.188783562505973
Pb 7.559630723535004 6.840325865880243 2.2251070743386547
Pb 5.806825783722138 9.576993897507824 3.2142303740816374
Pb 5.566265169005933 2.1395747463453163 6.619925315613552
Pb 6.445564396027413 1.6104023714034608 3.5824473976107525
Pb 2.8913163457120565 8.731241679408296 8.224065891266905
Pb 4.645195522979892 5.132287913120407 7.947390418606811
Pb 2.7789576294458227 9.28018792636649 4.436003374115562
Pb 5.691592528758577 4.093117025409358 1.6417466625242474
Pb 3.6517441762642333 3.583904905513857 4.289476846478193
Pb 2.461220757190774 6.350408709710273 5.7681546064192055
Pb 4.134372909924333 6.67672215650368 2.9356508939129093
