49
Energy = -162.05631124 eV
Pb 11.230580411813383 6.958850122879079 3.305574898199262
Pb 10.752328393767487 9.965753057024063 2.53222889133423
Pb 11.504651736452814 12.394472242459804 4.432966384493237
Pb 12.444007120025958 3.6783256137139015 8.938777651711439
Pb 12.079928229623201 9.35633903812519 5.618021840796514
Pb 10.422638581044302 4.18089422832219 4.875832023121975
Pb 8.381660227330675 5.390709766880571 2.8024504333980986
Pb 11.4536763526703 14.005151807868275 7.400933953740044
Pb 7.839538909059678 8.605361076493688 2.301959547345677
Pb 8.176300911333138 11.754711810380748 3.4906714996955768
Pb 9.058656025124785 14.414221569162978 5.2874746231618905
Pb 13.00445787099149 6.413483607642377 10.474110973075751
Pb 11.623665544684746 6.113294364996328 7.077265579301502
Pb 12.093192270753688 11.55766594471761 9.45127179413063
Pb 8.867968750501596 8.224293634697196 5.264735952685889
Pb 9.464577286580447 11.39041027164044 6.823355444465722
Pb 11.901281268955087 3.620822879995335 12.06266259311253
Pb 9.376173676559798 3.2338398744062893 7.821060837999267
Pb 12.203770752316887 6.415694587050691 13.600905633525949
Pb 7.185576518910188 3.6019559988337884 5.405453832381337
Pb 10.9952606196564 12.298984409069673 12.534229649384498
Pb 10.343787604554459 8.69275864598171 8.53805994358322
Pb 10.816097175565645 14.683031581113223 10.460623125855818
Pb 5.814725626795256 6.567677130987834 4.41128173802763
Pb 8.777388212121146 11.43331097579709 10.107603531597531
Pb 9.869280537395824 5.6680448646682615 10.194319202860287
Pb 5.454551967692879 10.00628345492632 4.555006867407244
Pb 7.099779928052047 6.2778797256330305 7.6761113429539485
Pb 8.699349089373696 2.7423328609781707 11.124017556277582
Pb 6.219441612573037 3.302723292497526 8.925474281533843
Pb 11.196302611055296 9.049825312190336 11.690644464327134
Pb 4.309793988847867 4.554778270681118 6.499750781862575
Pb 6.264151596888372 12.816000160288635 6.1097292951175906
Pb 9.188155672414563 4.649060299947831 13.688914374481657
Pb 6.3402441214253376 9.758883539199662 8.067345408046743
Pb 8.13352401199894 14.62549495080044 8.576586027811587
Pb 8.024975946147384 13.976483300707526 11.851510060700953
Pb 3.76718385376672 7.837282713908552 6.599981333896256
Pb 9.49058168437785 7.950181443826437 14.403344503474978
Pb 7.828199848626708 8.050094269449065 11.389927004159565
Pb 5.985815939694199 4.4213382797303735 12.009342134551767
Pb 3.980312512725396 5.713020588660116 9.491127863195471
Pb 3.532666264665065 11.194724242680028 6.999040053301372
Pb 8.242838345201106 10.8421039276202 13.369414532851177
Pb 6.676744145785235 6.640832079169007 14.280043925806687
Pb 5.370805125546808 12.777459839531163 9.254144968836364
Pb 3.3643911126408326 9.085513993458827 9.517243069398358
Pb 5.5791386749942475 10.590183894409904 11.538947169030985
Pb 4.5626776971955 7.51025682107603 12.161317768269175
