45
Energy = -149.36308907 eV
Pb 10.87740560112348 11.74125998927047 4.074558912538966
Pb 12.650284871916899 9.115757546368192 4.789504562654919
Pb 11.884890488620877 5.886344564835611 3.6034096976465837
Pb 10.346751442092598 8.959637998819971 2.401008339440905
Pb 8.682710397322646 6.031565687602378 2.503750013898441
Pb 11.384861214986156 10.905682561568051 7.209510700588435
Pb 13.332646492587678 6.40482348158466 6.557613183968608
Pb 8.555844029596066 12.277646094013585 6.256484973818983
Pb 7.83016110034695 10.989242820833772 3.2988714512677144
Pb 4.978966212241249 9.046299580641119 3.1309908006169644
Pb 4.490828970203528 5.95328646830528 2.3511183444366943
Pb 9.368462058301498 8.973294864996939 5.47507271082653
Pb 10.044628773164396 5.598236192967837 6.458598236008641
Pb 12.682807937718504 3.360358594182991 5.621844402820258
Pb 9.824114848534366 3.232845634770419 4.0509273150600045
Pb 6.599786640003184 6.5940941863834235 4.883759244552376
Pb 8.543631338755157 9.78573129236572 8.742860514768324
Pb 5.9201480465926695 11.652954749601074 8.926162205962875
Pb 2.8492846534190077 10.52894769622027 5.058192406324262
Pb 10.808995926288807 7.470271467555323 9.224651550905264
Pb 2.0417166516195175 7.353046967194968 4.078022584462848
Pb 12.290057610127837 4.292061264694713 8.687979698054571
Pb 6.119998949371022 9.84260058431495 6.131087682734539
Pb 4.04832087564791 4.547484858093177 5.294051701568248
Pb 10.476282503969621 9.849065611270309 11.659429255339168
Pb 3.8093620775814774 7.617309595054593 6.888586169071161
Pb 10.010985909690582 2.4473179452723666 7.3002479958874495
Pb 6.58674357353676 3.6485762550578924 3.1694590280322616
Pb 2.749463763543149 10.518168368731711 8.350164768412375
Pb 9.219290066074274 4.671549996205453 10.028010685190065
Pb 0.5380849929480669 8.812710101108207 6.588102655062315
Pb 7.372767741688913 10.8989194475363 11.959713683977817
Pb 10.598472452063506 6.6687656000574815 12.553087823493938
Pb 7.021726006381028 3.4161195948626535 6.3650615848547245
Pb 6.68652006920003 6.064972689372446 8.338924607933023
Pb 1.202989457234621 5.658163368532499 6.851642711102599
Pb 7.8680005296339885 7.682648552677709 11.183308683782498
Pb 3.6074739002016236 4.770826237557805 9.01582912476496
Pb 5.049341263962864 8.737149330742769 9.99792514497001
Pb 6.180161565193259 4.066197076472458 10.920087629550713
Pb 8.853327647425997 8.766874402263626 14.276254249356983
Pb 1.7156549225647113 7.590510329759326 9.493140108223113
Pb 7.345231339117539 5.816747999011876 13.655408131932461
Pb 5.616864368879136 8.671869475084275 13.546415612127879
Pb 4.095838860676221 6.336038039249997 11.949677870516695
