43
Energy = -142.29750034 eV
Pb 11.769044094306633 4.348067627180657 5.620347361683599
Pb 11.945352832888437 2.730873177448041 8.618139539500223
Pb 8.812665106689046 4.12491659152691 3.6538809024376295
Pb 14.010589148875551 5.154634732802217 7.967870154735597
Pb 9.29215886044219 2.2176510262734404 6.481636653688127
Pb 9.468730952636239 7.926148688614486 2.5074583491500633
Pb 5.622081411005208 3.4760684808510383 1.9061408281679562
Pb 7.314282675387699 6.029478541300788 1.2833814993264905
Pb 5.950524881893898 1.9366152117385753 4.750065506275805
Pb 12.383814059409511 5.115177719523283 10.857667471429844
Pb 12.624207739732064 7.477290951501417 6.073091352528143
Pb 9.271585510470667 7.139114156624227 5.667675250319291
Pb 8.786592582256805 2.781703219007992 9.811449315150265
Pb 10.471919897551249 5.6823319461851804 8.358111473303307
Pb 6.531690897439699 1.2741363609334018 7.946669988050588
Pb 13.216607565521029 7.929127116484735 9.297759440084903
Pb 6.084516027835967 5.375402990848505 4.646998966852348
Pb 3.2534599714999524 3.747206464411322 3.97647933321351
Pb 8.710027818942146 10.30886999686356 4.379512268875818
Pb 6.36422795085312 9.03223538895168 2.1561324890377436
Pb 4.018572734438367 6.699345220833468 2.6301371877659943
Pb 5.380373426066489 3.3625156038451274 10.09657000399267
Pb 6.11835602415233 8.577545519795159 5.597096547136516
Pb 5.68452521927289 11.600392694008065 4.133029395710435
Pb 3.0994501219902104 6.862977552732742 6.108197136409359
Pb 4.0184671172960815 3.4643435581145687 7.117503569416391
Pb 7.6133033968251596 8.351254453219816 8.708984951467313
Pb 7.630312258872976 5.661842716050562 10.866419670588318
Pb 3.1684135967293368 9.623156037495512 4.425315058302787
Pb 10.636568866884994 9.37489901958156 7.814358866529913
Pb 4.730490329476934 6.372813988508751 9.00131247182436
Pb 7.314090116420185 4.670919032862832 7.585739420141887
Pb 6.907275219334714 11.7251207508622 7.15740208980713
Pb 10.271597616251587 7.821912492637378 10.788973806937904
Pb 4.4499972569435675 9.933054882783555 8.380100911419873
Pb 3.336274351983109 12.455546047496897 6.432356446326808
Pb 1.3596877625902015 9.786812880062854 7.154926745381702
Pb 5.35836405037633 8.527631989543359 11.430255196139171
Pb 7.076031370357354 11.19311787784943 10.48649427985999
Pb 2.1561430441512965 8.898951729641068 10.358025098043155
Pb 4.848365594520369 13.346801626597683 9.247785265509275
Pb 1.8193257464574422 12.109380974886571 9.383426710449246
Pb 3.983806730373176 11.39643354022406 11.675742229395524
