44
Energy = -145.42503593 eV
Pb 9.739849330499098 13.764011259991937 6.979725906161563
Pb 7.95528993083882 12.011966756301472 10.94808304963779
Pb 6.629536728045864 13.497174503077852 7.644974772469012
Pb 11.255575186786348 11.617938290766038 8.861785215779603
Pb 7.884301529721173 10.146685970553238 13.752076840980598
Pb 10.60696571186123 10.191244479730846 11.78271054567049
Pb 4.238255722469964 12.235831473243097 5.52035282404797
Pb 12.856085179653585 9.415011510778177 6.690324376566402
Pb 7.634086530802565 12.618762624705072 4.701409551871231
Pb 5.208678665983053 10.68434008634679 12.04427747710424
Pb 5.564553851602201 10.66024957925677 8.795629163594597
Pb 13.524210764987576 9.470321889735485 9.924125370293051
Pb 10.827675681476803 11.522377054186807 4.978831368141028
Pb 8.969108750979292 7.123415932044047 13.250239027662692
Pb 2.8134200421555793 9.800199204941654 7.362159281982803
Pb 8.538290751782002 10.671606739844208 7.353398754245998
Pb 5.244876656160631 10.828916817167178 2.6123751319355706
Pb 7.6780503979897805 8.771216458094424 10.648249384697241
Pb 10.534103033897013 8.1821528382129 8.714138508856852
Pb 5.64969039501562 7.710444000985095 13.07235849365437
Pb 5.625663642244721 9.19853593819966 5.399831694246877
Pb 2.3233862652281205 9.907499245539489 4.201347026350415
Pb 8.859639063339259 10.574358534606999 2.5456950425681946
Pb 6.663652767230877 4.619844487015897 13.33945056308758
Pb 5.423209932875036 7.20377351152124 8.084023501774512
Pb 13.524611239324573 6.63680476900546 8.529444866714686
Pb 9.25241176148444 8.332562396918528 5.021358866248641
Pb 11.961844184742569 7.097254959652186 11.440090727388151
Pb 7.67104834348483 5.454318926184597 10.319719936102388
Pb 2.954174561312798 7.062502022687297 5.751762863681469
Pb 4.443141842794921 5.2653161400171475 10.768410439444798
Pb 4.012883121587583 7.642922775735191 2.752847764956106
Pb 7.171367175544044 7.93046022314999 2.4295519382778132
Pb 6.08205862691819 2.4382588272973735 11.045846652669239
Pb 11.924592363859976 6.434378358231891 5.5970656670397245
Pb 8.730269846280347 5.636284689423013 7.194769350819465
Pb 9.226388494758751 3.1212270883616444 11.924843962585253
Pb 6.228595058210217 5.855820854533834 5.008328508277105
Pb 11.095247892535271 4.44568630895992 9.476601469597528
Pb 9.351460738892811 5.067490373616645 3.9749621631622745
Pb 5.630203296152409 3.6191778799411267 8.013034078998198
Pb 8.539609085524585 2.315199400613676 8.757970275786276
Pb 11.070659419158241 3.3411572623605297 6.375678390355241
Pb 7.911822998727004 2.7880665973287955 5.551884461851073
