42
Energy = -138.80283779 eV
Pb 11.758628838263608 8.109666327351354 5.063531412711675
Pb 10.713957182487222 11.18669127129747 5.882094672426599
Pb 12.56882386016155 6.16360936302798 7.582813468942888
Pb 11.736867566523891 9.28967101681181 8.242269299734296
Pb 11.537779954041715 4.551994674866395 4.627980877446879
Pb 10.003778649131593 6.60583029955967 2.5942332760330546
Pb 9.04359750312208 9.577514370215468 3.445572856948929
Pb 7.448706360248673 11.482005958745209 5.7212114348683585
Pb 10.593908571309495 10.307529398436154 11.625078321432973
Pb 11.317278823053858 3.0630823495679933 7.572295509517183
Pb 9.604575800465437 5.514905506289615 8.758193636079326
Pb 8.897865143291181 11.047295011107188 8.72206728839333
Pb 8.820948294031993 8.420337447365956 6.748493446403948
Pb 8.968866267315592 3.512299187690686 2.615189583587669
Pb 6.836168236754453 7.265636083034066 2.1657605173029784
Pb 11.974184993310269 7.303182161287328 10.897473615817137
Pb 5.809012530242202 10.274843999863437 3.1673785532434304
Pb 9.639119813185214 1.9216960685716256 5.245224763199739
Pb 4.091297967441541 11.634463496831044 6.042428228428616
Pb 5.962360033889384 12.81102074253 8.517001715364321
Pb 7.964042827819713 5.33692349752228 5.151397511576651
Pb 7.626745745433611 9.57901182385275 13.112130574114754
Pb 2.9160770566955905 12.094360331589282 9.117335422377145
Pb 6.536609843164021 2.3336350167663875 4.566342215473457
Pb 5.37351839650161 7.828297843637207 5.478533913721692
Pb 10.377253647283545 7.87045290114159 13.707036238312828
Pb 5.101497876985147 11.097109241917902 11.319956187343793
Pb 5.285213127713049 9.54073052311541 8.423836670825287
Pb 8.618778816976018 7.971091273915425 10.557352490308595
Pb 4.916708414240208 4.882868860973406 3.295159465211817
Pb 6.439045016622746 6.18898832597235 8.39512743445104
Pb 3.644782128029019 8.020691934923223 2.739269136478326
Pb 7.667777990313576 2.9423699230090494 7.764913406505583
Pb 10.084775854145283 4.943223177157891 12.098646104519116
Pb 7.555342918611627 6.373568406735314 13.64734810333864
Pb 1.976581449950228 9.53078777773752 7.259690153831457
Pb 5.356152270817172 7.416880312313955 11.35079727769118
Pb 2.5511100724766362 9.231790498365969 10.464235261534782
Pb 2.519983665248229 6.236990561259374 5.155169655835183
Pb 4.606092576289242 4.047369583080888 6.5455114233821945
Pb 7.153851097836371 4.350914264026387 10.940771041745567
Pb 3.1247139831345536 6.680319680708742 8.30297649413398
