47
Energy = -155.25911176 eV
Pb 7.584566741456406 2.5155417617439597 8.275384173495505
Pb 8.963586966599594 4.235876914795925 6.099736596355524
Pb 10.621355092423489 3.7759031222034514 9.1091993148254
Pb 7.856156489273164 3.6299849230824828 11.393069150952558
Pb 4.58600866916189 4.380608080683707 12.868057235096073
Pb 10.316450250448895 6.322165982882513 4.136073853813387
Pb 12.250468208212844 4.9103214761157865 6.449683370421866
Pb 6.990572452250437 5.948526691366053 3.702016097086518
Pb 5.700944030872093 3.688297700932221 5.639206881133465
Pb 5.15982596525914 4.071221567345917 9.660904301347987
Pb 7.946929090527957 5.9295227195825415 8.851642949716492
Pb 12.353168270563984 8.833467018362436 4.22538708775979
Pb 9.054581410572577 9.434291447816147 2.9772641020327986
Pb 14.238941473570614 7.488918816620478 6.549116115474136
Pb 14.706382421378619 9.030732695285446 9.311833592682127
Pb 7.557556624297924 8.005685694136158 6.062093928483653
Pb 12.82042493058633 6.370928306301216 9.409494390440432
Pb 10.008160839540794 6.16722613108449 11.417022291572323
Pb 3.167943407604243 4.644140244920884 7.2828147019327565
Pb 4.4468820683438315 6.836913579202619 5.463251661629692
Pb 4.756803295433439 6.917096459885579 14.929577601803237
Pb 7.453042085197677 5.01575420438716 14.37863128791095
Pb 10.966709153043942 7.938500274576665 7.0863108870995015
Pb 3.1481190597381272 7.427635529001141 12.16904706922377
Pb 6.135481740859225 10.310738479939213 3.9454589314452133
Pb 13.294533458002904 10.679585071991706 6.705146895739054
Pb 4.578846752878854 7.1923652879120725 8.935870838894312
Pb 8.885569546627668 11.08739719399742 5.949802838099091
Pb 10.407641768673157 10.879049944711314 8.977297019733571
Pb 13.50316842723062 11.89452574373572 9.996673287342862
Pb 3.91171836345658 10.061486047559349 10.255962284615977
Pb 7.67852134898114 8.211365484933019 14.863037574052326
Pb 7.174557710717635 9.554248681815414 9.299866706858863
Pb 8.831656285694732 9.295042120541423 12.096223782431544
Pb 12.075350729861631 9.174134703583231 11.178124975061204
Pb 8.121349735866067 12.611793360403958 2.966217017870545
Pb 4.895728856586183 9.978529360257852 6.96753867280507
Pb 6.451330625383812 6.9334009772325755 11.880672715590427
Pb 11.25367301698302 11.845528170992438 3.8615169689958364
Pb 10.972679315323001 13.58978118529333 10.766387007921407
Pb 8.752139986077648 14.084297338947051 8.393919900910227
Pb 5.293138257494252 9.745515424387198 13.260848713210482
Pb 11.909666766520717 13.562962498013775 7.577512628065631
Pb 8.07383998285207 12.30893089158821 11.15331671907629
Pb 6.426458877588457 13.165327425915544 5.808769483863363
Pb 5.660581502469171 12.51568639397278 9.004314198418982
Pb 9.593915438007336 14.336174360455447 5.245829687202182
