48
Energy = -158.99217228 eV
Pb 2.488793681738145 7.035937938744018 2.6495314313256952
Pb 1.1475233868792052 6.577945390917215 5.713331248094429
Pb 4.391424887852458 9.378969218110674 4.601961578831764
Pb 1.790703749079423 4.026957666308151 3.812514293548579
Pb 5.731635702686095 7.491788408982329 2.3032519014079957
Pb 4.40385580102407 4.465283621542764 1.8878182833207786
Pb 7.362055306882381 10.512543820803927 3.6421859576909985
Pb 5.789290728351291 11.997562582482084 6.298048667036053
Pb 4.334191268774328 5.95476508461254 5.088393169483315
Pb 2.928569990340011 8.639625536000406 7.4206819636220995
Pb 8.613702523404426 13.23824939297271 5.061195508884235
Pb 2.480181189668375 3.625457875688376 6.939558779842558
Pb 9.602834244894154 8.253704456817948 2.876466335051978
Pb 7.384719368456297 7.557049525323389 5.257159826128828
Pb 4.735699853421486 2.5525912447754635 4.620806601936365
Pb 7.566262953048008 14.164293230965072 7.949583512774928
Pb 7.2392128953136385 4.674549049796562 3.600933819357811
Pb 11.026858403055721 10.928677650347485 4.2478576804691235
Pb 6.237829712640207 11.641704850846715 9.619239793514078
Pb 3.430736786553848 6.738983463369577 10.008807597400777
Pb 8.740917761449863 10.912569766488255 7.38793544595171
Pb 4.962944123323063 8.911524784594466 11.951960935096576
Pb 6.02317173555294 8.46967727971502 8.391235196499732
Pb 5.443281361347274 5.009641766059685 7.9375438790830595
Pb 10.730893953083608 13.583242282130414 7.5150893994959915
Pb 5.034550787146893 1.7888575424750912 8.016118788254005
Pb 9.32975442828068 12.71689931285777 10.340292087221478
Pb 7.076735843660936 7.25582605698745 13.989691744174339
Pb 6.9924291461145724 6.3400678668194494 10.778323448885292
Pb 8.952603710413232 5.5231300005471455 7.47226463314466
Pb 4.434231025640683 3.5964492226594396 10.811696055984124
Pb 9.521803369376833 8.356608958489964 9.577161662871575
Pb 10.746219673681972 8.298216892595951 6.262622294256121
Pb 8.036967559355118 9.999629980138414 12.06793388586697
Pb 12.693151359186686 8.06602068453332 3.4973834318955346
Pb 7.642899475847802 2.771717972297831 6.355796409689352
Pb 4.283726660722334 5.888806664962652 13.139036934489065
Pb 10.937228911367319 5.452691392677009 4.619691460971467
Pb 11.982683665680332 10.895345072776161 8.996025504280677
Pb 7.611158259147393 3.0832640772685265 9.734351870848098
Pb 13.504765840263412 10.00589600034925 6.124586757781414
Pb 10.103159475035865 7.313759110689925 12.68481233578487
Pb 11.228168431778233 10.2244568984847 11.940290742636154
Pb 10.456643415512627 5.1688222958636105 10.335998602885555
Pb 6.909532283269569 4.054924277229429 13.051379144185175
Pb 12.092888475249397 4.500654046105263 7.624059011477585
Pb 12.683180787598777 7.529586599504827 9.195430593173786
Pb 13.795012772452198 6.737426342232919 6.154400608417875
