46
Energy = -152.20936637 eV
Pb 12.19151024269045 9.79013296709321 3.1420519795967254
Pb 10.943202162149204 10.620394303802493 6.363343826871187
Pb 12.864121041798066 7.916058680907745 5.706663575562174
Pb 9.170186008117303 11.142494947536393 3.5616298596641625
Pb 11.958663768018159 6.521332505852738 2.4462717052147207
Pb 12.963973418674204 4.69978635412751 5.480257613140699
Pb 8.696036066085815 13.148448401898847 6.321687896875181
Pb 10.4598326873611 8.360023843524978 9.223423243407243
Pb 9.771560179917746 8.746951558389213 1.2667036928458026
Pb 12.74623409792865 5.847587369050103 8.788055261727699
Pb 7.699515334284943 9.844960565929904 6.497019347630188
Pb 9.132536354114464 11.505911835880084 9.093488803926817
Pb 10.484683133825325 3.706722905878478 3.664891654878249
Pb 9.776185920317877 7.8627133652953765 4.6362785845521115
Pb 11.739770690156183 6.601406842812861 11.885316320128963
Pb 8.606998348913953 5.86989670615858 2.1751340511347594
Pb 5.789989955199819 12.10604581414002 5.182114238740062
Pb 11.830437091378904 2.7681103333970425 7.8665478825673265
Pb 8.68630622009158 7.580401406856435 12.061058549891778
Pb 6.299283627886966 12.653356869884936 8.594670639067699
Pb 9.527374800680423 5.184050312887227 9.696968987399929
Pb 6.997796473938233 8.643734059068375 3.143733775586623
Pb 9.888937016552775 5.142361576116886 6.514678805130769
Pb 7.131951375704307 7.567210693247103 9.087192351419077
Pb 3.4808628259470247 13.136997772320973 7.297209246276628
Pb 11.923395213271105 3.389705468697717 11.105239796547085
Pb 6.481277646394706 6.6466626156188315 5.739730176093334
Pb 9.417137732002969 4.454368025699627 12.966127788407336
Pb 4.517043345576089 9.890808459910733 7.649376535099231
Pb 2.6503066014300165 10.68886708073368 5.0238629618935695
Pb 8.801366819951049 2.0731404355477427 7.386099714156993
Pb 3.3638590300321924 11.517603673499229 10.235056885910685
Pb 3.4805940479762443 7.607842339870714 5.1455797128640635
Pb 7.462957403015793 3.639652429694214 4.8575054790101
Pb 6.487430907492497 5.165302796698392 11.437681194962115
Pb 8.382643051053249 2.3719322624492776 10.663011005792674
Pb 6.411475237138793 4.265607035862555 8.25693393787405
Pb 1.1926780726706918 10.950015621687369 7.907719550968839
Pb 4.588025270745129 8.550256854357897 10.964926513722679
Pb 3.7377794612906503 6.643601823421399 8.402707355174591
Pb 0.6507770754669516 7.801233106615141 6.979974205046558
Pb 1.9497491039357258 4.855237103812193 6.334682695560963
Pb 1.2275726028325078 8.484080036724729 10.167328243993332
Pb 3.2054942464906104 3.599068984190007 9.110985260919199
Pb 2.786459210445673 5.848544694764621 11.496639484114342
Pb 0.5164342203547069 5.356216587578333 9.201902027913597
