49
Energy = -162.19561895 eV
Pb 10.54758711321775 2.1345929913183994 4.338484354922631
Pb 7.3912524782396325 3.0551015665195598 4.6859447451833125
Pb 9.352424041034645 2.479466122054162 7.334449383810614
Pb 12.43278254631903 3.6603812251299486 6.597210229087719
Pb 4.87373339394077 3.0791558789505165 8.656086225201385
Pb 4.6694055984013465 5.108965125132672 5.9781417670391
Pb 9.324353523455878 4.050155782241302 2.171213271100237
Pb 12.277426289329652 4.809918749408748 3.5346651020948183
Pb 2.011475294972465 4.012948339926306 7.439903689901126
Pb 5.749996320998273 4.0119612792652175 1.8463617833875565
Pb 10.79031206998125 4.80435283344379 9.324629932547667
Pb 2.652931538861679 4.296895631091453 10.718230805738882
Pb 9.81345845998556 5.3660311905166145 5.586318263561921
Pb 5.935355574916658 4.456062554105836 11.38495497154738
Pb 7.162600440532817 6.399562165892603 3.7138637412170983
Pb 13.107133005319376 6.622303605123414 8.107765326920106
Pb 7.564511888710564 5.1792909250337855 8.396404792125436
Pb 3.0248924305122435 5.194915058978578 3.1717905606910564
Pb 3.6744205229235782 6.794517704952186 8.876271707469455
Pb 7.781416046639873 6.265946784705454 0.4479664266065514
Pb 11.592782810464492 7.879242497288497 11.059004031466591
Pb 10.083195508049117 7.430782086070902 2.629950554843529
Pb 0.43970534409954176 6.234511540669325 9.202650549256026
Pb 3.7605038640211235 6.8802887020305565 12.616965149372943
Pb 1.3445026795876631 6.987608927104625 6.086476555891542
Pb 4.878064556121426 7.108630700211428 1.3683787942937296
Pb 4.1398890644894255 8.0664790321433 4.38920730357737
Pb 9.896174151284681 7.962328015000283 8.222436784752784
Pb 6.704544636753307 6.615669825335562 13.915295975406279
Pb 8.026625646466325 10.4651847988493 2.380059023182849
Pb 6.421937406743561 7.993330813686755 10.674873889196796
Pb 12.094287322108784 8.502433794996831 5.6153892163084365
Pb 8.973247732791771 5.936658434899014 11.684092822480514
Pb 6.201980136718303 7.984661300868959 7.001696367595512
Pb 8.734508964014319 9.19140573528786 5.245535606919707
Pb 5.648190371667493 9.6487453309463 13.799829693169942
Pb 3.5760622699255267 9.776554102531565 11.26151125320903
Pb 2.28427973802964 10.20784512317112 5.86347615190485
Pb 1.4156819465908588 9.229329777077398 8.705779894788417
Pb 11.001397927234951 10.904787991085971 3.416169214098192
Pb 5.818057729935009 10.842392563615267 4.770120231385882
Pb 12.880074454509867 9.738340731136285 8.679472229530598
Pb 8.724158358861866 9.069972416637103 12.944898789517296
Pb 4.510405579418036 10.59503560257529 8.218761775688884
Pb 9.984396158263772 10.669647884846674 10.122696219434923
Pb 6.728490625518871 11.162095812910946 11.195302848593169
Pb 8.616285924954314 12.659537756101813 4.7739863352986385
Pb 7.627774680562951 11.440578754717754 7.734236783806717
Pb 10.913195410415529 11.452603438178311 6.734019137660039
