40
Energy = -131.43135983 eV
Pb 9.59587979227134 4.469522108310358 14.272143194317385
Pb 11.417227601077139 4.884233420089089 11.617879654237626
Pb 10.155620514809527 7.452194111234268 13.454741182847172
Pb 8.18747437772492 3.5089633134162623 11.636794556886022
Pb 13.093359611824546 5.48091136254233 8.747133892468746
Pb 6.99932626947732 6.136092720298942 13.344059797811388
Pb 13.732753819142918 6.448932609240572 5.6061678902062635
Pb 11.470666755564014 8.278899117223201 10.410646624635213
Pb 9.989504890085874 3.6194936727262705 8.808849268144929
Pb 10.133740077510042 11.10165488437628 11.760327676474258
Pb 13.559949151933434 8.64591686157171 7.877559755815821
Pb 8.689330613558585 6.549340744015218 10.352783225036106
Pb 11.701022600929544 4.03681353743416 6.031109820390137
Pb 10.337071122931297 13.688424988359536 9.706857250661507
Pb 7.382133762236216 9.155890887198591 12.43964130009841
Pb 9.39427217773267 14.22427001398075 12.631528336746493
Pb 6.7789422671639405 4.03217822450528 8.401229162744725
Pb 10.590585461199606 7.069889301863443 7.256407939092767
Pb 5.445928210402217 6.070489464566614 10.452223221985687
Pb 12.031304542931178 9.173857466823934 4.987747424379389
Pb 8.701714725416842 9.410079707236372 5.658973120081369
Pb 6.916336734528829 12.44991184685162 12.111955503978592
Pb 7.8658980732246135 10.527227531927892 9.462974486813131
Pb 10.691969831335493 10.916084228985518 8.182407833168547
Pb 7.438286327721565 15.076653698587357 10.19014313888069
Pb 3.4708684981007414 7.090752564442364 7.69950015616781
Pb 10.708492375307905 6.359497072365014 3.8680193378942325
Pb 4.751189204788762 9.328174403665031 9.763589919705971
Pb 6.870068414920201 7.387381015798414 7.595786423042819
Pb 8.029803374741451 13.270372270010329 7.474723139531645
Pb 8.449613914531497 4.5691387861054515 5.621179388589439
Pb 5.232934526705408 5.273616050481301 5.665682370384185
Pb 5.352417420762654 12.752408804858618 9.310205605454549
Pb 9.335777590866089 9.08546776874483 2.623381221615185
Pb 3.9235032798818734 8.094613869882279 4.489168039177232
Pb 5.916876192820028 10.713459368780153 6.623545845514058
Pb 7.166788822967729 6.785039535460454 3.4313517726393377
Pb 2.7851116858149334 10.097291832876538 7.0156893217447225
Pb 6.347034231931693 9.987711135827341 3.1490666012134856
Pb 3.7618644473330973 11.32837797617831 4.277961828566775
