41
Energy = -136.33544083 eV
Pb 3.784496176620296 6.735216876614207 12.014700591869214
Pb 2.765712713604885 4.429542373412451 9.961473644638557
Pb 8.379644817220449 5.982960581217296 13.297871811301496
Pb 6.396463163013471 4.643858047056747 10.668905713160681
Pb 9.316608415152086 3.230235003663765 11.791831788802211
Pb 1.2981417615055166 7.4117473324043175 9.955802800452801
Pb 5.083222521925963 2.9905147139912036 7.901852078102571
Pb 11.533424898029335 5.3134179098525305 12.878043482694046
Pb 6.9245533772737895 7.862106175018158 11.01099506179737
Pb 2.0105468116042506 5.886352382219683 7.090371891291986
Pb 4.900242114219814 4.364467667994062 4.956318467508421
Pb 3.6703605903824017 9.609714501535535 10.383648337576979
Pb 4.569840309154378 6.870898906910612 8.785250097273794
Pb 8.331922589487265 2.568233824393543 8.601813064276973
Pb 10.393686830999886 8.354468664481118 12.250749716307226
Pb 9.560743016359275 6.12150733627769 10.014837852514557
Pb 11.828881720377074 3.868796401287051 9.776848953356732
Pb 7.175266431724519 2.153124541467648 5.57986835106561
Pb 7.29429272503145 5.334371213358585 7.023337218230219
Pb 2.2381714278393012 9.121507403551025 7.428095463061641
Pb 4.737067234915956 7.703789300006138 5.478834407197588
Pb 5.671019575961205 9.866152269538881 7.672446174058425
Pb 12.887504246317967 6.9165819522219 10.507821516468763
Pb 7.902494036449855 4.781491926366471 3.759158360268521
Pb 11.880508070042772 6.438972177678058 7.375363094001423
Pb 10.0373126291381 3.7834421717082485 6.0721690101631625
Pb 9.074916837049471 8.205278700171199 7.1829281817036605
Pb 3.8771637447762206 11.016996868945682 5.047087072818499
Pb 8.452532505020592 10.332753784121488 9.509795344217805
Pb 11.539574781761706 9.5069546099811 9.038857401086247
Pb 10.273187908835705 6.964902729438108 4.355188125507654
Pb 4.970729428717611 9.548753165809542 2.288381253583955
Pb 7.296156731383074 9.979125495422561 4.607500648538055
Pb 12.168483434780967 9.290991747500804 5.831889697380195
Pb 6.441644378095517 12.79612230015206 6.130395472517269
Pb 7.999389680231688 7.909675787434844 2.1706868939400357
Pb 9.813623413513204 11.417209422176162 6.4458290556781686
Pb 5.660093164209326 12.726759050840432 2.933651376487351
Pb 10.385831250518994 10.152816837137413 3.112438011527898
Pb 7.817455098321283 11.031133924469177 1.2626381892342688
Pb 8.798608019047519 13.003009071395333 3.724943025976108
