48
Energy = -159.09056342 eV
Pb 10.001259330949102 5.913439516713649 1.0472658899180936
Pb 7.655613814694138 8.17101894808359 0.5783081694710301
Pb 7.165894264288139 5.13249258235811 2.439121558507112
Pb 10.89531311285104 9.06126181995774 0.8929611779411569
Pb 9.962270402204995 4.785801680427094 4.373389287327438
Pb 6.43401774697536 3.434774799361057 5.3278715582918545
Pb 4.786164286660654 7.190755569725319 2.596994428979835
Pb 12.309741380019139 6.973064729423773 3.0222313073863822
Pb 9.103545829852756 7.940782343352305 3.668536417581462
Pb 8.716956502697531 10.922792945912558 2.470397259574905
Pb 5.555737775329875 10.189423577041595 2.064055128047077
Pb 4.5715629049373145 4.30490069864812 8.249382585442643
Pb 9.415200183060703 2.2445483131707813 6.472915820521637
Pb 11.485300926569547 4.024321864475027 8.25830871180552
Pb 3.6173599447623004 5.218125641162769 5.1238128988801375
Pb 4.87332985492406 2.6398667118203245 11.0401827794845
Pb 11.67216337437246 10.058237957668858 3.9110459921205174
Pb 8.306402829993441 5.051103830947155 7.729845198278821
Pb 6.523660964822759 6.7687409115662005 5.408478522632947
Pb 6.54396105992508 10.354086210124919 5.080859455032941
Pb 5.493218056925155 7.523550640303012 8.695140866327858
Pb 11.378539851531785 6.965033621059712 6.263974514851078
Pb 3.6570081680845075 8.489839511284748 5.693465360461328
Pb 6.534205629817793 1.810427386796817 8.200330134984013
Pb 4.051515814120275 5.850647811064065 11.376279066021958
Pb 7.875669931955451 2.1677221246937544 12.454430493336702
Pb 8.516899465825597 8.780304405065532 7.499043048308818
Pb 7.390243518732051 5.129387831049153 11.035466905643203
Pb 11.465085408762947 10.030996533670487 7.249778908107369
Pb 9.497323181474622 1.8023934515642155 9.59702544032953
Pb 3.6015109477282237 11.842429822791772 6.412967633097965
Pb 10.576291482603974 6.8985633945505604 9.543973202268763
Pb 2.878764002035401 9.58926346483702 8.737103472861568
Pb 2.2803076554341497 6.491278767854103 7.8951104428570416
Pb 6.115113266752258 10.985255617427205 8.390352001036664
Pb 5.542184037291793 4.150241962470159 13.829181966148283
Pb 9.123993298288605 12.194068950243087 6.23924044032634
Pb 6.225928513066581 13.649153188298625 5.982300194894344
Pb 7.8705328428149475 9.064540823530356 10.850295124143132
Pb 10.69306803304413 4.126946805519019 11.638324795990297
Pb 9.549921384373617 11.494093978310705 9.57573051153536
Pb 8.617531655065507 4.705705161974558 14.380092691363066
Pb 4.790920878426815 9.579494778485751 11.39798004436181
Pb 7.842944318549993 14.124437689287102 8.777327869720116
Pb 4.626705393431894 13.81003682741311 8.90939915299056
Pb 9.745428274321059 7.15674417862234 12.66100796591773
Pb 6.478970552904466 7.197139343153317 13.520382936996084
Pb 6.58744791548393 12.382064250581978 11.24238390460272
