42
Energy = -139.07098659 eV
Pb 2.721231021796103 10.523488722498008 6.459252547170262
Pb 1.430546491153013 7.792394667877568 7.656306733561485
Pb 2.1683891714951464 10.312582014774529 9.596859403751022
Pb 4.259690252800392 8.420788215543862 4.455819292367769
Pb 5.0386134890806025 11.601135601741529 8.888120884332967
Pb 6.145228264686306 10.92333582995517 5.981048541807143
Pb 2.3979847821012354 7.422796415408833 10.810682068966365
Pb 3.032136631216301 4.7973241774506326 8.53230888458755
Pb 5.172035229266517 5.480514448484183 4.996017729945902
Pb 4.561396763532463 8.260501336544596 8.108106677901581
Pb 4.993977534183623 9.478289091431801 11.2704825509433
Pb 6.62583164249226 6.831779896145516 2.3383653834918476
Pb 8.498048748147818 13.356141687913293 6.395766303643626
Pb 6.760138461069051 9.942815698998402 3.0031516503329043
Pb 5.013448815659264 2.8285512224188847 6.773368091119707
Pb 9.047359288186682 9.407475048328815 12.7347666405131
Pb 4.372021963429071 4.939749174661903 11.58810486554531
Pb 4.711330845568098 2.32785874761346 9.932314172545244
Pb 6.315113586914292 5.20642478515502 8.771754285309122
Pb 8.157356746769652 11.427362531558678 10.50945659402365
Pb 7.345704194042171 7.803533094371643 5.763132612366423
Pb 6.885427004674201 6.999417439621057 12.248095835154627
Pb 7.902881909402376 8.443034552349038 9.544864464295905
Pb 8.356795113662402 4.964822403444377 4.20275910442625
Pb 9.427518127758793 11.72484068570113 3.7521127307615485
Pb 10.558095658885147 12.848278535042205 8.810510086503008
Pb 9.651298853531552 10.280201668733907 6.83873371025321
Pb 9.5176992597271 8.04529315632612 3.2378819221301556
Pb 7.6369714588006925 2.2119034290178643 8.50129466085955
Pb 11.629489481601478 12.978114484681576 5.78485171779499
Pb 10.10555134136957 6.381367423804831 7.55707388660075
Pb 11.163346775455228 9.465914032463683 10.428316296182693
Pb 7.495449490081407 3.6743353840715365 11.396668866749488
Pb 10.01243312303379 6.502259232085429 11.46530677245555
Pb 11.561802349074567 5.556923935785117 4.509435040130202
Pb 12.042707699047133 9.982714837201925 4.512925531270564
Pb 10.008438334881376 3.184497399818617 6.344140655886175
Pb 13.07494923066323 7.487390626729059 6.598626726445208
Pb 12.791431209125296 10.675619740788958 7.7390171259877345
Pb 10.606256119993196 3.8038822915899555 9.58330281904024
Pb 12.733372952581067 6.465808040638063 9.663088945718464
Pb 12.858251349222941 4.270341873066071 7.260673795905651
