42
Energy = -138.04054426 eV
Pb 9.687413413130091 13.852773757656529 11.226578756769094
Pb 8.475761018619346 13.786313604506322 8.12741508154609
Pb 11.48928058630241 11.260689778002014 11.753377721463654
Pb 11.545399874533429 12.829579982824091 8.845748884642079
Pb 8.283332766152704 11.313149684324001 12.793944338853244
Pb 7.098150057584292 12.323111867214834 5.326512324250463
Pb 6.581535187598903 13.116544889396003 10.67179333929298
Pb 12.989523940986047 9.984101686406374 7.331175516227598
Pb 12.355244319708685 8.460649527430009 10.057755362317202
Pb 9.965364413348578 11.188352268288346 6.360647735991976
Pb 11.465521306349782 9.318509975208666 4.163990487986541
Pb 9.556122692217052 8.235089653498052 12.064508402046112
Pb 9.050643083008437 10.734517211339007 9.657685161672807
Pb 8.256680107466186 10.146277532316244 3.2671915270420175
Pb 14.326100114054608 8.244415381787105 5.034916295642338
Pb 13.562490678307418 6.565418341592179 7.678392471865748
Pb 6.177596545904171 10.921555588071524 8.058690786396113
Pb 4.785987299053809 10.130794116807444 4.79747503645036
Pb 6.335219785437846 8.540229603390696 12.618078443780654
Pb 4.511521726573786 10.532586936476475 10.857848519069227
Pb 7.405954981100349 8.54969675454057 6.03046367289925
Pb 5.6486077334235025 7.716242611427482 9.41430778118182
Pb 12.144013137995326 5.944644538316748 4.743836673787681
Pb 10.507225930550945 7.610769420175222 7.23788609581029
Pb 3.0873132194545323 9.517111519931678 7.686169782558051
Pb 9.196605042852159 6.906199891177199 3.4645947082253086
Pb 6.058676104886302 7.7240449354165674 2.938296546458867
Pb 10.630847064447888 5.6649063656088625 10.36793386952896
Pb 1.8673202908385573 8.79891203083103 10.477988851641584
Pb 7.66743002602854 5.55614957928951 11.672247831119916
Pb 3.6761459234895244 6.6901621312767 11.938871933428517
Pb 7.915235056331506 5.602786665326535 8.167001917844114
Pb 10.918600890580468 4.053388849348348 7.552255448373063
Pb 4.295911884307479 6.977529223182741 5.753570003936042
Pb 9.754011234502165 3.8138410420190896 4.443227209381319
Pb 6.66933325232091 4.896477349000171 4.464930688716552
Pb 2.720481909829574 6.237316544336011 8.670389269773166
Pb 8.7482357367543 2.8143843469750713 9.914375522429872
Pb 4.975738618024629 4.273215998210336 10.462122172549584
Pb 7.943245109852472 2.5288887975219767 6.7872184163966995
Pb 4.822427138504832 3.9878078009573623 7.081333783631536
Pb 5.852012720369222 1.6551241413773834 9.041513549804161
