45
Energy = -148.7273789 eV
Pb 3.6921062241489375 5.111401900660197 11.528315958741404
Pb 6.945762004352908 5.9036169872216675 12.370604762388542
Pb 2.4065226543063694 7.202058374438026 9.579153534388995
Pb 4.725155301374066 8.249452733292838 12.066113615832467
Pb 8.064000551765313 9.178816643968384 13.091613110619281
Pb 3.5035720674395963 4.255893119475339 8.3391753306349
Pb 5.952783149991136 11.404302108946224 12.314038090107454
Pb 3.7814565226995134 10.586876848918724 9.899487660704292
Pb 1.6451938479313242 9.187514220167902 7.25515842608865
Pb 9.656759853005598 4.279508626791395 10.74022293183028
Pb 6.227718675688669 3.513037177198128 10.014200174452379
Pb 1.951568875382355 6.18176873844782 6.345558832793634
Pb 5.842427107888225 6.62522385803572 9.294711244827168
Pb 9.500807338359476 7.63573769079756 9.930311518053093
Pb 5.328824431968336 12.206024240067267 7.529333050988477
Pb 7.121244358804713 10.060991505140713 9.629823106897652
Pb 9.00313591189773 12.136327173687121 11.466252546181472
Pb 6.318793134218854 2.9844909460308005 6.7535331387472235
Pb 8.260651624840563 13.056430929645074 8.351257031241731
Pb 4.774053966298356 8.888543424100261 7.136140366229796
Pb 10.18209667751315 6.7378063212344435 12.96512079690331
Pb 11.701198924005729 3.3406892331148477 8.147074906084315
Pb 11.221104044817467 9.64865827352376 11.933003363835308
Pb 9.405869973709416 2.1440286818840417 6.126725377198436
Pb 8.787754002504125 4.986826269724791 7.702612544690139
Pb 4.249233712908938 4.4283577091448025 4.69323496870789
Pb 10.738876522986402 11.061155822368894 8.80399729479991
Pb 6.753019670717198 6.630185757575134 5.454374911820209
Pb 10.276588511365201 12.540014792986147 5.787911855848692
Pb 10.348478790627151 7.928868909224832 6.606252567763407
Pb 3.8209518415279953 7.728215284034661 4.09901213749689
Pb 5.070836872911593 11.058946138800835 4.5345240308725305
Pb 12.437476882918288 5.74591495898141 10.311634268751401
Pb 7.851804914724219 10.237295581013369 6.271252164615339
Pb 7.71360619497273 3.7520405316923107 3.8079420411649068
Pb 12.813811652957439 8.64345083243018 9.009053826757723
Pb 11.066970445527055 4.69431653891154 5.052219668077994
Pb 7.96782568926226 12.088028116636112 3.540782292619777
Pb 9.169289604172514 6.637597838689397 3.0595078232500095
Pb 5.9109265111735745 5.890756084474279 2.2608855246736947
Pb 12.692783290083591 10.302056348521589 6.116550587958941
Pb 6.983442339833565 9.010998664383928 2.7763480066490627
Pb 13.267633440703923 6.020852616012695 7.072800504503052
Pb 12.44725234880225 7.538168344721456 4.1984861457237725
Pb 10.359679699405085 9.904433982100974 3.6158554163621943
