42
Energy = -138.69776971 eV
Pb 7.613835807032615 10.318824792544744 3.4513494847713475
Pb 8.921512080499738 7.559541867425599 2.42673002812384
Pb 11.033947918617184 10.153540995621952 3.902246232953934
Pb 2.3695370822847286 8.244706602987362 4.053417949495733
Pb 5.436646814541777 7.984911715428965 2.641453163640367
Pb 3.3959153425402677 5.462369212077635 2.4421283870605457
Pb 8.85271395891746 10.969462911290389 6.559180591785669
Pb 4.876158783609875 9.755872345886997 5.528606431430811
Pb 12.111889227952618 6.982537310940443 3.5618746108737955
Pb 12.238832576893943 11.28931046047665 6.778521925944572
Pb 9.564718786810687 5.182085178672626 4.629758274578647
Pb 14.251321652738724 7.673166897244224 5.89575286201124
Pb 13.841785930398196 9.007797965324109 5.253479985972835
Pb 7.634557745909776 7.859102702929491 5.511720957168786
Pb 1.0313012240676254 4.86450020125043 4.672256993582503
Pb 10.7988026521081 8.180618210894924 6.46887627755967
Pb 6.730945368962279 4.903144380829406 2.588601110931677
Pb 2.0249114589657182 9.487723029056333 7.5199017205184395
Pb 5.010742752797949 5.778050899615114 5.327010995136156
Pb 3.8047952419912954 2.7953211597723064 4.5304864989312055
Pb 12.97828927219589 5.8468677556268815 6.605426443664662
Pb 5.309176133947016 7.774306324239864 8.152398860126297
Pb 2.4145894829224255 6.177825512105238 7.36315995710909
Pb 13.284389414998234 8.65146003124776 8.53812731660612
Pb 7.556817479383079 5.309157168273767 7.749533526914806
Pb 10.4861215171861 3.935869771273807 7.703033170757875
Pb 7.179479262646828 2.9435693679341863 5.157187593560575
Pb 10.569253045349063 10.685129748895099 9.578123982557749
Pb 7.441596627277596 9.805772977535343 9.423724541983825
Pb 13.841785930398196 4.857512364398234 7.502202308520324
Pb 14.355892245195122 7.622516153921784 9.110431221446401
Pb 9.793482437719844 7.19969285121377 9.462702130325885
Pb 1.8404575003488188 2.884555168757186 7.327943426449935
Pb 5.1304426230969575 2.8997854173906874 7.502541295538554
Pb 12.098230306827404 5.154202620488408 10.407895935357422
Pb 2.800007312919167 7.755513065283205 10.225726103805796
Pb 12.085245540769296 8.25630424544976 11.616521192162214
Pb 1.2615154433499591 4.847982590443437 10.093210901169162
Pb 8.96240894098336 3.988145884267326 10.574330748930134
Pb 8.996566911232495 9.183135449780174 12.185590372029221
Pb 7.008885107946792 6.686393707684495 11.15734892687123
Pb 9.944571460114318 6.117208045078729 12.765809875330808
