47
Energy = -155.51059812 eV
Pb 12.607812474884303 8.52437464854088 8.10964521790914
Pb 7.505403474248789 6.3971076161140665 15.299045469500378
Pb 12.937516879265495 5.371299603552397 8.391714198116066
Pb 11.313156732902664 6.991130169168249 10.93283999380256
Pb 8.942418812235276 5.109389369424707 12.725468422607074
Pb 10.340027434853674 4.011348741967241 9.821694816818429
Pb 12.014198122878412 11.739440033889448 7.948217617307202
Pb 11.255693210102912 10.359409420717235 10.946873276390036
Pb 9.465531803010963 8.266775667274192 13.55362213707359
Pb 5.680473809883145 5.5966830836102535 12.906402640907231
Pb 12.456236519959187 6.587691882984813 5.3380726528748115
Pb 7.460111159445165 2.002534771544449 7.413729427032644
Pb 10.682838257345447 3.819518164858602 6.494109624499619
Pb 9.834723381103725 6.719320944165008 7.955529162424139
Pb 7.765153306300467 7.643112264667938 10.720211700114328
Pb 6.2236548159174125 8.887223516411074 13.539057056529098
Pb 5.377188258875269 2.577478773366773 4.797811968603946
Pb 9.00689890472137 10.156129871906861 8.348351978560904
Pb 12.254032499908208 9.898683704661336 4.870308222578585
Pb 7.0121122994275735 4.464470633371281 9.852393838390949
Pb 8.170488208224821 11.016104258803876 11.700492171718736
Pb 9.777909604183574 13.097341065559421 9.662963129992042
Pb 10.059749541577375 5.161682921072953 3.3935939086423015
Pb 4.423062927312312 3.1129489483412454 7.779359207952928
Pb 8.527193919281475 2.390770450902416 4.407703561944065
Pb 7.296380414507348 5.044459787008161 6.230207002790662
Pb 9.211833921023898 8.474183896740307 4.939015268202792
Pb 3.7889182560474675 4.467069211973113 10.678450055234665
Pb 5.623324613196896 9.676945187061365 8.768141966328585
Pb 11.525985292540124 7.90368504462187 2.378783118025779
Pb 3.989582654470917 7.913744881273214 11.252309002806966
Pb 4.894581525808937 6.406862026589258 8.339300163952078
Pb 4.832141806090905 11.282249292198028 11.51386305521944
Pb 6.685575556656395 4.929625341025175 2.9650858841630297
Pb 6.69508324784587 12.850003619942491 9.237967048995559
Pb 9.791255346249324 11.981709630572439 5.545766522956576
Pb 5.678726406907991 8.477965015060576 5.601152117034695
Pb 8.311229401542137 7.795774040322522 1.8030497809077086
Pb 4.017445136847702 5.654419634816021 5.0238001662601475
Pb 9.864020876839664 10.683234598959572 2.4985005126373117
Pb 6.6061387717058855 11.78484129316704 6.13606091517994
Pb 2.516957809203949 10.577246555355371 9.300964435152073
Pb 4.891568505145515 7.80622604422557 2.441636552281437
Pb 2.3612099944185028 8.128556845674312 7.264104722243175
Pb 6.708812823753841 10.450607584779878 3.0929532538863627
Pb 3.474301271326062 11.195299932810338 6.3682628490753475
Pb 2.660908303271412 9.132888302196537 4.230982497624644
