49
Energy = -161.58720714 eV
Pb 12.8389839427487 11.676885108269815 5.5621801581996575
Pb 13.865664628572063 8.753801692095967 6.968109915180558
Pb 12.625979656485868 11.373402536481782 8.655047479973113
Pb 12.777912749266939 8.526667256176792 10.064620615744778
Pb 10.502898703362488 11.149928418013134 11.082231236190426
Pb 11.082986818985129 8.726637858468637 13.314124775040938
Pb 8.022523790464067 10.269965316377718 12.992667153370531
Pb 8.395219638979473 9.850796463753666 6.062726103517439
Pb 8.735622600865275 8.838384240765198 15.639855031283172
Pb 13.129867539628753 5.666011453929929 8.380066578985952
Pb 12.877117343948225 6.035637995725943 5.193871171788618
Pb 11.555083112459966 8.958486033092345 4.3542614503088295
Pb 7.793841544939312 10.853806501034514 9.256822199526752
Pb 10.68047739321315 7.559213246287438 7.382971567345805
Pb 11.304727511271368 5.798029253817504 11.324827201161746
Pb 6.615675364368493 12.688156614124884 6.749495855947655
Pb 5.245643951603546 9.43801405424817 11.18076583116231
Pb 9.146155350995308 8.042521328687757 10.61782654031624
Pb 8.887136282560778 6.316589775470035 13.75275384436436
Pb 4.8049707370533685 12.203380586365306 9.404222670150336
Pb 10.127907278581553 6.301386696728663 3.2006651820168304
Pb 9.979091457327621 11.89466660702842 4.008597679433247
Pb 9.985302440738767 12.60135034459063 7.120164000375065
Pb 6.069508812604644 7.833996714921423 14.063308001102724
Pb 8.535956793761217 9.138764629763227 2.687197231292288
Pb 11.295220143856104 3.0203227252154377 9.359438112907647
Pb 8.65955993195544 3.4779303569994493 11.656654594512803
Pb 6.455153485866627 11.596501284361226 3.720059547895332
Pb 6.423187490245802 5.932513235266994 11.357184498835577
Pb 10.48021590493901 4.1614551142720835 6.238515739623667
Pb 8.474041970513145 5.08977500157106 8.751485771807923
Pb 3.4906975212877644 7.023911548179867 10.005638435479876
Pb 6.42092570944443 7.854164532263145 8.562114788490735
Pb 7.716498243117458 6.487278998353508 5.584247032545452
Pb 2.392700908676721 9.941888612604384 8.860268584983814
Pb 4.703335246025405 9.470743873841421 5.925594176159784
Pb 6.990715348237275 6.151202682068094 2.446258990352373
Pb 3.239983705401304 12.435411199690972 6.646340391284623
Pb 5.147734803103228 8.791770577699156 2.3762713183134596
Pb 9.346649822146093 0.7038840714296751 10.33113267783958
Pb 3.1910521893094477 11.174344926678708 3.513993358492091
Pb 9.391150851629186 1.246798458685982 7.230954165195915
Pb 6.795609916062853 2.2589903551358774 9.042366625446888
Pb 5.020616629369419 5.022311287795432 7.616047759867048
Pb 7.192831742712574 3.194959871203249 5.946396298012334
Pb 2.3526206399317573 7.110856545566918 6.931400407375591
Pb 1.1485105419555426 10.058677100825218 5.911829621693873
Pb 4.519920617541365 5.8732226583785 4.448649153072241
Pb 2.2438105666279737 8.019903533254112 3.6910078790677168
