45
Energy = -148.67751951 eV
Pb 4.7775266194596115 14.157699380359926 9.979004591118334
Pb 10.984449594356528 8.775504223274666 10.181656212964205
Pb 7.35853976706669 14.011593886613113 11.762782076383102
Pb 11.869752594020762 5.357803237110022 4.065451460751328
Pb 5.649025746497942 11.230695000135691 11.188769036513248
Pb 6.9278557445315805 11.812481573141433 8.214764341967111
Pb 10.474231651051738 14.546375920108845 7.216176727516181
Pb 4.295271163261477 8.091242537991656 10.109935556901862
Pb 10.778372569012554 3.4656272919886475 12.225322795849937
Pb 6.111413846257028 6.325495418289817 8.124913603488851
Pb 10.904135364553781 11.890329236560403 5.476238065088289
Pb 9.357561357420128 5.2449715339540885 9.495119369104557
Pb 11.17302337665802 2.7303211434460857 5.848990828380162
Pb 5.336843145093088 11.209232598000114 5.491922470450638
Pb 6.657792241918889 7.422356469677345 5.056552506605012
Pb 8.968861534944482 5.12128626669471 5.844184092011444
Pb 11.748406459623475 6.570662682643781 7.3794384657810115
Pb 9.422044999446076 11.506227737452043 11.774156261205457
Pb 8.250456081622755 10.282182518930513 4.393779113088914
Pb 7.770059142638126 13.640289119166082 5.506834436908103
Pb 9.039415911965028 8.51539736997231 7.272329272410935
Pb 7.547058957724783 3.773310187498595 12.057034030518226
Pb 12.434358112091543 5.873923411579502 10.821299599216776
Pb 12.524453334233106 9.716717287393715 7.413244697305532
Pb 4.493717253440865 4.7316835002064455 10.633321429128893
Pb 8.049592031722392 1.9629273411285961 5.43894567303896
Pb 3.6922985175650656 11.619016695451888 8.316622462663267
Pb 11.089431891604006 8.670851432489975 4.626616925588012
Pb 6.6497483661127985 4.244234963716925 3.6111315578981333
Pb 7.5076624352467904 15.323179906936899 8.519658066698867
Pb 6.7766875192091 3.1596230472213502 8.199863936549297
Pb 4.802340634642703 14.265369034400484 6.770908377824066
Pb 9.156580481590108 1.886029724448684 9.921343084933303
Pb 10.237820886771326 11.70172104087866 8.65790499816377
Pb 3.692336435822686 3.1324925404646566 7.971072305972106
Pb 3.927405768589898 5.383818549661687 5.631847479584627
Pb 9.048715167026613 6.401856858716324 2.786143556364257
Pb 9.599681053621309 6.4877658113838415 12.521086020601206
Pb 6.255652378067813 6.771988979407731 12.437456459514152
Pb 3.911762569183657 8.38448769716622 6.869032561039912
Pb 7.766383689534437 8.931204759221433 10.403464870842617
Pb 11.926356697242484 3.202707209658218 9.119926578750324
Pb 2.329308484992774 6.035766143401304 8.42935266203943
Pb 10.232509745468628 14.399275758801117 10.473677397288316
Pb 9.684834551025117 3.2240088471834585 2.952459857916691
