43
Energy = -142.40701617 eV
Pb 2.9322347339759 8.03425222080871 5.205629613558316
Pb 4.5584403112781935 11.715474282303143 7.417214039227705
Pb 4.2692091245080075 10.828921027782402 4.216892030731764
Pb 3.8152591335668418 7.710926752197009 11.277737420209787
Pb 7.122466561974147 13.163268234112913 8.524474243573415
Pb 4.054915316344897 8.370007814403081 2.0974361931364434
Pb 4.600527854439849 7.572696670806778 8.139655825917119
Pb 5.702603710703313 10.455706149950618 10.15943416463793
Pb 2.131756709206707 5.689408103265251 9.292456263756566
Pb 4.242557254581884 5.511746457773207 3.7100817454760557
Pb 2.7283919406855013 4.8920122331567075 12.4882565492581
Pb 7.274910166120552 9.860015029617603 7.427660532443695
Pb 5.653904872956849 6.068437746857655 13.369209778825752
Pb 7.115541935544328 12.280400817853925 5.25235930315055
Pb 6.125711765065431 7.973267448984011 4.814745846393233
Pb 8.91230539552634 10.951636662104972 10.243009944069431
Pb 2.697305589877819 2.6554597317388082 10.2737726514956
Pb 6.943089693590732 10.066797739958167 2.272322460171425
Pb 7.469001626215886 7.244539026082697 10.682590384672984
Pb 6.968470075431151 6.778684754002355 1.8120422434121661
Pb 9.846822022524536 12.029296374877228 7.118218330682569
Pb 4.431177788615614 4.300665440968071 6.967258686217127
Pb 7.386424268176456 6.060598852497153 7.42952087042359
Pb 10.16026596754554 8.264187210054397 7.845012514606561
Pb 5.421389045624982 4.640521306024601 10.165162233025713
Pb 10.097669540020767 11.052975311430837 3.5781508157450954
Pb 9.761569428344837 8.555198547357438 1.3053623192123653
Pb 12.063355294966469 10.918714445763035 9.418482045642536
Pb 5.023268777514777 1.4085779368737 8.488112521562085
Pb 9.457272521340915 8.117989606112152 4.6214387392631195
Pb 7.2762689738339725 4.576953254132772 4.389420006605457
Pb 10.811090263845351 8.236530528202485 10.936539683129537
Pb 7.6006214818054305 2.7528469982995603 7.341797493619159
Pb 5.164895360771952 2.643947302975139 12.705704019716276
Pb 9.40799241106741 4.506405041511786 9.512464908030955
Pb 8.117701029171348 4.224337378052667 12.460480561551758
Pb 12.395428537004824 10.078471666330076 6.086521654938019
Pb 12.469257645091272 8.767566007471823 3.0823999970611933
Pb 7.623782906395426 1.7837028074654964 10.47552083619076
Pb 13.225551407504788 8.057357923190153 8.901229165070248
Pb 10.087714978437191 4.921862930415861 5.990775463844479
Pb 10.833803857762591 5.8503506222619 2.890482126966877
Pb 12.712400218028568 6.813893108278472 5.678834456834712
