43
Energy = -142.2445953 eV
Pb 4.729535149040907 3.853318672352729 11.148502298921825
Pb 5.30926243366919 6.440180610057785 12.87020831081858
Pb 2.104776305801395 2.978384270323701 9.612486303006575
Pb 2.1008142522616153 5.9789597150342475 11.102490288643752
Pb 10.549231019136558 2.8601728152006567 9.53695122836684
Pb 0.08945287123223994 5.218967703314682 8.425866085070991
Pb 8.880925464983711 5.452939350553868 11.448710434890984
Pb 4.240890825819035 8.66274271664705 10.854784500576345
Pb 7.249105565124685 3.2117309173846857 9.366515448809063
Pb 1.7003699326588049 3.305846396789213 6.3740970256396015
Pb 6.272325616599609 3.3813184666880587 6.2927996211780615
Pb 6.439206301144768 6.4524935615497405 9.523377308004548
Pb 7.539240782005963 8.487847751671783 11.943285622359934
Pb 11.93723530269408 5.663576743024156 10.235914904446803
Pb 1.532567099215981 8.12699457693134 8.70618698660867
Pb 3.614855726909431 5.413697292884971 8.015448594894874
Pb 12.489784364408187 3.9636077731859753 7.19033039606464
Pb 9.49095876203978 2.5454874935055876 6.394370035985471
Pb 9.430302531092034 5.580427026786005 7.969460244293981
Pb 1.439010326210221 6.522432705576091 5.75294709290266
Pb 4.83195117274937 12.170124592207156 7.496402835112873
Pb 11.489560703972904 3.3326111988626863 3.995039536280749
Pb 6.933795985613153 9.712518034455998 8.752209741266187
Pb 10.068267484827219 8.311126316882167 9.822245599583285
Pb 6.370274711290272 6.620411930598662 5.936681015646288
Pb 4.2118290771476365 8.948723706690718 7.0774831697264835
Pb 8.303216879853371 4.381945986427851 3.7536228409055754
Pb 3.932500477566618 4.701245711124258 4.454406358459887
Pb 9.530699411269701 7.276869221949414 5.249151579803552
Pb 12.534716853499349 7.277530327887982 7.453383327499252
Pb 8.022939183974215 12.761133030382268 7.396017810212106
Pb 13.615966032550793 5.594296985209831 4.685180171724181
Pb 6.991885500059424 10.150235756187257 5.404136168325425
Pb 3.8916856047912765 11.206656284614173 4.495496658760979
Pb 10.070022690022721 10.220318879554492 6.583451732355446
Pb 6.118649085589559 13.572334003289768 4.85333672992642
Pb 4.086960895382459 7.923164673778968 3.923118062286007
Pb 11.047718975018444 6.229960218841218 2.6634164137289194
Pb 7.187876455939437 7.497408747910701 2.7367050372133335
Pb 12.45034110264108 8.593198906372471 4.425221097763509
Pb 9.512043924025068 9.682908749588256 2.9778444568839344
Pb 9.127346959870444 12.620978389953041 4.267813427638873
Pb 6.591049818675918 11.320707117746757 2.443402376184744
