43
Energy = -141.14884998 eV
Pb 9.896991631487008 8.792548556446482 2.883164872846519
Pb 12.101309148066637 8.091026362238788 5.157470584339129
Pb 13.610238883318829 6.652326323354333 8.131369027537623
Pb 10.76529381258446 11.145399583595461 4.999981152992187
Pb 12.572519589035675 4.943337069713188 5.3864434656621185
Pb 7.929189880208279 11.457304036343375 3.041060047502232
Pb 12.407451732825308 3.6845494257728704 8.20843802975497
Pb 6.846098120053647 8.130639387400029 2.6114827736520967
Pb 11.71191950800692 9.63427300584138 7.946386184603828
Pb 9.659251972904618 5.794186279099567 4.22072482112096
Pb 10.21913990077787 12.520776711798643 7.951791844360449
Pb 9.955609834744351 4.318184675680756 10.207575807706887
Pb 6.1041724031419475 9.59947783752927 5.458164247037788
Pb 8.657065049287352 13.607323441671209 5.383826990794027
Pb 10.292912738523007 6.514147229208199 7.5437324882790255
Pb 8.198254143697977 9.535570235202279 8.330831404424947
Pb 5.392913899660531 12.796383469683054 5.014591798724481
Pb 8.435318445873646 3.7979213154448943 6.608795473059833
Pb 11.38915955866899 7.6174899961061 10.667765957613344
Pb 13.163687328005492 4.9368681916766635 11.051707214579034
Pb 9.826839552842818 10.698681967142075 10.806832579744693
Pb 7.102148878065096 12.778876943936684 8.182392105905269
Pb 4.790001487616393 10.823886271503872 2.4053432046279353
Pb 6.576855799232887 4.02675558891727 9.314336989847193
Pb 6.33899667043124 5.05538230180707 4.15955056460181
Pb 2.8137665645479246 10.753970383635908 4.9243448475008895
Pb 8.212589822747681 11.477397965715753 13.465329629395118
Pb 6.417619605590029 11.035084253590792 10.821576553432944
Pb 4.314557780658236 11.21225598523617 7.773759759124578
Pb 6.277161283806316 6.427964042590257 7.0883588279133765
Pb 8.187526958341925 7.143689513588989 11.155602253122726
Pb 9.843776802558942 8.641507546132313 13.721922164863546
Pb 10.697230575112592 5.477391239020336 13.261151262760432
Pb 3.7509612020557257 7.953216773990895 3.5456489747833655
Pb 5.230007734962772 3.116752364901859 6.470368873305878
Pb 3.144707364567612 8.222404118576568 7.05317560453724
Pb 7.805062032912302 3.9499464798781414 12.523353684558383
Pb 5.276596642711532 8.083704287771102 9.912824868234777
Pb 3.2338456926916317 5.345194717173139 5.439164341128229
Pb 6.438508129496793 8.906982556189307 13.454113158177254
Pb 7.7103511142860475 6.279437617731359 14.74582441135977
Pb 3.6437208083906065 5.18300046806696 8.660089821399524
Pb 5.270907221022947 6.049020784618246 12.521868638606039
