44
Energy = -145.12375394 eV
Pb 14.414494638196668 6.163216911663137 9.956959112568047
Pb 14.180574480731355 9.444626773893983 9.625125344640905
Pb 14.668240355677943 7.549159481153056 7.0820164155016485
Pb 12.133176165969882 7.833722209211759 11.676985629645397
Pb 12.324897191338154 4.619695566569308 6.801415041218541
Pb 12.709191435130126 10.180938487796837 6.718372944603825
Pb 11.69825044516404 4.522824010164611 10.259524128223072
Pb 11.229962739855685 10.778315118841356 9.640194166198528
Pb 11.528953827502999 7.5104817878365795 8.446058935426548
Pb 12.11303894021782 7.400574470468517 4.98596110568818
Pb 9.303647930390818 6.332493153098948 12.214203640761207
Pb 9.773012239799492 2.7061656275655297 7.924188929808567
Pb 10.083458928829032 3.193160990944956 4.677754443435102
Pb 9.54062331608599 12.497266448219188 7.096755991431381
Pb 8.53429225687003 9.292454209077155 10.828848916816797
Pb 8.87889391521477 3.294194735190893 11.115886055620402
Pb 9.942434915325457 10.605371329816123 4.524672875887101
Pb 9.264304700316686 5.877810317868669 6.230913068266798
Pb 7.895039394442792 5.89531563992603 9.327957794832342
Pb 5.929534975330754 7.561586168112277 11.92308277777195
Pb 8.967338950182162 9.32328709608805 7.503856911261253
Pb 9.338511066013792 7.513334974518436 3.198992050971032
Pb 5.896733457655933 8.48179993232184 8.765451040235474
Pb 6.706707567965957 8.159385883558675 5.314327773152023
Pb 6.57072459085788 2.77404690354161 8.969772429020304
Pb 7.088903508886666 11.725268452794067 9.018474602598165
Pb 6.870030690730607 11.959858208783364 5.343499134250661
Pb 7.308051304383929 10.045827388928487 2.7772972013021473
Pb 4.7839599540861135 5.02811442000747 10.36673297266205
Pb 5.397397273814839 5.2643101341958145 6.726143425633018
Pb 7.493150921829249 4.928643399345556 3.6692368668460946
Pb 4.427495428494695 10.40229538275768 10.813813166540681
Pb 7.097827416071463 2.5262773335186446 5.806075052221902
Pb 4.1859827245337655 11.566686153726307 7.393750617737623
Pb 4.073393388310561 10.115936928858984 4.0009545544585405
Pb 4.2986451327056 6.7722302698499375 3.482086663682602
Pb 3.4544080642807193 8.041719210516652 6.6546611891706595
Pb 2.288352612510682 4.893644713270496 8.459173074641516
Pb 2.506948471782836 7.507755639188562 10.38361349429838
Pb 2.177796969206644 5.134718262518794 5.298107607521076
Pb 1.6675586958605937 10.34905562354831 9.135576317877375
Pb 1.3428889315575496 10.576735658587474 5.977097361062631
Pb 1.3144003147255225 8.013311567293487 4.1028633413461355
Pb 0.40320447057494285 7.480631983677169 7.4318753666905755
