41
Energy = -135.29960249 eV
Pb 3.241833693060505 2.3239504058894123 8.301386333559927
Pb 1.580300744606339 4.794944000695166 6.953969007102316
Pb 3.1560367550103057 5.288553406142172 9.973060052855573
Pb 3.2417795257994833 2.824527061060602 5.0595328068601315
Pb 5.8887625703127116 3.2668810248779216 10.06727455099054
Pb 6.194170955220773 1.9558001397721356 6.77028928384299
Pb 6.016529013861336 6.261634444599223 11.681538869763877
Pb 2.866763336335716 7.6538200013016695 7.609959170753971
Pb 5.019884595819051 5.059968010840119 7.199061492715543
Pb 4.071111367922738 8.691172679653159 10.687142703725593
Pb 3.5615418916223436 6.056013723828781 4.502382074738219
Pb 8.800189176536799 2.643667907167096 8.77369086508135
Pb 9.00891988866687 4.861723503167383 11.567461153654735
Pb 6.153867795399232 3.953939951038761 4.215960421642639
Pb 6.257128651653224 9.326592699884255 7.3230297087283
Pb 8.617164762729548 7.593259210463451 13.385359070548603
Pb 7.767143263817027 5.886518895761605 8.711510685397176
Pb 6.505217457683055 9.920825200971814 12.751920256636053
Pb 3.532426919032764 10.709299778750003 8.1834141017808
Pb 9.14543407489591 4.281116610990651 6.029386595991141
Pb 5.71806488221488 9.545007547783076 3.8218979812234246
Pb 9.794062860714549 10.479560699161484 12.404635323115938
Pb 7.336246567774029 6.935315007811382 5.090023763598342
Pb 12.403835053118275 5.649442579709677 6.1805306382284755
Pb 10.134153995189681 7.784384240493304 7.294020975635609
Pb 5.9693768696262195 11.464616029218048 10.041387100408514
Pb 8.161820015277069 8.829009918151131 10.141774140237962
Pb 10.519795864708131 6.858339214053012 3.8131529592865605
Pb 11.2797698212224 7.46141022622361 11.5585716182976
Pb 11.153137145970573 4.968216739503852 9.14280292231961
Pb 8.418659853687686 8.72414443461791 2.145067908580279
Pb 8.828142873627005 10.018651576565423 5.224119879694407
Pb 13.056412950117705 7.689520136718747 8.759833099923716
Pb 7.71409453082263 11.891166805665529 2.5776172167636564
Pb 11.202693695937382 10.299248642132385 9.496000340167715
Pb 6.256749833146394 12.24016860980529 5.601514326545421
Pb 12.6754437914542 8.79006010739193 5.29578648881037
Pb 10.928228331985268 10.780393772658057 2.9372641212484223
Pb 8.570788975958424 11.96323912468498 8.036877947445971
Pb 11.575708363612017 11.571982062778902 6.38343117121081
Pb 9.379041687122005 13.307980700159106 4.881377515085721
