45
Energy = -147.78801279 eV
Pb 7.661314355901042 3.479277238794876 9.4757112485496
Pb 11.587167787757727 5.092368310855462 5.318598426003186
Pb 8.421062157408743 4.691648007554357 6.0895080972655204
Pb 10.625058724381638 4.044478367224591 8.322855799797717
Pb 4.705723069299746 2.960654243438447 10.345042380556373
Pb 12.817434385759341 7.595508417651592 3.71390461684893
Pb 5.132924571784009 4.70618386537607 7.607651410885414
Pb 9.55693654918756 7.260475821065856 3.9322400448564494
Pb 9.741519205507894 5.956876701216749 10.87095542367745
Pb 6.844607663645184 7.513743700715912 5.899167109156601
Pb 13.47272703906634 7.225084022167188 6.884003059462109
Pb 10.10771056713729 7.235733880465223 7.590692420043254
Pb 3.88856772943635 5.954819435642977 10.647905287758777
Pb 12.756977508803379 7.443932923619225 10.347779393611832
Pb 6.51559322201836 5.025162209268814 12.230089260970114
Pb 11.174187667750049 10.409115222197139 3.7655452159561578
Pb 3.9680022720362302 7.939628707336167 7.871247235415698
Pb 14.337237991660407 10.071578891256348 5.263092943818274
Pb 7.953819699910258 10.15422459120929 4.297716488552181
Pb 6.989235215843503 6.675099692053688 9.332967478338213
Pb 5.339258707227073 10.605043559762946 6.354290523468157
Pb 11.775168620538773 10.547944137523288 7.3991151479169694
Pb 14.758125160001507 9.669426931937114 8.733914897371374
Pb 14.007328801363586 9.749216294434733 12.176254443212434
Pb 11.714177797582474 7.822851731821561 13.466319610983415
Pb 4.854380940076491 9.557624179353484 13.226565504640545
Pb 2.69299231406676 8.959796029754298 10.891316296185058
Pb 14.750868664809095 12.706551424832591 7.375036671842678
Pb 7.767608533665629 8.082013781714712 12.675750043933057
Pb 9.386484432029382 12.62632425686814 5.861704770426107
Pb 12.639657669418353 12.960849251032668 4.975654404082798
Pb 3.0494819628030636 11.232547614367975 8.598045793373629
Pb 5.908206683493274 9.668977291381172 10.013146825134932
Pb 10.233399441244257 9.517406738600167 10.951283265648978
Pb 13.11499822234146 12.258123588090022 10.149507162533823
Pb 8.353884816228813 10.151497888643542 7.703967238918864
Pb 12.645380066730514 10.5886587696057 14.90661025904276
Pb 11.876998506596914 14.132393845036868 7.87880781613795
Pb 4.157259049956345 12.343194904055915 11.2902389418598
Pb 9.55445122678382 10.07961078358723 14.458752056301584
Pb 7.536743077998617 11.613053552743562 12.201253647079495
Pb 6.1618227174691205 12.726979486459042 8.769754016935389
Pb 11.107200711668403 12.39007765618513 12.801368101741051
Pb 9.700587261846657 12.55535277609115 9.68248424943376
Pb 5.1516951020507005 12.514857149291823 14.148152842556375
