47
Energy = -155.42579587 eV
Pb 12.785000266324978 5.226871380321025 4.662215334325742
Pb 12.924067801661252 3.3556596651390938 7.4962306261781
Pb 11.041366078571935 8.145918927572923 3.045040550127965
Pb 14.159994967661012 6.282119479033006 7.503577852015517
Pb 10.423447147206735 3.0878865374294038 5.544665120523956
Pb 12.899680376070114 8.727448907230231 5.596778310124818
Pb 9.166694124326103 5.540802549724784 3.847791915862993
Pb 9.44724654908086 10.897624161537193 2.8403189276327323
Pb 12.111683556772224 5.368854975328509 10.004609009125398
Pb 9.860073906724718 3.2710963301109173 8.753774281738359
Pb 7.610843435410828 8.269337848548398 2.6180537734633855
Pb 9.379407336423752 9.214735248025606 5.65113030255598
Pb 10.809508042120903 6.1928555566899375 7.055864484394123
Pb 12.476091887194016 8.79303441238391 8.934432073446212
Pb 5.626682391822527 2.611276137635046 6.246354628335687
Pb 3.9682109880452128 8.151325552010952 3.38743059422525
Pb 5.637135952345959 5.129908803636533 3.6160514096065985
Pb 11.568727695270598 11.551446691581075 6.947963553474799
Pb 7.648444307988672 5.104592296231608 6.685979788857487
Pb 2.3602125217466754 5.4508086222184495 2.867907862850093
Pb 6.318004729542776 10.85549041097597 4.176856771302375
Pb 6.302372509481854 7.8853546536735575 5.6892406468626975
Pb 3.300975295030159 2.6622842412992047 4.1469911904639725
Pb 8.77825059551416 12.52077799524678 5.587424515030826
Pb 11.754368619521117 11.790044193902393 10.048941043259454
Pb 2.5860093170398546 2.695400522555453 7.573562828453409
Pb 5.848468241172964 3.9862901751108 9.215762342306075
Pb 8.65431044888149 6.216619232425862 9.852587247086152
Pb 9.167316723604475 9.60531948601556 9.0840686356015
Pb 0.5286525400650242 3.97793663105402 5.0383553617220285
Pb 3.543071598651209 5.554760313881088 6.343844669119128
Pb 10.74683445107882 8.139717042583188 11.781046915933723
Pb 8.855008288006479 5.861775534949765 13.038249695701703
Pb 5.360939121164919 7.54824137478252 8.853629074173181
Pb 6.121067797049539 11.633755964757976 7.383754427934646
Pb 8.879284170162776 12.879284835147422 9.08851401771988
Pb 3.5657834234526034 9.727449997265564 6.15756352069093
Pb 3.089552822743439 5.338443628417831 10.059169143596097
Pb 0.9530382700521558 7.335497142442642 5.265199931203947
Pb 9.438659754617714 11.251679599141246 12.093822102538654
Pb 0.4780455328692076 5.190953188382825 7.937676377245507
Pb 5.883996347181953 5.829429036841573 12.102615049954249
Pb 7.470248922669851 8.745882860381279 12.884182854571153
Pb 6.48176534654457 11.200283933462488 10.724999600287736
Pb 1.9291174718572344 7.995711478161808 8.633742500587571
Pb 3.619171315503828 10.606764140884353 9.372703968975307
Pb 4.3356196494869605 8.604163814945863 11.7519014336696
