40
Energy = -132.05522016 eV
Pb 13.457500399847946 7.371819874311254 8.82627469141761
Pb 12.515571968256706 4.357127729375761 9.24697603940937
Pb 11.395300021994649 6.404641153237555 11.504743325655681
Pb 11.762979548694014 9.210313952689125 6.452313950187211
Pb 11.4396988929861 9.585766637896098 10.101287445940033
Pb 12.376304247825907 5.707466174174826 6.145211816005381
Pb 9.377525055878777 4.084220906753309 10.329252668885825
Pb 11.892668301678965 7.645651764431347 3.4829568720721586
Pb 9.753212222305102 11.689503493584668 8.303332053006711
Pb 10.084826158811353 6.686812237231329 8.402124747056677
Pb 10.053580966564462 10.245501238501118 3.7951156685279526
Pb 9.907778011115225 8.985203623986905 12.896004289559917
Pb 10.205758734470301 3.3377634985796214 7.138751449726816
Pb 7.906445419185895 6.474899868593368 12.278556690621672
Pb 7.844548223748799 12.195530417680745 10.790908186234637
Pb 7.8027086758818545 10.611028207726463 6.166298579210091
Pb 10.071826802556123 4.856006541738048 3.6947657535148135
Pb 9.00521629905462 7.561195545115592 5.270237098365637
Pb 8.218948243687157 9.040672150146307 10.030824447747495
Pb 8.998187201155183 7.6427832119245345 1.9996304088991494
Pb 6.095577414470687 13.460771731071498 8.19912491474973
Pb 5.50349125804448 8.09877860520363 6.292079983998021
Pb 6.047231882690355 7.383234483873394 3.186224719899975
Pb 6.6966714207508895 6.220912110867949 9.054022293669806
Pb 7.065973759088715 4.963900273566987 5.804934279826966
Pb 7.018652027114347 2.2708081970993845 7.645785757421854
Pb 8.280554448573724 2.1413953305921525 4.558916728391155
Pb 5.409560699217386 10.289886360478866 8.825691885521456
Pb 4.759336498741989 11.609876711682576 5.745461536016248
Pb 4.311790499923373 3.983389179646578 7.505609935557989
Pb 4.533227910177845 12.53642544121501 11.022811452718019
Pb 6.89408870790469 10.025056008023858 12.909224129178108
Pb 6.58844066500903 4.152751947600793 2.5934786966697563
Pb 4.9559059773425975 7.826758141448047 11.57340976258292
Pb 4.00420484381343 5.192896151073264 4.445470783332538
Pb 2.871696936303863 12.648809795514506 8.244235363951
Pb 3.500217286311101 7.0528485918181945 8.791468208195509
Pb 5.104496044942897 2.1935305257605937 4.925786270380386
Pb 2.510377177945682 9.67119606067598 6.970557407838352
Pb 2.558865057362288 10.041105152237868 10.274975771473335
