42
Energy = -138.42408649 eV
Pb 12.4860607866497 5.959604675246983 4.610081204775852
Pb 12.408533486905906 4.584913412306772 7.9235248837969205
Pb 12.910299326788483 9.094082174778126 4.281636588937829
Pb 13.328121580778657 7.729178377976873 7.588042931299334
Pb 11.418175633477171 2.9812427721176626 5.137478897212461
Pb 12.186492302054134 10.398044722340439 9.72077319298059
Pb 10.513401480247465 1.8227279775390124 7.911753724881558
Pb 9.601450154667205 4.849530837689675 3.289311142330882
Pb 13.056031314776366 11.099676351507046 6.63404672674981
Pb 9.487593953725938 5.4168518900995 6.760469016826436
Pb 10.097054014337932 4.014391278680504 10.358987369409208
Pb 9.957580444588297 9.569047194812194 12.124060616606519
Pb 10.037867994445952 8.15196614473312 3.3309511255671063
Pb 10.71301106015374 7.320044908496857 9.672455594941436
Pb 10.617330579107485 12.777864464853131 11.329215678220443
Pb 8.18836930454206 2.59525141920036 5.630982776514569
Pb 10.934405490606025 13.16249034452752 8.116374134268112
Pb 10.444044778288259 11.388392125356138 4.797928138545751
Pb 7.507332890638525 2.5752940469187586 8.834946284000013
Pb 10.405137615375784 8.806429152683165 6.68798888423626
Pb 9.150323565656501 6.287928020880437 12.51048363395766
Pb 7.198697587026783 6.861075138459397 4.255858785612297
Pb 7.3333479577818235 6.538432539047659 9.722581012544298
Pb 8.425168233990329 14.411792998748775 9.705344689947955
Pb 6.748051968741969 8.450086500074125 12.538768817353969
Pb 7.853392553938606 13.030406604946059 6.755266976575571
Pb 8.755197670023973 10.81773926305708 9.110829127669167
Pb 7.494413481828752 11.674427829272958 12.044841358908435
Pb 7.504846040987514 10.040761720735464 4.940236024971056
Pb 7.100824684792118 3.9606811488931446 11.741436553753028
Pb 4.705246540571171 4.353915136312389 9.519369828028118
Pb 6.084516814553741 4.866263076841235 6.678303318848497
Pb 5.1292905410105725 9.353515725241817 9.013158634173333
Pb 5.667081509339396 12.987881106779637 9.5271516990584
Pb 4.085803753733791 7.01279514224758 11.346497826287857
Pb 4.236601479998616 10.593259635329417 11.886090797982506
Pb 4.802866128513785 11.628952748841177 6.459339823092254
Pb 4.825233270418084 8.313702044443648 5.878262015867763
Pb 3.0007207839931267 6.766784583710863 8.180645250629865
Pb 2.692434726326509 11.962713610948457 9.214205626135065
Pb 1.7974813355983055 9.04966181301988 10.208785743518307
Pb 2.104131602581757 9.734165763865983 7.015499966545032
