49
Energy = -161.95626079 eV
Pb 14.051206427970168 7.854514201849317 9.454662110003948
Pb 13.50343615093458 6.761537821700584 6.46946026887962
Pb 12.947165599437044 10.076198200141214 7.2476301500788205
Pb 12.80705218945008 4.850840537042668 9.213905681708095
Pb 10.779426042825703 9.694730711591198 4.627904508949151
Pb 12.453042310880182 3.7072854686823753 6.151444448332429
Pb 11.19100495261152 12.749914147715357 5.645409910988203
Pb 11.817722729442227 10.157872383236555 10.311496714448763
Pb 11.682857799361159 6.9157890153491515 11.500164333040686
Pb 10.298425139575215 2.298022364799685 8.02026101456359
Pb 10.804888569629822 7.471048297885638 8.20892748174883
Pb 10.720256280869501 6.231640647699836 4.6915939178119075
Pb 9.846402575975466 13.832902514960328 8.257620883283836
Pb 9.641553853335143 4.213486301655859 10.727326519954625
Pb 9.643124771320135 10.611959590570184 7.775478486055476
Pb 9.640203442233183 2.968542352834922 4.719654218544209
Pb 9.310731220110886 12.20860015645231 3.0992483049910824
Pb 7.840149457219427 0.7633342714521288 6.578887627152695
Pb 8.898574730179565 12.25532489602653 10.947588896146017
Pb 9.238522741949962 9.207595576186156 12.431286828738765
Pb 8.945708794196618 6.057646850136964 13.28074292683275
Pb 6.7097336606091815 10.092626154105595 9.861954847394184
Pb 7.842949762469707 6.920190235141801 10.0679447169007
Pb 7.855066962188107 13.898231498490281 5.605781780390231
Pb 6.451034390176678 4.416093191257789 11.865564956342489
Pb 6.394843622351087 10.976530014452887 6.641714833866979
Pb 8.227991503742464 8.033257836020752 5.964778192367911
Pb 7.491013753324037 4.267424713449764 7.05247485187349
Pb 7.197767258682499 1.9674606533369339 9.563169358377213
Pb 5.934262116937629 12.016862050441027 3.5166166284684035
Pb 7.603874100100672 5.538316927632658 3.7924168736718946
Pb 6.2197587205430525 7.883151433334684 12.924813793062494
Pb 8.07222355337236 9.315020458729263 2.807783258467474
Pb 6.478852440093477 2.522812410564941 4.24010339591241
Pb 6.539468230669042 13.76083528559402 8.725917919701601
Pb 3.9975322792751733 9.84420692099713 11.576307746643307
Pb 5.338933416655758 7.155716652615729 7.561901830396745
Pb 4.830643572703352 2.088203962076722 7.040247613521582
Pb 6.6545610641242465 11.209292218502961 12.911243412923923
Pb 5.342917569080696 8.61213444756476 4.2543678625639085
Pb 4.135588447724834 6.358385840785181 10.660471141421262
Pb 4.645502745021274 13.863665572936593 5.98269442703638
Pb 4.182583905043387 3.053164479743362 10.01142161843998
Pb 2.7586003914616346 8.659643979000318 8.733615361651596
Pb 3.2700919240017203 10.984693422108645 5.594754068904711
Pb 3.9185522847313212 11.889928408167469 8.676384553298613
Pb 4.518748220048915 4.967654923411954 5.243884832196002
Pb 2.6716898768654556 5.094310529412065 7.9887332655454255
Pb 2.622766795427551 7.69040781908863 5.741249973337623
