48
Energy = -158.42858564 eV
Pb 12.301036765152153 8.002173917017807 5.060778791541061
Pb 6.742550982046184 6.853745086774882 2.878001281242958
Pb 9.780229773158638 7.375555774034127 2.9828607481207436
Pb 10.421660546384809 2.7779886167456107 6.020476047467599
Pb 11.548022509397073 4.992430652301391 4.1421793779602405
Pb 10.327468101332148 6.146560027054031 7.040158796423156
Pb 4.854156275320425 6.9777062689302305 5.6601206307146
Pb 10.238024945534075 10.458906648754931 3.937245888223885
Pb 5.290595092797407 9.593957067348805 3.589780254852157
Pb 8.061292589106637 4.854472268156866 5.131971289279491
Pb 2.613294690938847 9.408778714753872 5.308253223958974
Pb 14.13815833247955 9.69921017831836 9.030890712876852
Pb 8.164060009920686 3.2339280917483353 8.248745430922328
Pb 7.933720135163779 8.52270993324504 5.594443673282463
Pb 12.582183867649833 6.909336687305347 9.629402490797766
Pb 7.4194376223514595 11.829448466327706 4.405838840137637
Pb 6.824698676997402 6.363189003495507 8.331015043661742
Pb 4.35041227807922 12.158879537199835 5.794102490439087
Pb 12.807260263265116 11.045721519636457 5.716804642012041
Pb 6.64952308998409 4.487176560969251 11.195068135424606
Pb 9.468420546760045 2.858136063276334 11.208453665663361
Pb 11.490292799215172 3.701769384698185 8.882512782759985
Pb 4.530963001311799 9.188144802065485 7.970101746042808
Pb 9.477189409015736 6.171167212706574 10.390151365875395
Pb 14.474756215278642 9.008836497152684 12.529371435150452
Pb 10.855871339585558 9.53568839281779 7.942733842913512
Pb 4.980899940911356 7.370311151739811 10.91980131109891
Pb 14.728357921153664 12.070131720499768 11.1847942951098
Pb 4.262369085243167 13.263039690085172 8.989665520184419
Pb 9.131074714242049 5.065588053799277 13.551253522296177
Pb 6.893745495728462 11.337181834570647 7.724875039527154
Pb 11.945377607891015 6.5368197267695844 12.729806778066639
Pb 9.768453194041767 12.640070618754711 6.6466555202813975
Pb 2.000813968652342 11.178822512965326 7.988944979876169
Pb 3.596425511457349 10.587154909510069 10.843439766659861
Pb 12.560999142647844 12.520249617884243 8.692453270679977
Pb 6.215033912721444 6.4299138910083995 13.809994828581868
Pb 11.754711391618436 9.064033832228713 14.728420553762064
Pb 8.909613917599216 8.366918150059597 13.123746216701218
Pb 13.197672688599047 11.779650295866192 14.024752148498091
Pb 7.166554409592621 14.292219073149086 8.684592422437143
Pb 6.439710640872821 12.389958488507327 11.349494028987033
Pb 11.93018246900858 13.675992552805022 11.743620974811266
Pb 11.668723760943877 9.935059716928718 11.347926359707637
Pb 7.75246108143308 9.182149118171989 10.190877485889088
Pb 9.455017496721007 12.254934480946844 10.019335694601525
Pb 5.829894933596594 9.61245734956643 13.061315839730609
Pb 9.893247287549007 11.71834627180038 13.44939124521785
