47
Energy = -155.11487535 eV
Pb 2.2495535343108957 7.10764096851218 7.8269415783782765
Pb 5.750889648494162 10.283442050552505 12.41189739095844
Pb 5.629729473542992 7.12580875638318 13.468992688105292
Pb 3.9011613242503134 8.093753249515318 10.75669692926479
Pb 0.901235110447639 6.336333718397807 4.963036350374782
Pb 8.015846291951236 8.99338924772775 14.409085773416608
Pb 3.1198929640478763 4.112572618367317 6.407556369201221
Pb 2.165708941809994 9.392339119824443 5.153760683581739
Pb 7.279851547166218 4.280381524747617 10.956536085184736
Pb 3.264375556005899 10.241329231398147 8.240854601556219
Pb 4.452957276896999 5.045167006535819 9.644524496966614
Pb 6.464691030046995 11.311691440889566 8.993374173722552
Pb 8.71389718980229 5.888942664461178 13.506867565735075
Pb 7.39352130341619 7.713431399381893 10.850647859395016
Pb 8.886417505003868 11.008468537360265 11.95598728923278
Pb 4.33468812569416 6.85078353744511 5.031861397644816
Pb 6.085449844643894 2.084906256075394 8.790861088288633
Pb 2.728963489657691 4.596402754296532 2.986929140579655
Pb 5.74108619114799 8.095866115947185 7.99263081969374
Pb 2.4778330870356418 7.709030525920457 2.3238277764616515
Pb 5.439049788385711 10.674508577658717 5.7538305347043845
Pb 10.904121648245132 8.241617062226242 12.851341819992014
Pb 6.524141292288763 4.794790658419773 7.083385991799825
Pb 10.43194919299128 5.510632359734572 10.600327291389696
Pb 7.739095641481877 1.8519644366498802 6.043890279406673
Pb 5.586224410532353 3.5211049128757375 4.175393452202407
Pb 8.52771983289618 9.678028080522884 6.918522849434676
Pb 12.181782133055167 10.876040567953591 11.607837759597604
Pb 13.12549873736786 7.879287668638336 10.215681120956583
Pb 5.296848679688822 9.332377605128926 2.7858310219791362
Pb 9.854605741407045 12.231822356987873 9.03455073133194
Pb 5.639503500146931 6.056170335882987 1.9915923082497655
Pb 7.557047564442096 7.5424914252912805 4.566772587433273
Pb 9.25135308541883 3.0227789193464503 8.663220039085678
Pb 7.853803903860649 12.866970920048864 6.300708606014159
Pb 10.206835434118343 8.9292648001939 9.577658048721974
Pb 10.643567636210134 3.354445722374128 5.71169228310367
Pb 8.32878178523038 10.839503395843959 3.6887451387171644
Pb 8.574461769074121 4.431902102001431 3.2239096772640843
Pb 12.862290338301175 10.803658427585862 8.52437247722446
Pb 12.489395568256695 5.3569778325513235 8.011687250773292
Pb 9.448411953227293 6.295410256396132 7.283134551503732
Pb 9.129828408964737 7.2795074288823916 1.825503969433207
Pb 10.92119461381342 11.644567922614636 5.822947826515106
Pb 11.177485500462671 6.095237791246046 4.250246058957309
Pb 11.135101179059644 9.202007698127813 3.6494495447838085
Pb 12.37233178554175 8.226747343600968 6.603263856665552
