42
Energy = -138.32579235 eV
Pb 9.62881017228934 9.479895026200563 12.798093651544647
Pb 10.248625554817254 6.97915877463051 10.817052070137128
Pb 10.834444518938799 10.243204367862644 9.935307807451483
Pb 7.55938289571183 6.849435255948986 12.686398107550843
Pb 8.206487084816546 12.067313666795986 10.946230032251478
Pb 12.669146193104107 4.2144254511412855 9.837051828765247
Pb 12.687361738438703 7.213568820975839 8.662221217167183
Pb 12.101918900461518 10.63183050671099 6.925542769568857
Pb 6.543106526849859 10.151332185145451 12.982419348889147
Pb 5.055582843618789 4.935762757164209 12.42218344331287
Pb 6.4235650504597 13.925275075940355 8.546151681940636
Pb 7.50237915962874 8.871493878437748 10.05681102410209
Pb 12.381259797718293 7.688902353283824 5.486774433524132
Pb 12.914878197836321 4.517793566848475 6.561923076671326
Pb 4.402089674063343 7.975521584364891 11.698051456196923
Pb 12.884149802843899 1.6376660050412573 7.948668966540162
Pb 9.571056215634751 8.250869744521841 7.24355365960481
Pb 6.31437017618419 10.086738708870739 6.981904878741855
Pb 9.78091212537923 4.906815751301623 8.223845145025676
Pb 8.993718500088711 11.834974165715753 7.470164763442238
Pb 10.214715847918834 2.055878877526458 9.65967175192309
Pb 11.014996140509009 12.847128823411941 4.919627459460533
Pb 10.208678440069884 9.790904098561544 4.2074285453128715
Pb 5.071527395475482 11.290253290449117 10.047580581927031
Pb 7.9840250082264514 12.14670411467717 4.12528284611213
Pb 9.968856322913185 5.622019004400814 5.0470441001693045
Pb 3.474819125150383 5.253827059040282 9.737222956650465
Pb 5.726535624241882 14.175047781171008 5.301751834248816
Pb 10.384714858702889 2.2655439235800316 6.071235561636737
Pb 3.485764225720139 8.581757433386077 8.580798355955466
Pb 5.85493785518302 6.5799268365652095 7.459535130275618
Pb 8.678576637846588 14.780374023840936 6.191807397329498
Pb 6.822028956530129 4.509005620637847 9.795808354550545
Pb 3.8752397876940097 12.278300675619652 7.095670045872719
Pb 4.911270975749953 11.197348290807483 4.213710162813771
Pb 7.174023193350283 7.877260321678489 4.676761122653624
Pb 7.436999114039502 3.6447352759603167 5.109127155142288
Pb 2.433433966479424 5.784761757432677 6.818705108661527
Pb 7.60407703886759 1.9595077540384795 7.810499387641905
Pb 3.719273239049085 8.366924969193652 5.329778384088878
Pb 4.758241993173534 5.404362285270767 4.549164223192445
Pb 4.688811781227041 3.3212427928500343 7.216232828954968
