44
Energy = -145.30220704 eV
Pb 13.228071440534436 5.02299453112624 5.627124936383172
Pb 14.701828848056303 5.2055549369655845 8.621416815067914
Pb 12.175337450278214 3.1234521706435 8.168328038805729
Pb 10.12259891833208 3.7568192298213674 5.487763958590249
Pb 10.988339431959012 5.602562537648768 2.99247645198809
Pb 12.451145808093143 4.990310167729343 10.96161798762891
Pb 8.705458228828007 3.339494799512526 8.409279216101705
Pb 14.135118580192533 7.925493536074445 6.941334983630136
Pb 11.48875005319907 6.380182734921023 8.26417326167489
Pb 10.761617046086133 7.675276550761776 5.41250851729753
Pb 6.82024198868544 3.551308050326297 5.719794767953247
Pb 13.765525177024156 7.912006606369513 10.126264441654131
Pb 9.055740040143018 5.742282265929279 10.536694461076756
Pb 4.560788618943691 3.717970242561493 8.073244221591118
Pb 7.758504212825275 5.737790952568851 3.417872557697157
Pb 5.829073224001261 4.007825704584446 11.106347348949864
Pb 8.097046637848534 6.270370925261292 7.125007600401635
Pb 10.713564198573144 8.57835862093285 11.230795288793022
Pb 9.392114749285014 8.356507421296353 2.354494785100992
Pb 11.355943387203277 9.855762597076351 8.062821107979252
Pb 5.053702706707965 6.307069389865453 5.747697822802649
Pb 4.905173099816326 6.630741757954229 9.42112135575409
Pb 2.5239201961994984 4.089862243852668 10.557282196346764
Pb 7.566322759382401 9.04345379313187 5.265201649437834
Pb 6.903466177474243 7.155969983249955 12.440426851439563
Pb 2.1117191393565387 5.77662638990953 7.694080777343248
Pb 7.760722239815183 10.243187434238255 12.389862977354014
Pb 3.9010151499711854 6.101998585097515 12.706177556841673
Pb 7.986875436029832 8.956943824349665 9.380698443925017
Pb 10.139677115215475 10.857024419460595 4.730058714550705
Pb 7.769275350525293 11.102797528028253 2.5617590387778195
Pb 3.1111910000982492 8.770029828510875 4.811255603176102
Pb 9.8181985178194 11.656170367561078 10.410426474066426
Pb 5.95883451254673 8.371373250942787 2.5205068316890973
Pb 5.147632348304131 9.710590406521558 7.4318444515613
Pb 1.7636531967304079 7.230057788059303 10.575792750016959
Pb 5.133299836555613 11.355142137837461 4.246794685012863
Pb 6.528821070289711 12.269675119419748 10.154140062283643
Pb 4.628492797033702 9.34089237893456 11.179206008424401
Pb 1.859441745730065 9.224263601954432 7.860224696727959
Pb 8.68388922699591 12.087827922128016 7.398339509210626
Pb 2.596500178840229 11.820720321112201 6.020513414019774
Pb 5.51973131439903 13.076877933502544 7.094243891915038
Pb 3.327405194514255 11.810454313234782 9.223271701538396
