42
Energy = -137.95392386 eV
Pb 12.369240905620963 8.57880265245594 3.816509738666448
Pb 12.17874937483006 10.895998360870676 6.192736690729134
Pb 9.576211368462781 10.29626716640299 4.101473031538113
Pb 6.881392217014885 8.688353766348298 3.036838118230233
Pb 9.496545341575512 6.915112467881144 3.5776680890920467
Pb 13.75755503701058 7.903860868944639 6.642982792486207
Pb 9.079147792557992 12.31770382127157 6.764449312995715
Pb 12.124975891913087 5.54315758016717 4.878010109189267
Pb 6.338253741260143 10.947709991585613 5.272287896403507
Pb 7.43143212612239 9.81623406738077 8.307688739851868
Pb 5.828578619360469 12.832005453231162 7.868072304358726
Pb 3.2724990183495506 10.907940726940296 6.945870780573215
Pb 10.34383984669628 8.022562264314223 6.640896587029193
Pb 14.093295882476296 10.619364313369083 8.879557212193566
Pb 6.238719144892404 6.053117994309537 4.904435139331563
Pb 11.566704768813354 12.991231502390589 8.90613093007079
Pb 3.9194747557300165 8.814608992505697 4.389878960362994
Pb 13.748368494875125 7.532002413972368 9.892824830308196
Pb 1.3371812782631944 8.369113518923335 6.410611709655525
Pb 12.019140423506588 5.353676784548776 8.088709888776497
Pb 9.142113044864688 4.733478792329495 6.073040876122458
Pb 3.0967765397094933 5.812453769384511 5.333273380158142
Pb 10.67835880838519 9.754215398074471 9.76064066833648
Pb 2.020772791772925 5.888881063459516 8.319308214841428
Pb 8.30702108450366 12.551254358304414 10.046678870633883
Pb 13.831151127230624 12.88373711269675 11.134593606064973
Pb 4.788959894960923 7.747052387843001 7.564737335258055
Pb 6.4209007592253515 4.629344853730134 7.880908987641745
Pb 4.923763656531581 10.818813931279571 10.121048390820754
Pb 7.828595862797768 6.887414685779987 10.186606295246577
Pb 9.289878752034094 4.039102363550871 9.4645087106261
Pb 10.865691868955492 12.15747369267892 12.087890832200546
Pb 13.290521791820902 9.862467859472885 12.054139149607318
Pb 11.08303069565673 6.535982774812898 11.456128289740088
Pb 7.542266963706861 9.947477895572913 11.801119649289404
Pb 2.3582548400572096 8.872832346967048 9.502649351977698
Pb 10.290892298880829 9.1858444179786 13.287631697805962
Pb 4.4951448128730735 5.589886234584001 10.269066741718644
Pb 5.744040822140388 7.249076243667944 12.663545872823363
Pb 6.838159590019421 4.208699666188769 12.10091933809503
Pb 9.981452388963001 3.801582049516509 12.5734752350415
Pb 8.563722872996152 6.4268806917317685 13.78323294152607
