49
Energy = -162.70164687 eV
Pb 11.14202106957896 5.404440598663335 10.366344695737212
Pb 9.039364847550198 3.6985104005844067 12.507125683954152
Pb 9.095413564581722 6.901804573209326 12.579700412650665
Pb 8.363877834225596 9.989745493404008 12.163571327133505
Pb 6.413614309910813 8.056183883516617 14.17363431617874
Pb 11.925780504760569 7.073292997113694 7.334520643174642
Pb 9.902783477658478 2.297481344031299 9.856572164082394
Pb 6.131281258037322 5.225239642382097 12.646109566434061
Pb 11.34913476640723 10.72651271237153 7.5205924059275775
Pb 10.652641780176467 3.9571178778725327 7.211813111641383
Pb 9.5045767611152 8.278396701193671 9.317061082481587
Pb 6.24976109509079 2.0917872213616224 9.718385878875074
Pb 7.948305340457746 5.039499485096971 9.531815543266026
Pb 5.1493033396881245 10.53427694671789 12.484583987879304
Pb 6.334957326417744 7.911172701855349 10.69709458201097
Pb 9.67064223501306 13.576504919782948 6.731378566556497
Pb 11.135148236430316 8.565518275712403 4.512481962902487
Pb 11.373520119384235 5.426885182188431 4.407467200375162
Pb 8.805178957942498 11.789688820636941 9.254587243706567
Pb 3.506644561996339 7.614554113472456 12.289382123982103
Pb 10.895978065326538 11.793900249741423 4.42134348043287
Pb 8.34943339651676 1.406457138916693 7.032798315188357
Pb 8.746802328568547 6.651619289142264 6.407803542648405
Pb 4.46325806278743 5.151727615356518 9.646814637243716
Pb 5.21942753015854 0.3790596630700885 7.1462292200483155
Pb 5.474731027803336 10.663540675568287 9.067003355525872
Pb 8.351614788279694 10.252817503211102 6.234442765106777
Pb 8.445146902596369 4.069753389159238 4.27125683634077
Pb 2.504419099335614 10.315054862573788 10.641496136623086
Pb 5.9703549310907915 3.797718532744795 6.781959460143563
Pb 10.311977980221904 7.116514250801021 1.5548074794718172
Pb 3.071909867933673 2.545732210442648 8.243917371140054
Pb 6.568256694562123 13.118156441866136 7.126602407872252
Pb 2.1680968485357135 7.406490006848687 9.195942454538612
Pb 7.74684609578784 12.665136682672227 4.039272526370531
Pb 6.493720726849637 1.4154829396917556 4.341120057657967
Pb 9.325063880465466 10.202062154001055 1.9559475616588058
Pb 5.297871769143741 7.714196655438062 7.385914303579777
Pb 7.507883255006212 7.715944183914151 3.3953823209362137
Pb 3.4822887739739157 2.291861446033017 5.024634131685452
Pb 2.9625046977200578 5.329057103162271 6.408246410798227
Pb 5.156096688899859 10.753448159228999 5.322467771155678
Pb 2.739463833988595 9.90109576098318 7.435512511230021
Pb 7.668628936617222 5.312173295929572 1.1142252765622316
Pb 5.297596078384716 4.763163212698676 3.5980014875445976
Pb 7.595160014238363 8.307145504165295 14.17363431617874
Pb 6.026185918996896 10.325881025022559 1.9954460318022946
Pb 4.040205303632978 7.779426238383151 4.30789301369495
Pb 4.928823399345516 7.161460268383968 1.2331279102407993
