45
Energy = -149.12090528 eV
Pb 9.42901557318366 11.530541557430926 7.0487385008115355
Pb 11.918433252686347 9.496012103175756 7.085064849739581
Pb 10.953517756449973 10.757383294021263 9.989645502428278
Pb 8.79704794410867 8.73326130374889 1.524053830058238
Pb 10.056421230293818 9.661280750841462 4.400562272615653
Pb 11.673964988209757 7.439053569272109 9.528031027461125
Pb 8.169024371804182 12.52337222018064 9.825508365862001
Pb 10.986393974332412 6.02211587235776 1.670679832140867
Pb 6.9094448241513575 10.702080973177846 3.5873262067204412
Pb 12.190350846581042 6.855334083153131 4.664426080896507
Pb 5.347811882713809 12.583758301231173 8.351354617421153
Pb 8.471015078900084 8.408519612930215 9.979081672239632
Pb 8.610964916459427 10.89147281768348 12.602799936361855
Pb 7.486277344500395 5.58544633141653 1.4009043735224784
Pb 10.84884665679618 8.517758973662286 12.513921123749734
Pb 6.589174008475695 9.674017738438831 7.044918937968542
Pb 12.424537113884597 3.7121972978211253 3.5052187899065412
Pb 9.604097704164761 7.0242764563103215 6.925282996151868
Pb 5.62087991868357 8.47978831512941 1.5335629841347076
Pb 7.416181096522752 7.565455228339716 4.285277316154954
Pb 5.369669961533854 12.838341101736434 12.03260038071343
Pb 9.811464714763268 2.9301675002781433 1.7288084010151055
Pb 3.3857902195964606 10.112249567251256 7.640837038002865
Pb 9.780384017147416 5.644597207822039 11.518174752360897
Pb 2.689236380621935 12.117393788457214 10.161026378278814
Pb 5.438863449574842 10.000765494611192 10.60302967671701
Pb 9.459520645659627 4.964822726894487 4.3246425637857735
Pb 10.129491203099004 1.8559492905677921 4.837517550195439
Pb 4.4633074490368685 8.790911284880732 4.530555599586355
Pb 7.679741781015881 7.684750111862374 13.195023501329443
Pb 6.620837871556964 5.503091125606519 10.937953145226937
Pb 11.628724872217282 4.2415191865519555 6.687423455553016
Pb 6.925008514411798 2.838908613127429 3.530157632047063
Pb 6.592556235651879 5.080748426331836 6.448917000118879
Pb 5.765286198962582 10.215352150396859 14.170345643017807
Pb 2.178699638748339 8.812188403198144 10.403542628732769
Pb 2.9033263246903998 10.686536223262738 12.985280976924432
Pb 4.813438493906544 5.545207432786586 3.4947183344255657
Pb 4.747800034646812 7.184307659672093 8.865154745791697
Pb 8.798021528384954 4.005437241375139 8.691654381407592
Pb 7.267729544211971 1.8161104804572061 6.843350619810975
Pb 4.275898034900476 7.6008494509917774 12.61303161991799
Pb 3.360507245394302 5.276509747272096 6.685627697670446
Pb 5.040308158112298 3.3580909318818253 8.670400643908605
Pb 4.4213481038530045 2.4795829658354442 5.561197343082597
