41
Energy = -135.63888106 eV
Pb 5.403308739369007 7.7543111632905966 1.7770862234191762
Pb 2.6108348813090125 9.222084996435564 4.80284717690636
Pb 7.710102359835927 9.992288360688523 2.303320861502799
Pb 6.39157187576158 4.818065039103348 2.842547148518357
Pb 8.649544360629257 6.952409873898978 2.0825023688161624
Pb 5.043116988088704 11.355919381057364 3.655680780794367
Pb 3.9653425364376935 6.2691188170785885 4.410777826961864
Pb 2.739912385316667 12.441173018676224 5.853388682039251
Pb 5.701951739136761 13.50004207337542 6.170743812530854
Pb 2.865945479051633 7.194889332860824 7.520010163437091
Pb 6.82131824553745 7.994775246089699 4.719551726134917
Pb 1.659655590666347 10.223225705966842 7.841831927936321
Pb 10.32922296691398 8.336870681229842 4.8180084589730585
Pb 6.557113561514686 5.00350097097603 6.364201068436342
Pb 4.070145115450059 3.931163524152174 8.27754203398971
Pb 9.216685281513007 4.654773808587562 4.45321608984475
Pb 5.900481468546894 7.147137972050438 8.780145912213124
Pb 8.117960459851144 11.630871764979005 5.137199622455618
Pb 4.1394461758317105 12.346185129064759 8.983877815846746
Pb 12.177321192253498 5.674435534747168 4.528298126835002
Pb 5.063579281818365 10.092123859984396 6.915799535742401
Pb 13.425870134141444 7.85958861466225 6.515371108303615
Pb 7.786947909034163 4.45143846143513 9.46127393065167
Pb 3.5839528458999323 9.118383838284771 10.174942616540967
Pb 6.406660419887135 1.7334339449399314 7.6280324255508605
Pb 10.283113120443645 6.163381010036512 7.50625578325822
Pb 7.766142708262995 12.325839254405741 8.31428081425635
Pb 5.3434721071473605 2.140201642656942 10.662280666880438
Pb 11.524379510080577 9.752372041851716 8.158003912802585
Pb 8.343048284101545 9.108516719329751 7.544077819896296
Pb 9.512512105558379 2.6151484328827004 7.242283977987663
Pb 4.567723950310841 5.231832888794414 11.271537019238247
Pb 13.28535307941673 4.728971378081353 7.36740942305549
Pb 7.143853845427496 7.090147495307248 11.866467870319887
Pb 8.461910048040624 1.354706170179772 10.21488048380528
Pb 7.502675086457089 3.6977652018249922 12.545195054857519
Pb 12.685332601171588 7.030052648310644 9.675425849163332
Pb 6.677263917191931 10.150559309684867 10.365941068567873
Pb 11.263999806439616 3.7469183119114273 9.698571643919754
Pb 9.784725228185627 8.731440619432064 10.61117752001747
Pb 10.10939945002671 5.749955987565123 11.941117828151857
