45
Energy = -148.84806053 eV
Pb 13.0256585605493 8.205631906992926 6.725740327990483
Pb 13.610967082288186 5.121170541827935 7.8145277667658375
Pb 12.989637378759944 4.2910550322380505 10.760985886394367
Pb 12.335415633080519 11.122354896544538 5.421690335849349
Pb 13.42463450480803 7.6157571390791 10.187245963173538
Pb 12.574953498187195 10.674206396453405 8.871481183589149
Pb 10.884407690711772 3.051185895488558 8.405246263405445
Pb 11.319492232812548 13.346961762395747 7.643670746850277
Pb 11.42760745504372 5.632666655441459 5.489769953213959
Pb 10.78173154396966 9.421435243341135 11.405206148480932
Pb 9.430654439727682 11.819676570727701 9.735894021227391
Pb 11.762993397419132 8.44825733807115 3.6159171886529795
Pb 10.509510490806807 13.771728224455446 4.640243874385218
Pb 11.294833888981454 6.455326503166289 12.511624045625707
Pb 9.437736689752848 8.337101094004087 5.966798486944992
Pb 10.66181074535016 6.2291446259413314 9.055899000915874
Pb 9.929289877956101 3.7523824573284226 11.45079572647873
Pb 6.988034518910787 9.52966747256904 11.968428714529816
Pb 8.431156016645186 8.795758581585124 9.105078938254037
Pb 9.719265015769901 10.983666421968696 3.1228596795135335
Pb 8.615789325254523 11.663459707423847 6.4311361246586545
Pb 8.429219644298923 5.321509992126203 4.437159152575664
Pb 8.407223972188852 8.048726132346678 2.7695261761669996
Pb 7.458979075963539 13.373356516498086 3.8551901938456368
Pb 5.199074630894018 12.302185767082234 5.822135337071478
Pb 6.924710734217543 5.875003207963233 7.437252813555598
Pb 7.864485948661992 2.8567958497696875 6.414138960693587
Pb 7.687039256685728 6.269531774198582 11.121746503869483
Pb 6.051742123715487 9.11526209297799 6.5253164314868854
Pb 6.103782319652171 11.251101695983564 9.215977338376316
Pb 7.340786264837896 3.2915789649641076 9.506155211872702
Pb 5.33749999949439 4.25915263204418 4.87979544010012
Pb 5.222960115213634 7.286924240373541 3.606856693705324
Pb 6.086675720128394 10.608721180310095 3.0346979010588857
Pb 4.728402060642751 7.7552427773414365 9.808333884571711
Pb 3.290014870493608 10.378774752442787 7.80289923328744
Pb 5.348788214642284 7.025098838812327 13.358356377257875
Pb 3.7487399295119026 6.673580954941879 6.535318505215014
Pb 4.563315953702993 4.5721049516324985 11.174158438707757
Pb 4.491771270926843 3.541468283391419 7.870339648785065
Pb 3.3709413445341943 9.841059801570777 4.657447809023966
Pb 3.7314206142317086 9.698892838326342 12.266185987232918
Pb 2.0912006571921773 5.556617791839957 9.3055968854015
Pb 1.5892875386209682 8.717643287967123 10.05360129863433
Pb 2.327307418666155 6.680726896060784 12.370548267042539
