44
Energy = -145.38913891 eV
Pb 11.811851415006533 3.6741604515796302 8.411400596774046
Pb 11.56926477547268 4.943472652470261 5.465856724280422
Pb 8.864419970060958 3.348181180308666 7.061226324246856
Pb 5.003902440927474 3.607025460983345 6.0612146841533745
Pb 13.323629102914309 7.656840347999005 4.872635778119279
Pb 13.327853911045137 6.523455476306507 7.887170074964125
Pb 6.1783931859150245 3.247244996825767 9.00642008792271
Pb 10.45533670483817 7.490656343319959 3.289319386276985
Pb 9.216246370044841 3.985292940974298 10.323619295536504
Pb 7.560812602986902 5.729453556044464 5.269710382108527
Pb 12.039896476287016 5.73912206295859 11.017206485255803
Pb 9.87741266800464 6.490827869666838 7.736522350759589
Pb 4.216265624103502 6.371724844087326 4.665979297265255
Pb 2.237864606907909 5.184093384055056 6.921128818727962
Pb 13.236885451005197 9.900403897720647 7.231993207820774
Pb 7.237841112334748 8.050786646878583 2.8904402441119643
Pb 12.980992464245094 8.821634625679096 10.265817717679157
Pb 12.090947730998126 10.518284447571578 3.8472024147107224
Pb 5.2253385254758555 6.348523280341324 8.126557639143371
Pb 6.576634526178029 5.01747017299155 12.304652132511599
Pb 9.347346704910011 10.327409907086501 1.9918687736712986
Pb 9.345592967703032 9.683139776797216 5.472179578711649
Pb 9.565168039210377 5.633012466393867 13.292074986130181
Pb 10.085714698986038 10.00626333934913 8.887516594913654
Pb 6.1577567391807495 8.769838347910998 6.008104861456384
Pb 10.564072119711192 8.59590562061306 12.763736417762889
Pb 8.390346731310439 7.254931150167895 10.59924948752174
Pb 7.86430358582032 12.309233482264522 7.0801290080312205
Pb 11.273544147783422 12.378110579254038 6.819059238752171
Pb 3.8020106513461283 4.634959271506445 10.584425751046664
Pb 6.77759705976758 11.239478522623902 3.839395243064353
Pb 11.52054814028526 11.42489719043308 11.451024404413321
Pb 6.640032758948053 9.759400717465113 9.405197282653399
Pb 4.6854676961935695 7.633471351547876 11.803007545238442
Pb 9.603269363691261 12.774098649940695 4.065237551501061
Pb 2.7884959579525153 8.399332103419603 6.714289959510948
Pb 8.437524261005999 11.361314842367662 12.345188663701254
Pb 7.430149354888309 8.261485562112457 13.716511690759805
Pb 9.568861123675733 13.274592057974436 9.736350108072907
Pb 2.0616674577860423 7.04207445749833 9.603653193620874
Pb 4.758015162412292 11.46865665650002 7.391793928348909
Pb 5.283576268727243 10.745100287239897 12.405135517786588
Pb 6.327770596708095 12.92686607252682 10.166667159838271
Pb 3.327087476518044 10.085481677517366 9.839838140398872
