43
Energy = -142.51956036 eV
Pb 7.275263420091046 5.679594591398648 11.900472999149413
Pb 4.244273614605438 6.933665836985676 11.205018949872537
Pb 6.771291956192344 8.921039563304014 11.252278738905463
Pb 2.9119598295613947 4.865525213099746 9.213518873069603
Pb 3.9110287771588577 10.12107950236357 10.091314601271883
Pb 1.407700770479422 7.8183293091555175 9.064479637672514
Pb 9.914444360228488 3.7377245635987233 11.816254628623618
Pb 7.310866932351002 3.1009875619289926 9.915862329754935
Pb 10.38564409382234 7.044855317408028 11.75444783026668
Pb 2.000133773771682 10.778676485638057 7.6245625330254905
Pb 6.745688477475759 11.731444275289515 9.64117621355584
Pb 7.374134818731249 8.808141184246962 7.996872054453135
Pb 9.240151220978618 5.718292250090441 9.02419692445603
Pb 4.1380857945926115 3.129023889034497 6.717111022626065
Pb 5.981360005960657 5.764199773508673 8.444256811845268
Pb 0.5155372115568472 8.567326045835092 5.832472348278048
Pb 5.185603723545649 11.297257979678541 6.874131706440202
Pb 1.3946741559041818 5.495948938626217 6.431158931136159
Pb 9.815624268995604 10.138862998891168 10.100468772843959
Pb 10.315924028621142 2.5586452111587445 8.891805555060088
Pb 3.7976101717259243 8.063223421299103 6.819072592871624
Pb 12.144945722887396 11.51122198245331 8.161369995529821
Pb 8.991705839118799 11.61529051959124 7.126388607494436
Pb 12.951666044620854 8.610268763135894 9.76302399702528
Pb 12.36622841357109 5.022358157247116 9.958013748293903
Pb 7.628807464955029 3.4949445789847364 6.348765387325336
Pb 2.73461771585618 3.902406950800807 3.7962470787582476
Pb 5.4965234272928525 5.823364472244992 4.837951123165265
Pb 10.779201564153324 8.496543602549291 7.4027833435719455
Pb 2.2043474620310226 7.13521792488154 3.4429414048931513
Pb 8.815859382892832 6.579909357012335 5.384977194889983
Pb 2.946036117042689 10.303234221385026 4.490320358618946
Pb 5.605813955573026 2.5330396174138796 3.8666846928462384
Pb 14.102772902368704 9.540338796298986 6.54051499277019
Pb 7.167971790352446 9.526724885551785 4.7621051593993995
Pb 11.432709455949487 10.64939206541258 5.065115477801803
Pb 5.007730447075077 5.219217392846711 1.7265191707675631
Pb 13.86468420000244 6.480448286699436 7.348589745774865
Pb 8.129545740672466 4.254599901168999 3.0649818901581676
Pb 11.33067194713602 4.628477370048875 6.533138594441605
Pb 4.8366515626629605 8.712010778060643 2.3920576098286683
Pb 7.653446218722619 7.27132872596837 2.3370895886892877
Pb 12.220868976395371 7.492963950673378 4.676409097403515
