46
Energy = -152.57470105 eV
Pb 8.464310538196543 7.591969583603189 2.191370157450367
Pb 5.184049444626187 7.8128857053407375 2.3511362619919214
Pb 9.495478669191062 4.28466846590874 3.292527502827608
Pb 6.973927538073197 10.569862610877294 2.7852938851809994
Pb 7.448807879087434 1.1570845007993895 4.619232708048791
Pb 10.59082289701283 1.7383615980267182 5.164149628258553
Pb 6.480099727438765 5.383796769873015 3.963900194014627
Pb 11.532847485877447 6.810748554596981 3.0642411479605984
Pb 11.87440059007865 4.770747553288899 5.587016746220485
Pb 10.300845524857802 9.916751270118603 3.6916057649086653
Pb 6.290152642472824 8.864672579440308 5.38833577254875
Pb 3.6285002147310506 10.145956811410972 3.709554720776421
Pb 4.9348294757073585 2.924333155836655 5.608295822774638
Pb 9.033797979549012 13.22371853769113 7.333679880159836
Pb 8.050526513255257 3.3068939499242296 6.985530628045095
Pb 9.179871735923056 6.608921879691316 5.612796192201814
Pb 3.231080550064986 7.470996418094336 5.6199126944377475
Pb 8.576288299895086 12.16480940359984 5.64325698992119
Pb 5.923976579936807 0.3979568419576588 7.4801570252800245
Pb 10.932951051243725 2.400317614971754 8.555105168399786
Pb 5.853070292587754 5.988024996761897 7.12983866815852
Pb 11.766845399264371 11.563596447421856 6.129339366501416
Pb 12.331998112650318 8.258898667429333 5.943156228898662
Pb 5.266789802059496 12.11355814638717 5.754601068779423
Pb 9.276523980820766 9.49028975972453 7.202130128774296
Pb 4.909802418411004 3.1850548053196324 8.860815707102743
Pb 11.76747915392798 5.626824295930746 8.71838722373239
Pb 3.820123875573347 6.62080398387492 9.543503781830012
Pb 1.8352385274253675 11.117009079476112 6.273921567973963
Pb 4.1467338225559685 9.800244712237898 8.14909401644466
Pb 7.810518298135432 1.7336029921784555 9.931142621933489
Pb 12.091933065001434 9.675073313723392 8.900373501946921
Pb 9.902570070546657 4.32210265650801 11.182508798011273
Pb 10.068411205162896 12.341027594118994 8.757679660492174
Pb 3.503485404571487 13.22371853769113 8.234984731652304
Pb 5.7781213237301206 8.930991512666596 10.819253131580698
Pb 8.688530433083184 6.736845084255084 9.167509119008898
Pb 6.716958901373457 11.73150940058123 8.8121763713861
Pb 11.364314942420755 7.38335065307276 11.332634410676004
Pb 1.142695733959034 8.390659433953822 8.156791334511878
Pb 6.67986033975821 4.799646465921664 10.98960852320476
Pb 9.223797614314613 9.815343543518008 10.66841385653412
Pb 1.1165413370070574 11.378580322135452 9.50313158848185
Pb 2.3215458913713336 8.961788411857018 11.191513927667266
Pb 4.037149550614342 11.720460129912324 11.078422366526203
Pb 8.355016332651164 7.093263962275898 12.409175331188436
