41
Energy = -135.34328375 eV
Pb 4.228694780783536 10.102627272459834 10.702502764113282
Pb 2.0043948057682104 8.654295182102413 8.687475365399136
Pb 1.950547209407327 10.34790298993778 5.786865807786192
Pb 3.0894358008638823 6.203952085991185 11.39159405384543
Pb 2.5507311977344007 7.150711464369568 5.400258127376649
Pb 5.8146556906545355 7.962836555255903 12.526957818390223
Pb 4.145962806437745 9.598310209734302 3.3857608318836396
Pb 7.55550251098322 10.32381743397031 11.122178402580786
Pb 3.1635177793000304 11.918458292842901 8.287491109538019
Pb 5.383031634664709 6.760019828941396 9.1761012037254
Pb 2.3792842981849316 5.456182395449093 8.28325444312353
Pb 4.695258638579488 12.256869931982589 5.444935819514915
Pb 4.882258224541858 9.33381205064737 7.029681681445198
Pb 4.452336085672377 3.529439971713522 9.670341622681294
Pb 6.063328460151956 4.8585424048406844 12.057985447072603
Pb 4.930102903258436 6.3897613647067315 3.2728273265598498
Pb 6.399998283202168 12.076983961768395 8.68077419231051
Pb 8.553751933710195 6.846330771026374 10.63949206805481
Pb 7.240388621353654 8.089664530868864 4.935956728917397
Pb 8.192540700279759 9.094287639996598 8.169618634760692
Pb 4.997194868550514 4.691045804790321 6.262123281090026
Pb 7.856454642531106 3.4803108910294296 9.722010213421209
Pb 6.922022834233508 11.579091409776685 3.2020498334782483
Pb 8.485745041301069 11.707373061093575 6.112919924474654
Pb 10.816891986448882 4.221354491314141 11.092659401797798
Pb 11.09723586493003 9.926865113680623 6.876095233374624
Pb 10.811057748742702 9.811086690488352 10.048173587595501
Pb 8.019477285009012 5.783682616258652 7.24037796105666
Pb 6.906486512944281 8.64162528316486 1.7095661735650873
Pb 11.094142811538502 6.507647140584463 8.529119871156388
Pb 9.59415821113289 9.869055126206808 3.486724961652792
Pb 11.901792230424897 7.19636314434928 11.802771588160414
Pb 7.4787677026025055 4.496127639590123 4.089440219729106
Pb 8.785035234158839 2.753655170717936 6.678056445412216
Pb 12.020542068659974 3.2069688856023846 8.2103366592426
Pb 12.055127481791933 7.691987023658518 4.791855928053877
Pb 9.48512428291018 6.709328771700698 2.9270519255514387
Pb 13.845431374937112 5.125201393296848 10.204626205685239
Pb 13.716148320593245 8.21652514348555 9.183763916758776
Pb 13.818535699682757 5.759636573867908 6.979046222035076
Pb 10.822097471086861 4.844306752605144 5.4866746650864915
