40
Energy = -131.80293718 eV
Pb 10.87362747353249 8.435726935462888 13.010039608099612
Pb 13.240113636906491 7.081304253355344 8.201891360930684
Pb 12.854672845647261 9.408194220301388 10.466457790757017
Pb 11.588086853119222 12.356072927324874 9.26535832510427
Pb 11.824583502578335 11.621020070031534 12.440481677753684
Pb 12.172926007462795 10.062261704456047 6.958695510529672
Pb 11.814055257408821 7.1603232408414845 5.2911461890511315
Pb 11.181553668597026 4.655536451046345 7.443564974137773
Pb 11.488444853673556 6.035276758045789 10.66887733233465
Pb 9.17630090975836 5.039038155378335 4.887718318435774
Pb 8.514602839663754 13.42718161104395 9.671051796734927
Pb 7.906367183530603 9.584872188630975 13.523723845283335
Pb 9.883627181254175 7.693294448114151 8.106774509315962
Pb 9.361669325295917 10.317805127983025 10.599849548173296
Pb 8.988094926430959 10.992982423219555 7.205874877073188
Pb 9.892385588966691 10.481388001619615 3.9265143161482676
Pb 8.872341511554147 12.733075826376327 12.861945774343924
Pb 9.732177867345527 7.469519897003909 2.6472445758007175
Pb 8.76477195665678 3.8739114528766048 10.088119553284049
Pb 8.343485269959944 7.121044999742835 11.157552819787584
Pb 6.591059115199871 8.820180173149993 8.727404446048128
Pb 5.262009123737886 8.208316621354175 11.855290780130375
Pb 7.682051554504503 8.30085758638566 5.277220229488028
Pb 8.33789818868244 2.362996130137288 7.225766741679374
Pb 6.1880952011986246 11.75748197656349 11.577162478397147
Pb 7.473297136397205 9.568115069903381 1.808764007696986
Pb 7.178174579301109 5.579313745200793 7.628819731780768
Pb 5.735798163907633 4.900179105915909 10.644578305239913
Pb 5.942152354241781 12.146488862518597 8.028878712652547
Pb 6.92371984541726 11.486728063241681 4.507171892189215
Pb 6.606046666265111 6.465313801301002 2.7840476262525287
Pb 6.194760663533404 1.698200752042746 9.76050127221037
Pb 3.7836079810469663 10.312873433656392 9.932236832511931
Pb 6.097870198688643 3.676447106929377 5.129104419920117
Pb 3.9252475818408787 9.769859767614228 6.74469930168511
Pb 4.837894319302609 9.12845444213663 3.5646006857670844
Pb 5.474134092003093 0.9849452584910153 6.8496768879501495
Pb 4.514878524130799 6.578346688931585 5.738456227732183
Pb 3.6364333761439136 7.2121607874430955 8.869849906508614
Pb 4.260864614680816 3.7366848806499418 7.933346817275946
