48
Energy = -159.31118395 eV
Pb 11.928386904426404 12.534168982514714 7.161098796805227
Pb 11.522141169238813 10.290958223963669 9.489374268389767
Pb 12.88721997737847 7.482295185264253 8.610977453842654
Pb 12.075424757432245 9.47160168637754 6.101840689793469
Pb 12.087212921066794 5.858886906737237 5.91560400784464
Pb 10.087515991227287 11.98582751904611 4.408356919194162
Pb 9.57276425903196 14.529164598896175 6.488530311491657
Pb 9.65019847625106 13.12293667914672 9.678327257653912
Pb 10.2163090693075 7.389236661933363 10.79642532874253
Pb 10.951788052477763 4.784932223153771 8.807521080594503
Pb 9.969068652238134 7.7244577939752475 4.2578305634807885
Pb 8.614540839402384 11.229263232326334 7.26215731612218
Pb 8.832024560681027 10.241322658706089 11.312449706301289
Pb 11.142091376041368 2.702548270592852 6.227758193317952
Pb 9.540959370120117 7.781321784988698 7.668300680539679
Pb 8.697122748923928 4.966128442220335 6.149428204839764
Pb 7.2224685327446805 9.930338967447556 4.467076409889568
Pb 10.358148245146973 4.284564642518597 3.5345628024138187
Pb 6.833686776144546 14.04238921478831 8.084502474157752
Pb 7.112567826928975 13.308540803182433 4.833921765052897
Pb 7.8368070548064015 4.544533423671605 10.060550327847958
Pb 6.181574438027461 11.056436826069493 9.763890466754585
Pb 6.723943635454515 7.57315056415215 10.52608553665307
Pb 7.783239286624189 6.06888776462785 2.3787235751108344
Pb 8.161032320745848 1.3844858136319695 5.14728558698249
Pb 5.324658536160279 8.30973450682688 1.964932015519062
Pb 5.49349308052742 6.3173017651357295 4.6839684411562175
Pb 5.308488493094625 4.338342436395778 12.033319454698752
Pb 8.666965701796128 1.8640599527916364 8.361237348289249
Pb 3.844323489939277 9.628011978333749 4.525437921376624
Pb 5.047582923629038 11.67842131766763 6.815590985516338
Pb 6.108906457712002 0.020523737119746 7.385384546299367
Pb 3.4144948856652904 6.799584979614781 11.995491476825627
Pb 5.920852601811861 8.524515735520266 7.3188031877105475
Pb 3.5240029461952016 9.02149430787554 9.648356451543634
Pb 2.5957128001836436 7.013288184408139 3.2012222142494213
Pb 4.397039190699377 5.690207804148954 8.930931631416176
Pb 5.901252798534636 3.3611675536671295 6.810218876481884
Pb 6.457969768094344 3.164225169991485 2.9953136743172326
Pb 5.5104701924083415 1.9094280575011233 9.96737959691421
Pb 4.686759328525711 0.9697637608977694 4.7003655217254305
Pb 4.557059422625545 5.223001581881248 1.493234182710041
Pb 2.3804233995550392 7.819423837172822 6.836595205736145
Pb 3.21120530683836 1.719598973171874 7.5582281173118755
Pb 1.1106405833354005 6.769844537911035 9.796695438897169
Pb 2.3099972110873788 3.817895479415659 10.56335872652668
Pb 1.5610924776169395 4.690794713743952 7.370632200278798
Pb 3.2085151417175153 3.8801216273830024 4.493631914202759
