44
Energy = -144.24769685 eV
Pb 11.354227256931233 3.546066235334402 7.092864862695363
Pb 8.744915918040086 2.691920993577465 8.745973809692448
Pb 8.347010262054916 4.164971358183001 5.320725827653147
Pb 7.787647995508759 3.2406340200097836 2.275756012023378
Pb 11.59148905421631 3.433403370459428 10.241516695309631
Pb 10.930586488158431 6.358926114152332 5.456439391392645
Pb 5.875728920203916 2.5562698563476856 10.183005962571617
Pb 12.320399589075134 6.358785302162162 8.721326044355486
Pb 9.35520117743532 6.04753670798441 2.672118078843519
Pb 7.079759805016311 5.660110315880176 0.47695838945327407
Pb 6.095933622566958 5.2421051825271485 11.90882205639728
Pb 8.688264669443091 3.33456962375734 11.964229928029388
Pb 12.76817821340781 9.359587242835374 10.199148901199964
Pb 6.461829366518224 5.101258141530118 8.079393929854385
Pb 9.176415654232782 5.922997897673917 9.731955628572532
Pb 9.977258853129943 9.451708973054739 4.289396146012723
Pb 9.934158915501659 8.592381214352068 7.720687226445207
Pb 5.849293166484563 5.589149256166406 3.4174948110734307
Pb 11.57071211942005 5.966613164814377 12.088485620362373
Pb 7.130456658222941 8.405699629773453 2.2523700290246707
Pb 7.598817338614845 7.379218212720164 5.568995385694609
Pb 9.550226264888316 9.311518358856858 10.971059762313
Pb 5.305353962803938 9.72132109318246 4.764542676968527
Pb 4.146753255995027 7.197241595888866 6.9387663148827246
Pb 11.864368863351139 8.81521425770005 13.493863388189533
Pb 3.731977747203357 5.0208377043762 9.78214707243043
Pb 9.803121442249827 12.31143833927589 5.815804694883004
Pb 7.162843556476965 10.501474161318118 7.512107258336231
Pb 8.631824479972991 7.003708547510947 13.058554420248113
Pb 10.719397196059884 12.041264619531098 9.170213854789319
Pb 7.724103773733152 11.72531096753472 3.3980657917203034
Pb 11.667387443433931 11.735156401790231 12.272109857277323
Pb 5.712007655231836 8.14989455681859 9.769707134976285
Pb 9.195349011143094 10.521293152292932 14.019996927997955
Pb 3.7042944716530313 10.337954644290852 7.905973233462282
Pb 2.2871139065124444 7.852723834615935 9.519260288383665
Pb 7.983229444746099 14.626173140877487 4.745728240824339
Pb 6.4005670042481295 9.969116628283297 12.427993407192014
Pb 8.400052411797772 12.440277002052934 11.404414763750538
Pb 7.767280068678667 13.714920832126147 7.961066698588363
Pb 5.453697917660212 12.209114567410213 9.927288694097157
Pb 3.347995553936488 10.205770542475825 11.226100341208753
Pb 5.560750737860861 12.77950742191057 5.705623835389027
Pb 12.290007372018149 10.452843402422614 6.849935191273687
