44
Energy = -144.75839706 eV
Pb 10.23005310158078 8.125880480519434 11.559530619546111
Pb 7.785483133104608 9.128515832187915 13.641775980432916
Pb 8.059468080179988 3.253196506824321 11.314263254747994
Pb 11.18332687706289 5.025874850028601 11.286954202835725
Pb 6.119383458329536 6.824465044822945 15.058296837441349
Pb 5.528708847293698 4.995823264041697 12.528286898818836
Pb 10.620064364028252 2.7104460270614563 9.192391354589574
Pb 8.642490202730308 5.816737354084537 13.519405735354454
Pb 12.020957318488046 10.471815115349653 10.114632508318032
Pb 13.353236192420214 7.437640742538267 9.883247890047082
Pb 7.6294131082196905 2.1624108351581537 8.282079559589384
Pb 9.014587845978555 11.500682176509049 11.341189970959089
Pb 5.696210232088473 11.474065891856682 11.129548504174766
Pb 5.316391050607225 3.9696829278680976 9.440457487582172
Pb 7.695838877851023 10.984140242844633 8.246202408665543
Pb 15.05503150081129 9.617607958987273 8.533053681397112
Pb 8.769676424781666 5.6139428067477715 9.10750035538107
Pb 4.703836127157743 8.643414367901572 12.79446327946818
Pb 12.146219796454945 5.217424634987735 7.787318882838395
Pb 9.39772248546644 4.107927035247196 6.196983365186848
Pb 3.84249870785012 6.699786617015147 10.288404674474036
Pb 12.48832415838824 10.900252984743942 6.964747464798632
Pb 3.8741237419043544 9.670610526763483 9.036078430456419
Pb 13.521393413014884 7.82727519048368 6.380821679140077
Pb 10.133372499120386 13.12504259935688 8.62292404285168
Pb 10.655649327290211 8.34102718459727 8.027599072016653
Pb 7.235788111261847 13.994024625687503 9.867301086143014
Pb 7.051388117981698 8.494570431389151 10.494546731713049
Pb 6.0557400573924065 7.224342877386287 7.46958980058487
Pb 6.009741966623236 4.185652956892782 6.150498215123835
Pb 7.503786128399794 5.902992237890253 3.8241086260768453
Pb 8.439565642778897 9.100271469348009 5.397150270351884
Pb 4.994227391869385 12.628943581316253 7.791917076037492
Pb 10.828319910134399 6.609490375895873 4.64346466600163
Pb 2.753017068521273 7.097073674460675 7.280655977304687
Pb 11.400262839329198 9.758280171912778 3.969938549535536
Pb 10.023477147923872 12.465687539088059 5.347529542737772
Pb 7.6691153469256115 14.303491095021831 6.728095283555974
Pb 4.13011969325501 9.674252099259956 5.80861793432439
Pb 9.162460851776709 8.154764803784268 2.196654893890134
Pb 4.324475687222855 6.651522608674814 4.504370335460261
Pb 8.687389686163932 11.265402908024177 2.660284385616145
Pb 6.339799865430881 12.00422662332868 4.746041272962257
Pb 6.0969082173442395 9.028365324650167 3.03012181400534
