44
Energy = -145.29948865 eV
Pb 7.303290537329527 8.878195022437582 3.4157561154424627
Pb 6.9722841097034935 12.724324045298935 7.483900136348916
Pb 13.89514578859331 3.313574074401215 7.2241255184888855
Pb 8.560981795587177 9.54781894794758 6.2511549038718535
Pb 7.237993413655517 10.1708217642179 12.930400785910333
Pb 6.623743941756304 6.430666006700093 7.811975698068066
Pb 12.312025921594772 8.420057967855833 11.426902814978689
Pb 4.847419705948837 7.252802067751349 5.057883245529421
Pb 13.352691163872763 6.339761036197617 6.118884310486878
Pb 8.637675558832203 8.102170557537473 10.352189581900326
Pb 3.1711533905373663 5.794729251907644 7.617642216298699
Pb 10.127614117083562 10.478459702909781 3.348224734966026
Pb 5.130549602400262 10.64610067167009 5.4314075424881985
Pb 9.750312333765887 8.09769819524923 13.494410302022153
Pb 13.404953359308745 12.029229905779047 7.521613940145107
Pb 7.817716323448506 12.466776543499487 10.490409860860183
Pb 10.352188715405086 11.08158368980787 12.163412958659714
Pb 12.546987158988953 9.738669048794682 5.3933764821630055
Pb 3.777186297317092 12.45177925439605 7.971606900427535
Pb 2.2911959543224842 10.709461836546184 10.092439667919718
Pb 11.216391086921062 3.1786243815660633 8.808068200849084
Pb 4.814010740151166 12.058695011891711 11.416608956468597
Pb 11.19190786921921 3.9933741089395003 5.572584521387167
Pb 10.402465900969435 6.369905754478881 7.782977839218472
Pb 10.595667934561444 5.561403287952757 11.15542420425521
Pb 13.40912108307312 5.640331998746979 9.384807322858396
Pb 13.87822098055158 8.800667904197237 8.381864412817135
Pb 7.678014236937427 12.27148086316054 4.353681654165897
Pb 5.717075429136235 9.898063931741198 9.103128371453565
Pb 7.791286624838607 5.58316145271248 4.589360540322745
Pb 2.7508637835007472 9.282486026861166 7.195205696193213
Pb 5.1327394637885435 3.463207124649945 8.834716904164706
Pb 10.801229951796179 13.176092484128006 9.221926719137956
Pb 1.9374204006513567 7.594585039783746 9.959227321894367
Pb 7.559843539044027 4.693464887243943 10.654598628591865
Pb 4.301906714206143 5.695847718760085 10.989189896680912
Pb 5.245515808698564 4.05824083509802 5.756714861191823
Pb 10.847285426601783 10.047894513323943 8.59094465634808
Pb 13.223787709369535 11.454960228253983 10.599289437876637
Pb 10.470480743235932 7.300481018345588 4.443586025631446
Pb 10.56035886366705 12.545092320171518 5.933803749083567
Pb 8.283549529067498 3.6411071731088236 7.327324598290939
Pb 6.760455270181438 6.954709649340961 12.875580469508659
Pb 4.120997164614512 8.865148138873101 12.275372738868247
