42
Energy = -138.57581685 eV
Pb 2.3736582284353704 3.2082814850199917 8.71690438039929
Pb 2.6099686167514933 6.1913470527393635 9.936264417725685
Pb 4.427159123098518 3.5382062892436275 11.173008483549756
Pb 2.1739489869465705 5.753459434307776 6.5863772240499685
Pb 3.9744232499046976 2.939242404395809 5.884237276991259
Pb 5.2207194144272036 1.5465733087126377 8.725067404462557
Pb 1.7297581061828693 8.698789277941945 8.161110259764053
Pb 5.4781754011505175 11.058025304390664 10.390043549043343
Pb 5.45595052021096 4.8197831949551295 8.322431028098402
Pb 4.459070034510724 5.991286920744957 4.193847618750864
Pb 5.786352050883085 8.11526855403282 11.778692412177636
Pb 7.234342328777056 2.0076771350370115 6.228629024981946
Pb 7.326142678150906 4.763294574175529 11.18107540660083
Pb 6.312764795995778 3.526966925222031 3.501468334383002
Pb 6.410517126238887 8.724613818509855 5.841559583914322
Pb 7.592847980057562 5.460264857841981 5.80683764482673
Pb 4.937308576722788 8.12488007303245 8.646602552031194
Pb 3.9062027588393757 11.028401715374834 7.408376185607796
Pb 8.62702791140061 2.89515070150119 8.988625790702024
Pb 2.9498524042081375 8.82837331425226 5.1026631576179255
Pb 8.129372698650288 9.311586944891163 9.376664005021127
Pb 7.867269795092564 10.545394168722853 12.61668052780879
Pb 8.983677547522397 7.449194423668857 12.13003140301634
Pb 11.828412730333278 6.917586040607155 10.626219664543504
Pb 10.497883242480151 3.8190378705442876 6.601373655320181
Pb 9.473518992550858 4.092929527582617 3.583117635689415
Pb 5.446533284886654 8.73362983968443 2.7234533798617204
Pb 5.041848889849907 11.402753768545894 4.437996172409003
Pb 7.6061651110582895 11.782557054903847 6.824936085478658
Pb 9.176018182347052 6.237707501549841 8.724626881846309
Pb 9.821585070512436 8.807740012322018 6.218389595481962
Pb 8.656473652346275 7.4152153639727025 3.1065918228125287
Pb 8.427776738584516 12.484530031673076 10.064249395407316
Pb 12.486444697195802 6.416448543074279 7.5668253378625066
Pb 10.83935270660995 10.20394320956757 11.20354220147758
Pb 8.123279918699863 10.74601827041087 3.525255116336613
Pb 13.115153637038688 9.32137447987933 8.978041447130584
Pb 11.59098844362084 6.5163667364565905 4.451471973888882
Pb 10.720221264662582 11.845589497448856 5.173210432590732
Pb 13.090958661658236 9.372797099577626 5.739633900092737
Pb 11.150689835505132 11.77391514021532 8.348321393251181
Pb 11.213086972819283 9.477107626996945 3.093582337355939
