40
Energy = -131.8457567 eV
Pb 10.459056381043721 5.832690103571262 2.2640399776246514
Pb 10.330282770806962 8.982835945506288 3.2999016290397036
Pb 7.549203396120363 7.208163702586851 2.290560503597398
Pb 12.313703554810294 6.815801906362636 4.862154272510459
Pb 7.098207996997233 10.167243500845043 3.7544287123424094
Pb 10.863030543862125 12.834792108311529 6.097777670426139
Pb 12.467020517851488 10.111195263557464 5.830065896064698
Pb 10.761077874938932 3.7549428966025875 4.6389499888107935
Pb 7.779237245859895 4.245561636155269 3.4966814056591025
Pb 8.975048784130353 6.63875080560726 5.312395004165008
Pb 4.559209114169662 7.779840233320779 3.790293883515782
Pb 6.590355736530662 12.249021151807131 6.318695412037301
Pb 11.336321004578064 4.9296835279350315 7.570176968438621
Pb 4.01045943474916 10.672364204247303 4.8393632707574845
Pb 9.218608061021374 9.95430557302387 6.439308458167747
Pb 11.581057012507035 11.33229132761136 8.858544090902928
Pb 8.900046632600473 13.289123038415966 8.473604751888299
Pb 6.057709103950093 8.663914382704226 6.798109604433871
Pb 8.134019383772575 3.772231008792655 6.982725708870595
Pb 5.3532784840445835 5.386352905238869 6.040966436695693
Pb 6.835696749234614 2.1132365760006113 10.06819498605073
Pb 12.30467652660871 8.005298056463594 8.351565564972145
Pb 9.501252794466687 3.794272136486795 10.13134803608916
Pb 7.774691504036761 9.97024986906201 9.512988640612638
Pb 4.470976997595791 2.92145647854906 7.995937926527683
Pb 6.301650559791857 5.50048808793542 9.435559824449026
Pb 2.86869885789638 8.112169977473515 6.65198997179825
Pb 3.867014285164416 11.05071910386578 7.959815585700036
Pb 6.17215713975329 12.795813110230856 9.942646471994909
Pb 9.949218575706634 6.153216373017207 12.089292943236064
Pb 9.098403217768881 12.112577994176545 11.562714927385388
Pb 10.757289687433886 9.10690473302931 11.121060561245306
Pb 9.194195366654812 7.0261914179696445 8.923881090387585
Pb 6.929955918268488 4.279866842827788 12.593658566283123
Pb 3.995863993742539 3.2674623404727603 11.142504175444262
Pb 6.1992475066391295 10.733086184445588 12.372883804892973
Pb 4.655910586862469 8.761162466648749 10.134052328256292
Pb 3.053328337155017 5.657914852126239 8.960070125079078
Pb 7.290305161743902 7.798472625456028 12.37674083455494
Pb 4.285649529104116 6.265104125486912 12.152369936487037
