47
Energy = -155.39709984 eV
Pb 8.941060655484296 9.915079730451588 13.31735023303
Pb 5.635667608611943 9.752873923509465 13.583520120854653
Pb 7.451970742181354 7.041341017896216 13.92463642563314
Pb 4.3241043258719785 10.31401860109639 9.183512853698893
Pb 6.583905051982778 12.072250339142773 11.257553665015598
Pb 2.2268774343363775 7.617843585410771 10.076981683364094
Pb 5.108001413243605 13.386565734596324 8.27204265846063
Pb 10.285678187171404 12.386508836497153 11.071646201913314
Pb 4.624019249071591 7.032268331347063 12.321692818552842
Pb 12.098726751409632 9.703991556307951 12.025602781462002
Pb 4.888700461872134 11.220715555506775 5.937053106650118
Pb 8.052041915427516 14.165922434098489 9.202602942521631
Pb 7.188930087912905 8.623285214279377 10.860726215450077
Pb 5.053689900985631 6.940335057969961 8.87131437698075
Pb 2.7195548238299554 8.528410045074208 6.647713594335049
Pb 7.509975460676085 10.927759837100057 8.325181379452161
Pb 10.011413110002735 7.0266124022640035 11.894696914668481
Pb 2.149475051808448 5.331090559686162 7.848724398447225
Pb 4.409101162094394 3.853287809895602 9.797594561355158
Pb 7.649798728724002 13.193406808855546 6.100033474007134
Pb 13.286411370195436 11.671139375426947 9.735075255875149
Pb 7.1811734163630065 5.1677014284108 11.12114230659112
Pb 10.802731269691245 12.819462191744176 7.776847560666113
Pb 8.952499500661103 6.719606445061662 8.585779194720805
Pb 3.957382644368509 2.7150934251581518 6.78590275962083
Pb 10.563510923384271 9.669409708947134 9.161027009517952
Pb 6.337710622326316 8.30989493965984 6.2294216656642
Pb 13.496296746357574 8.442710470306244 9.275202230482737
Pb 6.593783970772199 1.7662090069965064 8.772070699524482
Pb 12.832757180782965 10.396736885818992 6.7784403975587155
Pb 9.60882624607634 9.762715616278351 5.882731623146758
Pb 9.404234644332337 3.241504928791679 8.659290546580877
Pb 3.82783871906371 5.8393774503037 5.09107683761254
Pb 6.69584785731617 4.6261023390065015 7.122012554691044
Pb 11.825595595526329 5.4772969132106555 8.654186205022578
Pb 4.267269704052936 8.797368843495626 3.675390074494928
Pb 8.912722701671125 6.461216607103455 4.830243208147358
Pb 7.694591067772311 9.227931748526071 3.166951067815207
Pb 5.781236524902991 3.2811580281609043 4.1139252968835045
Pb 6.135876100933779 6.2189122112955895 2.663024482016395
Pb 12.031023924370984 7.207978654025574 5.916240810257773
Pb 8.166532271527226 1.8427956703666912 5.905105324670197
Pb 11.077568889018359 3.721781384165175 5.823737295127137
Pb 10.998989288740995 8.611678792482946 3.1060847346192073
Pb 8.922311745857595 3.616552806969925 3.1613998346852545
Pb 11.64772894782468 5.411775428659339 3.0035687639207507
Pb 9.103917351050697 6.714116101657661 1.4160872165057068
