42
Energy = -139.48746083 eV
Pb 6.923719519231443 11.570957648281063 2.5907561710162703
Pb 11.771329112711099 3.083078251364 9.132880635559308
Pb 7.028836660706834 5.986695464258683 8.296112297735636
Pb 13.849398573644757 5.414894624446857 8.520890337129769
Pb 9.527745482286718 7.407384702998634 4.985819980557886
Pb 2.8218381895527647 10.411176935220382 6.102494981330919
Pb 2.326072319808994 8.396777651224951 3.4116737598019427
Pb 11.06802168426101 10.06949663140792 7.714867627182698
Pb 8.330252555532642 11.337943254456176 9.509097513159494
Pb 1.8763106500925664 4.405488359919513 7.435105668376676
Pb 10.951856278155953 8.713051732755284 13.342765280567775
Pb 6.108554035266368 11.600872374923194 5.927739171851335
Pb 8.81608595480635 9.045765178263494 2.036665676935979
Pb 7.990286707049205 9.001448471610134 7.294364841162505
Pb 6.45337119292794 6.302417547906381 11.809530150278507
Pb 4.227783819892263 5.70441972920951 2.694467213819994
Pb 3.9038498142358464 11.156190023562761 3.230807542031743
Pb 9.011609432167411 8.23534372506094 10.82838546674267
Pb 6.224909358710913 8.699872190604456 4.3693985356015155
Pb 9.308112165433423 5.8071153937188535 13.301993836965718
Pb 4.814629356285797 9.045847420908919 8.245987321827961
Pb 8.887017008825516 3.9579878202647687 10.61519654080935
Pb 11.752235584408677 4.537420355290066 6.132416436485632
Pb 11.345804867348347 10.881887814772687 10.885633360691699
Pb 9.027944139657444 3.342034273614612 7.41763544067297
Pb 12.02510945702111 5.488173464359907 11.362724599603313
Pb 3.6365421817323775 3.199241714681026 4.943133406906503
Pb 4.9966014615530785 3.457285129340884 7.872969542966698
Pb 4.281308659247458 6.391201614058548 6.020483007564611
Pb 12.80715390635197 7.670408429073355 6.428552205327512
Pb 3.8199760371998175 6.10678314001201 9.441850179176773
Pb 9.191116732798628 10.752046744591865 4.747739015938787
Pb 6.048215704107185 9.607420308461641 11.531559942682371
Pb 1.50000549494977 7.675091340657238 7.1700097576829425
Pb 10.53210405315468 6.346701778047494 8.5077789987999
Pb 8.690596841336221 11.1274901748907 12.757749273105615
Pb 6.827862426732018 4.458414191051453 5.124414461966726
Pb 7.684871763853105 8.466053628083761 14.108436483342864
Pb 7.420660427180868 6.242768859478595 2.3718827490925296
Pb 13.151577180861233 8.359518666381366 9.747938152028537
Pb 1.3423004940702798 5.551636361445002 4.492673121972174
Pb 5.38896283443574 8.796950337998643 1.260552301900447
