45
Energy = -148.03317902 eV
Pb 8.977352398985063 9.311039201183554 6.655031036938361
Pb 11.195439187402679 9.292175271713651 4.064398444570479
Pb 5.176371517810208 9.760365479097556 11.188935862173665
Pb 10.522523514377756 9.007329247014033 12.03478928991756
Pb 11.68316622095051 3.3888361215678464 9.837219017308726
Pb 5.875235200515413 2.6348185394644146 6.151037699086165
Pb 12.798622963599511 8.638129919407092 9.593294560513705
Pb 8.517890313706305 11.387741574550086 4.037340623638072
Pb 4.789076577285219 13.180886644769974 9.838972645748497
Pb 2.606409827595687 9.99747134451477 6.121232087292905
Pb 4.13109953540862 5.314809889113523 5.647704210054912
Pb 8.05989171934406 8.100328047678527 3.529058600276586
Pb 5.721225084341925 10.921424417324907 7.462154689763207
Pb 9.236598261842124 1.323656084697962 10.445524121350907
Pb 6.07998548004348 10.363365120890254 2.3382669521127992
Pb 10.361714611507175 6.430240453280969 8.8859583838746
Pb 11.98586423349618 10.720563541952746 7.108637811691428
Pb 4.602204157832297 12.035602827142977 4.568035375730669
Pb 7.443998868239543 11.988186541238607 11.642663382156131
Pb 5.148790012716818 8.419673894502564 4.832183800253132
Pb 6.522793157437677 2.8841976104686395 11.166734165006387
Pb 9.809464271636951 6.503309572449722 14.083726444785707
Pb 7.0490633905142195 6.1943350432479924 10.150782112652786
Pb 12.13934958259183 6.021437098385504 11.781468049341983
Pb 2.89414810183455 13.102824830504357 7.121579836006575
Pb 8.337270457969067 3.5741812359395686 8.448810525999722
Pb 11.60103867754198 12.457025723614413 4.525234796586694
Pb 7.513517905656951 8.448229092911257 13.077173571867863
Pb 10.21784846153633 11.68599545549144 9.756402353145225
Pb 10.233351781155532 5.9005174161926055 4.301919759394713
Pb 2.767911066151173 10.553146603051422 9.183539210030625
Pb 6.6214643121542665 4.73568536954328 3.64677419837486
Pb 9.641853762272284 3.648602770649691 12.538036822595144
Pb 8.88565688958313 3.1140413165385574 5.247205770500073
Pb 4.710653774264661 7.736958483262095 8.217576019214407
Pb 7.262559726309979 6.120254301906756 6.493840060977806
Pb 9.256549354393593 12.774148947561097 6.727507973890342
Pb 5.931388842299169 14.18024403262826 6.654169632252908
Pb 6.87176610234071 5.2904006144496245 13.229160012673223
Pb 7.910457487638074 14.049541881918403 9.262724081780664
Pb 8.037907866784707 9.253756496128418 9.8512302457127
Pb 4.743643856903049 4.31780980698889 8.69265582575575
Pb 13.814052623308791 5.692277214975406 8.925742350609289
Pb 12.702306857831921 7.445007632896435 6.437621723299031
Pb 11.784801484208913 4.273706768510882 6.67022534441314
