42
Energy = -138.03944261 eV
Pb 11.127417517682762 7.7049956755196005 4.483427122733995
Pb 11.841643978272826 10.390683350350526 6.5286827081072785
Pb 13.189180074057782 7.344986383925588 7.347627243395941
Pb 11.15809482950896 4.9464558148082824 6.7639185739183745
Pb 13.138736232712287 4.523675232377248 9.383083522741643
Pb 10.021301088639339 10.46080033960025 3.4748581735614223
Pb 9.449894316506287 5.094139843562737 3.9767681022722274
Pb 13.74216813703869 9.983584067384506 9.109189127857205
Pb 12.924075327746428 7.391279823597927 10.769843630444099
Pb 8.570220839773032 7.64864741026507 1.9964210108271092
Pb 7.984274321920197 8.276327166349596 5.311374540977779
Pb 11.231104894422273 4.851372304558743 11.966160211540169
Pb 11.342728854365989 12.206381616841556 9.37629259482883
Pb 9.363320150151386 12.46178795980991 6.254521028254019
Pb 7.6376873027125844 10.657741223416567 1.3819476927240975
Pb 10.129220411758972 3.344643145165242 9.335180723250557
Pb 12.08918540041671 10.267143865762085 11.984707584938993
Pb 9.260104261540084 9.708558203288813 8.356993096897884
Pb 7.3038615517412575 3.91177698446548 6.024911146573758
Pb 8.515756136764226 6.1292114348628735 8.18548205954515
Pb 6.115427767655467 5.711846076707108 3.4277354773886013
Pb 9.747977970231474 7.755737602102198 11.057989440385404
Pb 6.9074425021605155 11.617224613446584 4.335284365334952
Pb 5.4701595871063935 8.921443547829465 2.90300598696135
Pb 9.635291756627955 9.519475826330309 13.997048755450747
Pb 3.256836441902682 7.290245303987305 4.525543035436613
Pb 4.116582735216693 4.579815879554727 5.813799931265668
Pb 7.953172293327535 4.7898954759157855 11.213211239931528
Pb 8.128520510610496 13.19334359936763 9.136888098608106
Pb 6.244471886314223 8.338392064104795 10.438536514911737
Pb 8.235351755092317 6.751728726209022 13.824637706868456
Pb 4.126883418323751 10.269102025938965 5.6922347849141905
Pb 6.379349436666224 10.873363269804232 7.848519457258698
Pb 8.760090770374017 11.074303561155554 11.354416443621105
Pb 5.69759468574664 4.464708583072778 8.735093359170415
Pb 5.253346224812268 7.347215019783967 7.133713372179406
Pb 5.228643000778885 11.469284987189187 11.068645919485759
Pb 3.3515232743335894 9.679382344396515 9.143656206246611
Pb 5.105914915424527 6.500861176226328 12.996897454772329
Pb 6.235597548883491 9.606495751645227 13.564824479468326
Pb 3.474010177358088 6.6049841789364 10.125632646040591
Pb 3.2463855140986917 9.027508341161466 12.341845229687973
