44
Energy = -145.22764186 eV
Pb 8.080754390579031 9.397120744597634 2.5327376972925975
Pb 9.658855098136378 6.3845173683857155 2.591212118291505
Pb 10.416947084101052 9.064578122155693 4.723258337702844
Pb 8.300225849313051 13.645299042215484 7.266088990337033
Pb 6.45330029355605 6.6731547070816575 1.6275768251763634
Pb 5.063215549607684 8.904261411063603 3.885477321972253
Pb 10.627884521622756 5.532243513942886 5.712475955065666
Pb 10.718811834617847 11.348010720235733 7.320159452814614
Pb 7.485488801034236 10.632975655526042 5.679343907719045
Pb 12.046993255086539 8.088910983276813 7.47034816413522
Pb 8.080964679685813 3.777673035623898 1.3372664340936722
Pb 7.602209698761001 7.249145695067531 5.009837627767973
Pb 5.234811050625751 12.83223846829145 8.157290639459514
Pb 10.38764204829454 13.362556776892273 9.822206307385771
Pb 9.48152311115071 2.7295715203057473 4.13254401616138
Pb 8.93897142815107 8.32982919603546 7.853577634775916
Pb 3.4687398385949573 6.2464905325407525 3.243615583411324
Pb 4.613628564068832 9.696367481028537 7.242668368136189
Pb 7.792916384667017 10.993552369375184 9.412297892638962
Pb 4.7509186665964345 3.4247730030681467 1.7717268706743379
Pb 6.865380265982567 1.119742704845466 2.642986948701962
Pb 10.986820005151575 10.162427646498934 10.473688908736753
Pb 7.294107719865334 14.121711640274091 10.352411049961269
Pb 4.245718427461999 1.4924221785989764 4.413096410860785
Pb 8.926563241994195 11.969242367357593 12.327998288955737
Pb 7.6423023496542974 4.98267684207964 7.753194507680415
Pb 7.20242558887601 1.1771684674758722 5.9355927737713055
Pb 10.970800106726948 5.621322282790456 9.216901103442632
Pb 1.786122811046481 7.64072418099326 6.450403726652586
Pb 4.495720021363713 10.65212950184633 10.43809883665063
Pb 6.315298292047912 7.804769610333993 9.724193107451711
Pb 6.450898725713048 4.084586618207435 4.397080060862827
Pb 10.081421510909562 2.8553593459442914 7.693739594225232
Pb 9.412983906730782 7.557354490119843 11.578963818376506
Pb 4.703015519433547 6.33102850736414 6.637516410938834
Pb 2.30318904632193 4.292212858174466 5.37850378835197
Pb 6.711316001393135 9.540986824103 12.58089844507162
Pb 8.631696468882035 4.363294172375681 10.970703587896539
Pb 7.277401833552046 2.068289387777941 9.099505859022972
Pb 2.0977232789689637 5.069587251864789 8.472923682527444
Pb 2.909676306633054 7.9501509634731296 9.534803938630196
Pb 4.403278686727268 2.75934364471117 7.442935496381736
Pb 6.701322172818918 6.396352938244733 12.745992058387623
Pb 5.162953565175389 4.761033679062426 10.229000521374626
