43
Energy = -142.1178168 eV
Pb 6.8510246095791265 12.27237344860282 7.7366311844706175
Pb 4.687117467119602 11.576298292919 5.492365737483592
Pb 7.972932991743364 10.630947706607339 4.701400931209142
Pb 4.525799225705323 8.558819428204337 4.4912335342599015
Pb 10.833887614705235 12.155843479702769 5.078955633258806
Pb 10.628633582391442 10.021254539322625 2.7056381250404833
Pb 2.3163663777989045 9.526567040264267 6.988596208964572
Pb 7.914724022728915 8.284110322720977 2.5008111664048362
Pb 3.5019835464014637 12.166826100269828 8.405183129169325
Pb 5.93894945226203 11.334021716587786 10.65452916296479
Pb 10.045217838673302 12.575395892650933 8.513993686167382
Pb 2.410597962865072 6.454922307694113 5.90486444250307
Pb 5.524636757719083 9.288140390936709 7.9039723037715
Pb 12.928321224825828 9.217041188980128 5.007394886801351
Pb 5.175205138685731 5.3116225979024705 4.818436590792456
Pb 12.921530244037152 11.502450069483514 7.440344811291383
Pb 10.621763791557742 7.054013890272853 4.033426866889546
Pb 10.100101599543809 9.618804534376872 7.068041767390626
Pb 8.104805260198393 5.0536407533449506 3.5018687632559575
Pb 7.5264259879203115 7.5069289536488215 5.757576137339344
Pb 2.2654908566404464 6.681100315798776 9.047962269951443
Pb 13.029270286783008 5.99055890907387 6.116032605072395
Pb 9.424977780813746 12.50379394332011 11.754855596785626
Pb 3.219412270871341 9.521795636246683 10.278587618844584
Pb 12.137166279393156 10.84101719968495 10.618251326373857
Pb 4.500258950336835 4.466393971539883 7.838860748074309
Pb 13.12904270524532 8.376630481876742 8.368405079686895
Pb 8.930569882883699 9.48590263478263 10.450906010268303
Pb 9.987035459853843 6.2509273285788565 7.706561768832615
Pb 6.93736478729522 6.363794158638297 9.384385300422457
Pb 10.606564824903709 3.922670790628336 5.390739843620015
Pb 7.573927961890947 10.440770012444482 13.471498257941752
Pb 7.5267430267097994 3.624325547184536 6.598690235862379
Pb 5.809126118847257 8.088038071346736 11.970823462521503
Pb 10.748470859605986 10.179783035104242 13.507005252077501
Pb 4.24366139060429 4.995167335949379 10.917347811462589
Pb 12.584349521523267 5.184017011895483 9.253562399330153
Pb 7.095051010606711 3.009939414294297 9.823979376291634
Pb 11.744519020759853 7.6824153808358036 11.493824158808406
Pb 9.682910281270846 4.917914288399813 10.869894292475442
Pb 8.96373507034209 7.4164238991739175 13.320016445551639
Pb 10.220013697231208 2.852426850493276 8.389998640773522
Pb 6.93690655173466 4.920764420824217 12.54913972215105
