48
Energy = -159.19835159 eV
Pb 9.938423006280521 2.6029094499691614 6.693781843206852
Pb 12.990164785570522 4.55404645110991 7.0050729483409775
Pb 9.827176728700406 3.3651433346697734 3.595975479002998
Pb 6.7363069447720765 2.9717610054870174 5.029258504977484
Pb 7.531131947091352 3.057385394101075 11.377633363350652
Pb 10.474217561793859 4.384135185577333 9.309634735777161
Pb 7.367192183180065 4.32990186074631 8.067966957352615
Pb 6.992717183151295 4.284769018242241 2.021741996573344
Pb 4.781664735610419 2.6797311427837878 9.70416900527825
Pb 4.524299553760135 3.524340681679516 12.799045312127177
Pb 10.202439776362521 5.889797336525859 6.13978841033976
Pb 9.583302510384323 6.3672128312781275 11.885030460482046
Pb 4.090080309966759 4.537459696052048 7.082949691009451
Pb 7.032407102979907 5.2139188029807375 13.776054416586545
Pb 12.457724720798483 5.486286314650914 3.7300598314660247
Pb 12.062093910156545 7.118286895356743 9.049847224120915
Pb 4.395221323397764 4.924989440953147 3.747243971660945
Pb 9.651239313675672 6.283160464881776 2.0755972695747444
Pb 6.084460262071645 5.956403950330327 10.74763247486303
Pb 7.196521476404237 6.201368830469442 4.8642949323641
Pb 8.70301731057134 7.444979000348543 8.765302789470189
Pb 7.01538803588139 9.996889686878278 6.563688656707917
Pb 6.473100523797179 7.504860027292563 1.986783589779949
Pb 2.8152355246669454 5.2033077760756905 10.484076482769746
Pb 4.533453511085792 8.152451903941136 4.696399180579111
Pb 9.496069613129324 9.050157751321583 4.520818139760264
Pb 4.097775611716232 6.883000236296526 13.119741176639524
Pb 12.950035078190446 7.809446960774186 5.957607987441462
Pb 7.238344607022053 8.480152988055698 13.320969430158614
Pb 7.277808415895012 11.120362201799212 3.307442740040254
Pb 5.4098488414395876 7.397429178361855 7.798430061797813
Pb 10.643022130234561 9.936490671095918 7.836089076738585
Pb 9.849305059167254 9.553678348389166 11.16318380776288
Pb 9.097164511226678 9.42982776754605 1.1556663575255406
Pb 9.263994753615878 12.361242552903477 5.6137172727153635
Pb 3.114339942089876 8.629320359460376 10.195005431850582
Pb 6.372002316856637 10.045250448322461 10.06694369684562
Pb 12.108068317967888 8.753875778232434 2.631222471126358
Pb 12.24565133259775 10.99963967897243 5.101005931061785
Pb 2.170030640325974 7.035669146408969 7.519904793699456
Pb 10.393983413265383 11.905624871639295 2.652380117160347
Pb 4.645018440417704 10.569875486341576 12.789076409153852
Pb 3.5723239644141445 10.262102803247563 7.179888388048029
Pb 8.632742683384159 12.462465964249084 9.707270072831722
Pb 7.884289605745343 11.625529539406857 12.780951151694437
Pb 3.280086398630432 11.873467614650048 9.979944036279937
Pb 5.798457214454711 12.750103915340771 7.96302711647529
Pb 5.822511025305312 13.39563302715777 11.183356370174756
