40
Energy = -131.87962671 eV
Pb 12.759100279422352 8.194861417008667 6.221502121230191
Pb 13.283589617752455 9.933764994427856 9.072080922994717
Pb 11.404228311248055 6.533104935636945 3.629482354276002
Pb 11.710812916846699 5.0616991401328955 6.430313647591609
Pb 11.856501449805949 11.401096491426795 6.579635852145339
Pb 12.295012795810132 6.777267652844597 9.383242673142577
Pb 10.93512686080124 9.825288731555128 3.7068941195651686
Pb 11.3076300276023 9.320313399336074 11.480535589882495
Pb 10.16437921531109 4.235210133730867 9.145230981176802
Pb 10.668652425786473 11.90596293842922 9.518805031320642
Pb 8.445160620407053 8.00535067734312 5.340765263881333
Pb 8.45679397040445 5.042211348702967 3.9266791264331875
Pb 8.864315955248928 3.155375962507852 6.509224861992219
Pb 9.94530360306678 8.902438359087954 8.298297986357996
Pb 8.94929681432315 7.737766904379279 1.9504661981169962
Pb 7.614912834089618 5.884072106855715 7.980093913432366
Pb 8.580936231304268 11.176208887743615 6.123543321102403
Pb 9.144046290206433 6.797715774453884 10.928107024828368
Pb 8.297574032249964 10.307786623824635 10.953661730729474
Pb 7.851966099397083 10.461465751910271 3.0703538824685155
Pb 6.182738417358255 2.8129580290875564 8.410303309364489
Pb 5.927925753788667 1.822915385428494 5.1431456037226315
Pb 5.843288569104577 4.932035940169964 10.810461897943615
Pb 5.874046250464344 8.096573443672074 11.260571801546249
Pb 5.51411437678179 3.954668432826398 2.6822232778130792
Pb 4.6150866984598675 4.886347301855039 5.69505662444392
Pb 5.905047920279433 7.3128684385250535 3.1622392920270737
Pb 3.1974958458727563 1.9561286771354882 6.985217208335315
Pb 5.349880909544462 9.611897926045456 5.348997543208751
Pb 5.9703420002082455 10.181084984015714 8.564517302946918
Pb 4.491488894208976 7.158328992984728 8.265249469499249
Pb 2.843450959510299 4.193332724080117 9.233364391736195
Pb 2.884819527547347 2.3501896797788047 3.88300945038743
Pb 2.9413350172244326 6.448152277540823 11.43665012262264
Pb 2.5823375319549386 5.387098920737583 2.9894280912293767
Pb 2.9571700713159874 9.43738735312139 10.389752942661477
Pb 2.3763222002198847 7.670122971135303 5.144051619332992
Pb 1.3266754276713277 4.490000033069275 5.94628629294356
Pb 2.726602187135313 9.944795058213078 7.299048678325001
Pb 1.2351553470569159 7.203443104779655 8.594694103755213
