44
Energy = -145.2364345 eV
Pb 11.99495790736594 4.2047905456849035 6.3423542878962405
Pb 10.70788636591903 3.881580018079998 3.3532471985182335
Pb 10.847512006300446 10.715927006260952 4.233652982469761
Pb 10.602777306801528 7.088290254402504 5.041154796762549
Pb 11.99190791148427 9.249794721523612 6.9830039789828415
Pb 10.743637818153433 1.26166644754728 5.343796066144417
Pb 11.46003460151854 12.452612500401392 6.958339056804791
Pb 10.9181767059699 5.106995329315066 9.334348354097362
Pb 9.102829818845859 8.083475977105337 2.3963461306141527
Pb 10.284651350035633 2.1107096337883027 8.406482975213443
Pb 8.997134213649241 13.361342250378957 5.09517828749401
Pb 8.731243764915753 4.085928768050029 6.13040796532874
Pb 7.865048686589613 5.119683234366232 2.4088123229008325
Pb 8.740033208851608 10.345633064950995 6.714981752734658
Pb 7.31339530058165 10.981754699156273 3.3995336500010502
Pb 10.518538970510177 10.647867044497705 9.511968958365976
Pb 9.032951094766332 7.460606377163158 8.37250010017381
Pb 8.513893236951787 13.099496438106367 8.376501121265088
Pb 7.793584638794525 0.842775913701125 6.673610943306044
Pb 8.023386839740263 1.9071344993476127 3.5378416123344425
Pb 7.305937647095734 7.849407841330559 5.103523092449907
Pb 7.924354607983849 3.930025793892623 10.02844297399829
Pb 7.465488048574688 9.576691392296503 10.499058592291181
Pb 5.861611078826164 8.193606392282629 2.171605778877706
Pb 5.165146077690861 3.618013755917585 2.449858381021873
Pb 8.442853917476146 6.705805817934975 11.755123410829388
Pb 5.44534674329861 11.890967738161065 9.221442109880035
Pb 6.166937983429007 5.629756243657188 7.3594141031397955
Pb 5.330997759594646 2.757570404616083 5.461906702564385
Pb 5.359286423883022 6.7811785904799775 10.270086583912443
Pb 5.849098563331983 12.565940196795124 6.004340949235106
Pb 5.40512998619531 2.6671983118135176 8.651165944799468
Pb 5.9144180126766885 8.217080378127225 13.27487108344805
Pb 5.307434984077009 9.02067811030735 7.675486497191068
Pb 5.715773448845915 4.96447778098612 12.893216912859728
Pb 4.5882065730298836 6.08420633278723 4.396107635515809
Pb 4.324985551964198 10.03795300628879 4.4001896473872515
Pb 3.830713901672822 9.638427924092099 11.090838287417242
Pb 3.152246136030954 4.343051463711201 10.715626139472482
Pb 3.023361332984142 5.026755992836242 7.469577199759935
Pb 3.035995832459496 6.856638205586074 12.792429072567023
Pb 3.0145043446177344 11.224512473267064 7.181146532977193
Pb 2.4224556995475495 8.073792752619148 6.374921467302672
Pb 1.9765268798997315 7.334265468014801 9.614433704519321
