47
Energy = -155.54358291 eV
Pb 4.193442970695576 4.954184036094568 12.808562098170365
Pb 7.094065156089598 4.262495068748168 14.108469720426616
Pb 6.300705000510992 7.380506212676951 13.5382384809406
Pb 3.034837535800888 3.547256580667455 9.946916787585137
Pb 1.788979681799519 6.637128797238949 9.48926657551984
Pb 5.871330343961003 2.3349828877385668 11.843728270693642
Pb 4.384401051466231 8.240759414641847 10.77403301471939
Pb 9.367654772728358 6.275067058989932 12.91251400123928
Pb 1.3132624660039665 4.469380925872481 7.107964653137557
Pb 9.063076324859136 3.2086931275078543 11.777753748072621
Pb 2.895515572189979 10.321564855922501 8.433483206729639
Pb 5.132165342421703 11.370402076126734 10.520675614792257
Pb 6.830026017325329 5.462414470189541 10.84705292898824
Pb 6.49593829746152 2.884822628665609 8.602382026270208
Pb 4.4915006839827285 5.640174457247191 7.907151418401618
Pb 3.755984723602597 2.4125818329365223 7.045920054850203
Pb 1.9893381186555126 7.569020991318775 6.2642902734535175
Pb 7.839180108598087 8.872222639182713 10.864355326035518
Pb 5.948828101444852 9.221472771851037 8.012997265589506
Pb 10.243070405282518 6.7463713400201275 9.733513033895882
Pb 10.246449409016948 3.7768320430451223 8.607062174808899
Pb 5.442501968091144 12.506175087007268 7.34219031791627
Pb 3.6429856932332307 10.39948513448566 5.2177935507463635
Pb 7.87775248854563 5.60879849654964 7.448721270981382
Pb 11.13936459808259 11.521353839151883 8.21036243468929
Pb 9.1169701704359 9.054759971751995 7.556983328412739
Pb 6.41101968156542 12.089992355052368 4.207161906778211
Pb 12.386193090888671 8.523905476423556 8.070619049672851
Pb 5.52383968765848 7.454725246964266 5.218163740427815
Pb 3.525684326572276 4.794490156534213 4.70905859884046
Pb 2.9993169683108496 7.664349028274737 3.0796182188523424
Pb 8.01927501682098 11.837637651466647 9.18776367843251
Pb 12.071799928103188 10.434229581476586 5.191714034903995
Pb 8.106444505712137 9.132054839248301 4.25121989829461
Pb 10.54503937395476 6.927331731195754 5.547053628600657
Pb 6.942078287019215 4.586530452518924 4.402947131035891
Pb 12.79100344203637 4.882119864025513 6.763438297235089
Pb 10.017854853150782 3.6341189605769104 5.315063235272004
Pb 5.366708179678223 9.753569757011224 2.3536729234227916
Pb 9.127820917133684 12.299332194076403 5.8055563832574455
Pb 6.1925376698594805 6.673006824199507 2.002953110099695
Pb 13.848248253970928 7.612623421344002 5.245297749409318
Pb 9.502097049420271 5.739542936966308 2.5134763345383386
Pb 9.946127871184522 11.198701390414353 2.748976222716741
Pb 11.800676396963219 8.2713119466233 2.6131417347115504
Pb 12.57259064853883 5.085631776260163 3.583882125170912
Pb 8.735053611043833 8.66983971209203 1.1156117672331136
