43
Energy = -141.54818068 eV
Pb 2.9362005642104005 8.02101358045783 11.157176068913456
Pb 3.9505326963999536 6.648955419391863 13.916802682316966
Pb 4.291146711057813 5.025273143063226 11.161219200269024
Pb 6.841170011151621 5.077469148562123 13.212953381997192
Pb 4.604955629958748 9.791536213486252 13.37781044096316
Pb 6.682632551597369 7.80090301221772 15.1473455337735
Pb 4.387212469360629 9.974046724667156 8.790865283410847
Pb 7.004257931105064 5.149791346798876 9.224313786346476
Pb 4.362604798407764 6.830390714587522 8.335536380808739
Pb 9.486883306238946 9.180131741003455 15.89746837437452
Pb 9.539733335569224 7.317031405831134 13.424367389205626
Pb 4.872351869079738 8.961164484931844 5.490048382633775
Pb 9.84864337204732 5.714408199204106 10.546241134364454
Pb 7.8207010966469745 10.602126437093725 13.367041851868148
Pb 7.046159325222305 11.264931515328128 10.163396210474342
Pb 9.60307042171889 3.705247679225183 7.305471655484321
Pb 12.690423024383795 7.330072335053961 10.246405166894442
Pb 7.351218601173514 8.524985289855664 8.05324416723269
Pb 6.905966525324486 5.9893813969048235 5.919572256562977
Pb 11.047337316171317 10.563312153860306 13.524874734839223
Pb 4.411303875702632 6.2393273711569455 3.9180075083584747
Pb 6.339152081926406 7.815015356584822 11.448974471933784
Pb 6.3803628565594375 11.687413176091896 6.684293107377511
Pb 10.068152219498705 12.436590310115218 11.0666814334645
Pb 8.580321831881612 13.464779120266778 8.35423105695322
Pb 12.289591909063317 4.177519284656846 9.001159360290817
Pb 4.803101247706742 8.800546451906108 2.1070414304633514
Pb 10.631606824622063 6.850421631319867 7.396961558255743
Pb 9.705453005601267 9.115561539967143 10.60485189245116
Pb 7.306090013947959 6.566621183878483 2.61975758613421
Pb 6.375985913895804 11.439900260027445 3.4559495333730843
Pb 9.08106607004572 12.827369569439288 5.244073840365523
Pb 9.795325596913434 5.291771055375995 4.33661989402195
Pb 14.104908102144336 6.36019855721296 7.325996657024103
Pb 12.438334895088435 4.154226424730334 5.758227518225673
Pb 11.48095191504146 12.280106080199396 7.68369342771803
Pb 12.604670207040877 10.630318208331568 10.4514229621913
Pb 9.670798557832322 11.476973833801994 2.4496158486737634
Pb 7.788629375026543 9.380597345182538 1.2707792685799542
Pb 12.280320004608404 7.341836436067448 4.607554595097033
Pb 13.134354978416487 9.425312368279254 7.444886703636656
Pb 8.720562131345972 9.028588186732675 4.6402666609083765
Pb 11.701051143926767 10.702130621813005 4.832095916430225
