48
Energy = -158.65563626 eV
Pb 13.294717329104268 5.235779729046047 3.4327337485064637
Pb 14.783393825167883 6.86262498401145 5.718961305826168
Pb 13.410909951310114 8.646995770056549 3.296154455579081
Pb 13.508647302889507 9.832973440965436 6.900103343418104
Pb 12.790814764883118 4.328216575449947 6.724624014495459
Pb 10.682097982780162 6.499387332201464 2.1941808875443267
Pb 11.750599641640614 4.050757558320174 9.994968105922492
Pb 13.40240587541588 6.968203381355284 8.826264870969075
Pb 10.242044858802315 4.1611019948596075 4.607090378541387
Pb 11.435597419087799 7.226916209245276 5.4451651253009565
Pb 11.644686078058326 12.561482397267469 7.567318317015233
Pb 11.703690620777499 9.846860465048852 9.760641275498672
Pb 11.821244103354424 11.44222248984793 4.56607438257926
Pb 9.910851748074785 9.40290396572575 3.0902882531420195
Pb 11.161426354170958 7.003822826903908 11.46411863483706
Pb 9.454171170688296 3.0867590025031637 7.802566369099032
Pb 6.834056168021987 3.5647338799028163 5.745347726266936
Pb 8.660387119743927 4.361116119962801 10.801385727375383
Pb 7.518707670969681 5.2760313730333115 2.969054894637091
Pb 10.156327926368718 6.32989800575203 8.274010433074166
Pb 9.810070255816285 9.875776537409276 6.816152275953966
Pb 9.066037485923136 11.856893030394422 9.921339477742892
Pb 8.518613467595472 12.813446593389832 6.773945330733958
Pb 7.784337408701694 7.491744692078527 5.316350184943807
Pb 6.37406120905528 2.9234704238292983 8.99696583946919
Pb 7.2883298253026565 10.752748783173363 4.3932038726011315
Pb 6.021539096431286 8.106890963351532 2.640813271629217
Pb 8.088840028027459 7.1557809618830515 13.250977922216931
Pb 9.172666979084322 10.326899726468246 12.871154734845964
Pb 8.600220684329694 8.48254948892106 10.177256139565799
Pb 5.930870900753594 12.909453179500641 9.281334427619445
Pb 4.603958543234654 5.996190646506812 4.757483690568001
Pb 6.370136327927983 12.033814889647077 12.65310747256013
Pb 6.709520131569876 6.218308150774349 8.262019687733815
Pb 5.016924671221974 12.386492280321535 6.1502634234829205
Pb 4.07198459526787 4.502624450916602 7.499980211269149
Pb 6.377086649006348 9.854085971430003 7.933780266584951
Pb 4.467607775551648 9.245098264394944 5.237480703646325
Pb 5.009901699188305 7.0851709272417445 14.33825627010691
Pb 5.5948413587364545 5.583299519659527 11.352053203434316
Pb 6.730385896216193 9.698716578328954 14.905483478338404
Pb 3.394389259447264 12.493569688161962 11.42771600059957
Pb 3.258311679700857 11.093895181649 8.473553251550097
Pb 5.4933685213019645 9.076648074782968 11.36048121883124
Pb 3.6527602684348257 7.805769644444158 8.775040062851918
Pb 2.7784902198703834 7.177765711098244 12.061948195626426
Pb 3.5670298000548994 10.13696993102864 13.825655893639757
Pb 1.6586557795784995 9.804856636396275 10.942869670866049
