46
Energy = -152.09487338 eV
Pb 4.455097704034443 11.70451064979659 8.459066940581614
Pb 1.8515013157760292 9.618665664394083 8.057878274620634
Pb 7.559857014235169 10.04925130624816 4.070662535977664
Pb 7.703547543105901 10.738967509533857 8.986447001775232
Pb 6.2220380631803565 7.815436973716182 9.85259212222748
Pb 12.323189807736242 3.3373444694262564 6.118014091724277
Pb 5.773108220855671 12.452102423286805 5.3758081849349315
Pb 6.925931004875255 6.229192427014586 4.290494921889461
Pb 9.702683576252578 7.906211551017102 10.602757983270623
Pb 6.535725777145365 7.746495461792561 1.4997167525884354
Pb 5.551752204321422 5.717616273615989 7.2352014256577
Pb 11.912031839166428 5.3901170434426975 9.108962480216901
Pb 8.486250907526362 8.353759836797291 6.696425957460959
Pb 9.96935067066551 13.341743631682574 9.179506187946146
Pb 4.500323153124717 3.8996757373646562 4.552814125507397
Pb 7.165714795710462 2.6643290717340173 7.905745502649637
Pb 9.010465872919987 4.947046946484891 1.7829570237104653
Pb 4.044076835556511 9.942157052773098 11.272199434825248
Pb 1.7760423192754489 8.777117217640582 4.807095379037663
Pb 3.9110523438810043 6.714876057594653 3.1232548975649563
Pb 9.792586859724853 1.1787035378013622 6.042040114170001
Pb 10.587350151288307 2.327996352584973 3.150271638235384
Pb 7.6294172908512845 6.09051588733623 12.545372267101532
Pb 9.988950738442046 11.150501161930038 11.466026554703475
Pb 5.73478702793816 4.564838100777367 1.5081974818554709
Pb 4.36401246424233 10.092860203839159 3.2567569646498833
Pb 9.143168525079801 12.105438268650344 6.235311774401838
Pb 7.411933759886861 2.7143659617589257 3.713754906305635
Pb 11.490634729024219 6.8139751082544295 6.2063559480561485
Pb 7.359798236397129 13.019759513619961 11.242664281014534
Pb 10.44315819446414 2.505885850797994 8.903589199850826
Pb 7.02262930402844 13.931304912781112 8.046896521869346
Pb 11.946667532760284 5.221206515063262 3.45163568781081
Pb 9.810399598823853 7.780326363807845 3.446280823436807
Pb 4.603391058839022 7.088665747304356 12.792811608773965
Pb 4.849339997099968 9.081937905629319 6.414756854009432
Pb 2.610323626536188 11.720126412701452 5.726870262973331
Pb 7.108242332640634 9.717393577244257 12.445005724875584
Pb 8.55015053029484 5.308221278097803 9.082895457704629
Pb 7.7713204948894425 2.7720235527686206 11.13618107066499
Pb 5.209675900167488 4.77945918580165 10.44989151577206
Pb 10.939409328546898 10.297546170639505 8.393016155449763
Pb 9.256586412105326 4.453144703965133 5.91714083054956
Pb 10.364980669967757 4.50209350472713 11.800409557783123
Pb 2.7648137263930073 7.133703649385184 10.16287285145145
Pb 2.404566668677175 6.507628623386321 7.047017248780976
