49
Energy = -162.3146457 eV
Pb 13.821425127532244 5.465788441786722 4.699145677984379
Pb 11.65526674626885 3.0682300387700465 4.423161466377087
Pb 12.237543198631254 5.192891406511271 1.872969387131637
Pb 12.010632576380285 4.938448305275903 7.435514220061359
Pb 12.581879629698939 8.140475018675334 3.240721784673251
Pb 9.145113716704733 4.011459888318807 2.0113282700326676
Pb 12.74571928799698 7.984104337237827 6.447431875518993
Pb 9.822206789137315 7.358698498924917 1.6035707350738995
Pb 9.636234611045158 2.4412876394493686 7.390304398045829
Pb 10.370084212750157 6.160351789116495 4.667521682070355
Pb 8.790615855587157 1.588543748378777 4.308269959217722
Pb 6.447381508759925 1.4511236993152676 6.355751707755397
Pb 11.577206979450967 7.6951271354917985 10.351483063179096
Pb 6.115300671628669 3.2217668481626482 3.3882019598626276
Pb 9.413345282474202 5.068871376290957 9.705583695099756
Pb 9.658882832853536 7.866776003575775 7.582827891346528
Pb 8.499231076307849 9.18943866981224 4.079158373278286
Pb 7.502940272893698 4.614474263651424 6.036402388322121
Pb 10.406744376553458 10.9367291883984 6.018592093510993
Pb 6.8944543540890155 6.465021439405374 2.895535404168994
Pb 10.802469424637533 10.699882440058145 9.171342678388587
Pb 4.029372541633453 3.5939507708815923 6.854238655357841
Pb 10.283277575722446 6.102520990190153 12.864040776357877
Pb 6.57526606075496 3.1515771394509584 9.037159603665435
Pb 9.333271233755763 13.473410215607155 7.792891045390296
Pb 4.0750488505728235 5.741439376595024 4.448676670040473
Pb 5.485486486551491 10.302684787750614 3.9090008370654536
Pb 7.56665925272384 10.506025320741566 7.978082567185672
Pb 10.658485314682451 9.263588048707058 13.402296921360325
Pb 6.172792896676137 7.7829680875215335 5.941171066655311
Pb 6.56660843609468 6.526508361865865 9.036424718524676
Pb 7.986961806486928 7.618102701448456 14.475353595991047
Pb 8.438793889083007 8.537560512399587 11.08952385569512
Pb 7.0945536634277415 5.47042878771537 12.241872229278862
Pb 7.367983920601727 12.538767526428298 5.4407385050564185
Pb 8.419406670777283 12.341185478491656 10.702326741500189
Pb 3.8558084049581 4.940785859839702 9.84808170306136
Pb 3.011075250073484 8.773043744116652 5.326665522290041
Pb 2.143247975572571 6.28359183540323 7.318019361493181
Pb 4.4079572522066455 9.272538404928737 9.04603675245362
Pb 7.649838321981375 10.638511512097985 13.567193628051363
Pb 6.103573708714853 13.524618820882916 8.56102006885496
Pb 4.038518546352534 11.780741795546088 6.421559500245989
Pb 5.325315531273943 8.328444481752795 12.33118673931496
Pb 5.285486338992678 11.576788835545969 11.44277370143705
Pb 1.9279894663399988 7.403608084634662 10.357820828428281
Pb 1.3130820379292438 9.775901216878086 8.087617128204114
Pb 2.932930211919103 12.548473732249194 9.25986174338742
Pb 2.1079939841913142 10.310662565097601 11.296485602877443
