48
Energy = -159.08324998 eV
Pb 10.951869314381396 2.305575889362558 10.042642234374949
Pb 11.121099018042454 1.906542893493068 6.710402595921515
Pb 8.277848980593847 1.2745021538073924 8.397415904085252
Pb 8.0622579647952 0.9073477925102021 5.195534984809725
Pb 12.825250494217658 4.447422897544083 8.530550018496502
Pb 8.119430685327737 3.5578796364557457 11.166329630221318
Pb 4.895851209940472 1.1875618960639134 6.320056691005861
Pb 10.811791168422152 5.471021931667693 10.86666149232685
Pb 5.418977614272347 2.618193784104918 9.47624298678455
Pb 9.796572749615104 3.2108484362145315 3.8166900203481515
Pb 8.157138593702593 6.81010031638582 12.653548926799584
Pb 9.462489566057544 4.525303079404184 8.007259760085443
Pb 6.435280389618805 2.767316131895595 3.010311818352849
Pb 11.931034292329299 4.933343026908483 5.525363746575604
Pb 5.3298299744901065 5.405049038104721 11.986418750219547
Pb 6.5736974035753155 3.873586038060133 6.267246549763763
Pb 11.440001595715177 7.608217665487383 7.716454366615534
Pb 5.34513313654756 8.581729788058786 12.915869269035934
Pb 8.115373038360286 9.92783242243368 11.849623734354068
Pb 5.5755217481103365 5.9791357168194255 8.743021009255612
Pb 3.2749503656877264 3.7619981438666885 7.480860857471406
Pb 3.6291365587038342 3.7521932782892575 4.325946023771392
Pb 8.563236279965311 7.570895917433129 9.373912749817872
Pb 8.487945478874153 5.439055266260172 1.9526878983742786
Pb 8.730905833472352 6.2758629272872115 5.08857450102058
Pb 11.336724583380967 8.320656524341874 4.428347384839479
Pb 12.012968768340071 10.754311442891897 6.446750969478222
Pb 10.242634838461752 10.646039042892253 9.226208175119213
Pb 2.7011254650967276 7.001357126706785 7.242639755773756
Pb 3.247626287885959 7.420096417141915 10.687954706172883
Pb 5.571639507300043 5.965282022842314 2.9545157222214353
Pb 5.64727162763174 7.517202589485833 5.7718443702893945
Pb 5.705192088263383 9.419796601852415 9.808778689270028
Pb 8.740953221431234 9.557360438115827 6.32786246391185
Pb 2.841848479014106 7.134620839728967 3.988779740930249
Pb 7.580273387626348 12.531424707950737 9.66189817169772
Pb 8.194616429794335 8.791446523143572 3.0385132031359
Pb 5.231035177306347 10.73145008447037 6.813217618727286
Pb 10.290270637525454 11.444758999085284 3.87611232713875
Pb 4.860357541146657 9.795802373888764 3.32817090825775
Pb 9.427753429377653 12.852026089434307 6.855139265684936
Pb 2.2478453812580543 10.137615420496607 5.473592977914995
Pb 2.4234674841155845 10.113991102387905 8.78316212017611
Pb 4.355976710480023 12.540247971859417 9.816746988260244
Pb 3.9714492297086093 12.764073360524213 4.370333807070651
Pb 7.201082081650808 12.11430927954957 4.26962151472435
Pb 5.812167382817531 13.887556024101086 7.0461933402229
Pb 2.5955716045707438 13.098938003901898 7.1954794326712195
