41
Energy = -134.85070324 eV
Pb 7.088558514247914 14.021709821846839 7.997982831847433
Pb 4.336031743844696 12.230335009469757 8.336660807978554
Pb 9.194217002649639 13.513590263265113 10.814301824794821
Pb 6.671509047785745 11.119862993092461 10.695042778742001
Pb 9.228092381123865 10.606550920460128 12.722516418149674
Pb 5.202059678025597 13.380228468489992 5.352558570341893
Pb 4.094327987603821 8.724408680710685 8.557017875363789
Pb 6.269389045020445 7.5682048573473955 6.12621153364156
Pb 7.211686915275224 8.168632223969126 9.432891992851445
Pb 10.325552552571915 13.08274897655703 7.651340888159146
Pb 7.045276913179279 8.173702573032834 12.6923689455421
Pb 5.01077539832859 6.101188506811009 10.935958667265407
Pb 11.489489119444594 12.655590480396446 13.039945290291351
Pb 4.01702637608701 10.395285174032225 5.6489305526798645
Pb 7.157310284958824 10.837090144806393 7.194439176787052
Pb 12.356169414817485 12.502216484701501 10.10024758350918
Pb 9.944360870860011 10.323230913389537 9.35928588180733
Pb 2.891541249690043 7.439695205529378 5.690085476767313
Pb 8.003235894711544 4.674461676659779 12.227559006193758
Pb 8.312957734831194 13.295475316256669 5.045560859399923
Pb 4.0321114615312155 5.373658234700285 7.838026311009139
Pb 6.763357081226139 10.636354583342213 3.9702055195216595
Pb 10.084320806649957 7.277479746105111 7.54258169017102
Pb 10.988366994745737 10.084299600485306 6.096186433749817
Pb 5.633664495434875 2.861612279120026 11.180956517406981
Pb 12.299688679193 9.599165610159568 11.566515800447721
Pb 13.048465678356502 8.92882118378344 8.286399481563631
Pb 7.160835817173745 4.690253040803855 8.779390594613647
Pb 9.81928321032532 7.473255059974733 11.253515919521549
Pb 8.64575120289119 1.8994510730854344 10.474733471875703
Pb 6.9509846623038 7.467692628797718 2.9345384506943706
Pb 4.737444782654062 5.459061125685059 4.02002489761763
Pb 9.949955956215446 7.532415949967445 4.230327184307875
Pb 8.022834655416839 4.63528675738971 4.330036282564052
Pb 5.661984040210505 3.157620880743541 6.059545103199098
Pb 12.956325122203824 7.3871922335592615 5.40327120617665
Pb 11.133516335926286 4.6675788760251224 5.578407548007229
Pb 6.274827063349385 1.2360829239313087 8.48959895589468
Pb 13.016229360023205 5.685578562195 8.068453123975717
Pb 8.9647802001307 2.5456908690699542 7.075297920183919
Pb 10.32294451728935 4.496915510129837 9.592502557992029
