41
Energy = -135.039369 eV
Pb 4.253286410814936 6.234453763030236 12.460494447461176
Pb 7.26208895977793 5.412843441720149 13.294839345780025
Pb 9.385344545891344 4.523062171587942 10.575782264888973
Pb 11.099602006712665 6.975627416700736 11.70541200071696
Pb 6.122998105740958 4.300766165090024 10.462143573003843
Pb 5.780377546682642 8.551818900324102 14.024979111242887
Pb 8.939940644779973 8.584477612584543 13.595563025763212
Pb 7.215563471583308 7.476380345516686 10.843473182827767
Pb 13.937573491154724 8.673041938253705 10.914663727353952
Pb 4.235531686962716 6.776011325245659 9.276925619517014
Pb 8.835940432907341 11.962310743693166 14.021058603170966
Pb 11.237095942237739 4.005205300035174 7.606835850768995
Pb 11.47719998898485 10.230796707165348 12.187307729830602
Pb 4.232792860582757 9.525413410617654 11.374391678618817
Pb 7.991749797204028 4.433844001250617 7.677975332233346
Pb 13.07719332738393 6.181737342066828 9.075459999410805
Pb 14.294146094233348 8.979161340535308 7.634029658990652
Pb 7.633422960135351 10.839447117645813 11.195904334713711
Pb 13.096523187633794 6.245255849483953 5.782985937357897
Pb 6.465629740267399 6.107098892080972 5.090781895033339
Pb 13.133405393589436 11.470261174322909 9.492802424451613
Pb 13.372707740700392 9.27623948817633 4.407324309917231
Pb 6.917152711244243 8.161955756105819 7.468902766653993
Pb 9.806601329735413 5.471851087524008 5.042824429672428
Pb 11.574883191738403 7.032708513259255 2.911316693288108
Pb 5.504647689860295 11.934490945098267 13.507437791400841
Pb 3.8164151665115704 7.4872935314012015 6.264329449456991
Pb 10.005319044979961 7.017954520968261 8.411474861376226
Pb 8.10794481441309 13.51289381072835 9.065035464925819
Pb 12.203276860555484 11.388154927095561 6.488363243092997
Pb 10.436464165898053 13.11099464145785 11.18844023868465
Pb 4.396118012131514 10.187034771472991 7.937828922927499
Pb 8.33785714322799 7.974077747378451 2.918506335007471
Pb 5.074197783294535 12.727064865499417 10.366478919235817
Pb 10.833823292612559 10.110691068342396 2.501015761827733
Pb 5.614981989730217 9.476373028761593 4.517741633598713
Pb 7.090183812236392 11.432639365292465 6.796082062038679
Pb 10.017768884617137 10.489175449170155 8.946023229209084
Pb 7.435937024047717 14.157200389852472 12.178267586353538
Pb 10.143721956107244 8.975957344545908 5.556335972915782
Pb 8.190823595428895 11.174466593250136 3.8206933896106854
