48
Energy = -158.15586387 eV
Pb 11.382465822436368 3.439429318182476 7.386440762959522
Pb 11.283337021400223 6.069474848123196 4.4359163405298885
Pb 13.843923251706569 7.945655870306001 4.887443755219663
Pb 11.270840697701159 1.6266055559912165 9.962080809118495
Pb 8.374956089898262 6.983446290161317 3.29355204941356
Pb 12.334964783757059 6.5204069170723535 7.624524429840349
Pb 11.099571418234598 9.34641203843166 3.7543403897587346
Pb 8.575806881423294 4.703005365113948 5.888688059537767
Pb 12.806034701438973 4.273412651550376 10.386372481887538
Pb 8.402758527081264 2.622075546382939 8.616500701554607
Pb 5.529352211292755 5.345373689522396 3.9736770174057012
Pb 7.44867177755822 9.955350971582572 3.795938072570785
Pb 14.922577133921637 8.633549805187062 7.775027948008812
Pb 12.662702940166021 10.58919765587562 6.469321985185087
Pb 5.451245519913453 3.4412922022007253 6.678059996536565
Pb 9.416081111249879 8.162914877395856 6.3805821792427135
Pb 13.815956395255558 7.403914894754066 10.489648261174976
Pb 11.018387669430213 9.228052056678232 9.382919309141572
Pb 8.90076765422727 5.967772950838094 9.033469685330134
Pb 9.46482115256992 3.747008156448716 11.443467297041197
Pb 2.7811020004267983 4.116979923482497 5.199207683861611
Pb 9.594082594437948 11.765305152078648 5.56037531399807
Pb 6.022979961635518 6.849937845492859 6.787946978479136
Pb 10.839388892305623 6.663819916807444 11.811477765497571
Pb 13.74031762290422 11.011565270655119 9.76961455448344
Pb 12.42305048657529 9.595055440208847 12.479923405378592
Pb 3.1016936487604245 7.212213894588005 5.1022787580471975
Pb 11.122577664044085 12.957272981650192 8.369573679329468
Pb 8.325892743142726 11.545330535122853 9.602949290012475
Pb 6.76100665801042 10.183135547747678 7.0886868453443315
Pb 6.415153869183713 12.812227529859774 4.946601311776133
Pb 11.029907923614884 12.275565770626343 11.600298451939121
Pb 3.188089364783665 5.578676064881772 8.13416326675864
Pb 5.972139380626306 4.761355858519899 9.80085505396784
Pb 6.034203489116568 8.318898091446414 10.00032398832525
Pb 7.328289263580909 6.430839807785644 12.440241506748363
Pb 8.892372300264562 9.432830530851597 12.05222723676169
Pb 4.235188672917966 10.36762542930038 5.132776522138225
Pb 7.794886771660184 14.124706738180558 7.569980782251519
Pb 9.206249292430034 14.685134142719184 10.592303217410473
Pb 3.3994126208627162 8.991959930631818 7.944582842699056
Pb 7.528227645659813 12.463339754716161 12.60217396113554
Pb 2.760264398711083 8.987504322038447 11.137862940781561
Pb 4.6044791466222605 12.730740924853983 7.68030486891941
Pb 5.4492133207999585 9.271463775070957 13.088070514622277
Pb 4.142451776193052 6.380016188196611 12.032300553059706
Pb 4.615955503389366 11.501469801628678 10.773822969831697
Pb 6.028138257065365 14.322615199446354 10.383042235372278
