46
Energy = -152.21680156 eV
Pb 12.30175621734208 10.77555007076207 9.15608581452943
Pb 13.592624408366353 7.794838133107732 9.782704126396274
Pb 9.436648808745776 11.51840802754436 11.411596593942646
Pb 11.62976972944628 8.944155394442241 12.20535637955834
Pb 13.469187535392003 8.482950209829857 6.6676945946520805
Pb 11.613502203726881 11.298923790406766 5.990863932204606
Pb 12.550488911407582 9.162236987763203 3.6784578955617064
Pb 9.432404333620013 10.030481384375198 14.50334072315552
Pb 8.68522301844005 12.165478780154046 4.960715206631625
Pb 9.857861765443461 6.833159964644221 14.296833844855657
Pb 6.435242317059305 12.419513775512604 10.105328637735564
Pb 8.661373011306328 10.80281378281567 8.073067645730985
Pb 10.759354859251106 5.929501956756614 11.294501354702083
Pb 10.503964920130164 8.178191688123224 8.845862087078386
Pb 12.014459404756597 6.03270482902414 4.481725405545148
Pb 7.869434521674926 10.096793334048572 2.6971119503820993
Pb 6.134040040218771 12.8090051326326 6.814205214384123
Pb 12.081586936957523 5.643755322884561 7.743030934685622
Pb 6.6243691436621095 11.03025822277649 13.21339642131601
Pb 9.687559332946613 8.731874813692517 5.3218054255954925
Pb 8.267261774205902 8.424960166165446 11.669745563142923
Pb 10.136590035158031 7.717940329890013 2.2173017499784597
Pb 6.878303653296581 8.055330909648708 14.734036818172788
Pb 8.210668751664041 5.822264579025554 9.127794702077635
Pb 5.9563807337750685 8.813628574509568 9.148728437719294
Pb 8.983729116704753 5.307970710572853 5.9287338623801835
Pb 9.240889994414864 4.288239359625986 2.8338757533539707
Pb 7.30784890774761 5.365833157346333 12.54606664609768
Pb 4.000709406575219 10.576666802814087 11.248003272055891
Pb 4.6779879760212015 9.349484328097402 2.9106979565864908
Pb 4.832251361175081 7.658842774604692 12.195053366079227
Pb 9.716280046617115 2.9630951580786666 8.162544806415825
Pb 6.310453258343582 9.726888269011546 5.708779092513684
Pb 3.484583880966832 11.06114993944396 8.066513879962383
Pb 5.875952703897927 6.426356389753679 6.386140042600612
Pb 7.081062109167733 6.858771002294372 3.1346229045673666
Pb 7.247616494842048 2.8843852674123673 10.229470085591263
Pb 8.96013088493856 2.03750614841042 5.192068206639439
Pb 3.7395339613633585 11.683660937992771 4.89929643182075
Pb 2.7674057127044387 8.056898169480629 9.007362450954552
Pb 4.9207192581206805 5.485712012684692 9.45268138038971
Pb 3.79003464683473 6.261621960955782 3.766879118742187
Pb 6.504734911196568 2.8947834010692524 7.184394956711823
Pb 2.502923027572079 8.73143933085988 5.759864277168865
Pb 6.250024582858322 3.782270177155284 4.149632679520193
Pb 2.759524071596232 5.666778716051099 6.725263397449412
