47
Energy = -155.68303517 eV
Pb 5.83234391301435 10.123165575277143 12.012274301353948
Pb 4.638976074259681 6.783244222652862 5.120337864210782
Pb 3.560998571767675 3.650206384933363 6.8498033302221755
Pb 8.45442663418432 4.711973201448813 10.839992821806652
Pb 7.956656438036341 9.477631673743588 9.624409732200728
Pb 8.703766774914902 7.175301525744557 13.940531445052637
Pb 11.08786981737473 12.454703726687757 10.841343141228009
Pb 8.015236790316347 12.239397594033798 7.531435711225914
Pb 6.63893870331933 5.946584425053376 7.934582124326571
Pb 2.8262187721817487 10.08458174869667 6.9697326716931185
Pb 9.73950358126729 4.982926414603229 4.936622694652612
Pb 1.5783802025058258 5.1862507370683195 4.731741049486948
Pb 5.218274474447474 11.748349962217523 9.166181721085374
Pb 1.2138980772934342 8.363371454908256 4.771973957532914
Pb 11.528536727059175 9.731378413749445 8.86443468494951
Pb 2.8762960652641825 6.95895325760127 2.3163238987722887
Pb 11.02253487344276 5.03606288705266 13.198962082200755
Pb 10.414230165622127 7.61865562722746 11.227940299126855
Pb 11.577811334236342 12.72230555271475 7.433237507446736
Pb 4.232486341467282 8.583949569893448 9.526471315706308
Pb 4.213515913907107 3.8408464167104017 3.541807941800885
Pb 11.801401835253769 7.960660871016912 14.346001781402315
Pb 13.093999773928985 6.747192041428137 7.70863584026345
Pb 7.831531393940892 12.491864590298285 10.99332614942207
Pb 14.789008732364799 8.968992720024616 9.354097031086068
Pb 8.830310795401786 7.88702698363825 3.7092109915580247
Pb 5.091155188634645 12.263528999236508 5.898462592357285
Pb 11.631303224047487 4.793525875776154 9.907096667877854
Pb 13.531422414345826 6.749359019934737 11.85391795332379
Pb 3.743175699427118 10.093051542671457 3.7336035869354656
Pb 6.214654172665261 2.844692866819509 8.813608124441169
Pb 6.353366463149934 6.955101201938449 11.568297815872441
Pb 6.708455816349981 3.132688106489314 5.557118705907637
Pb 2.1827938245792073 6.675826949467076 7.604934806608063
Pb 12.98509893686178 10.079436836951668 12.084096698294209
Pb 9.63112431686301 10.325684871436591 13.058967017843376
Pb 4.11746711459449 5.182592483320312 9.853109839623192
Pb 6.400985522799875 9.288858629519307 6.755435169678352
Pb 5.84597916877949 8.169159158679513 2.172568658722223
Pb 10.117861632147367 10.372449466019074 5.643585373036388
Pb 9.181036004935915 3.5780414512167673 7.765442821689187
Pb 14.017041166333502 12.032676545371409 9.333478488236757
Pb 7.119446459403673 5.248479071229166 3.00545467842498
Pb 11.86577731668277 7.738631480575208 4.966482766764361
Pb 7.196391433980627 10.675793532878355 3.9449681678440616
Pb 9.792658261215546 7.0340743501941825 7.559929481734842
Pb 13.670409707523968 10.365526603945096 6.502785117066319
