44
Energy = -145.30071827 eV
Pb 10.1104911591839 9.467105700635107 12.001979287264389
Pb 6.9189072585367555 4.832606570122015 12.347215686541096
Pb 10.078798062733746 6.312937370937248 12.456426656221625
Pb 9.630780104521913 3.2361065838037244 11.876326499208346
Pb 11.856468201979988 7.929672366059109 9.895955355272806
Pb 7.227362709035477 8.10063941145994 12.230884484537851
Pb 12.086096771564945 4.6242823876375345 9.919557082812771
Pb 8.031972370364086 12.003187731596777 10.661247583992568
Pb 10.311633506511294 12.246125585636541 8.18439419828744
Pb 4.406638288384187 6.8675999436759785 11.656376817243169
Pb 7.290670285090577 2.7240829055667795 9.524150516275744
Pb 12.646551824732619 6.167495258696284 6.945573526551339
Pb 8.715636224339734 9.216814219079927 9.094017736021293
Pb 10.449789685535935 1.8327726543601386 9.181596596088237
Pb 5.16315656125349 10.17677463923346 9.874462189327264
Pb 9.498454839318786 4.914310650513031 7.848064245909031
Pb 6.694161765188621 6.493118838305351 9.340522786348146
Pb 11.47700520065825 9.393444835113154 7.053663816690986
Pb 5.297944209362998 13.567594992872124 9.656483085781266
Pb 8.122259031566518 14.679394069297246 8.716159006484954
Pb 12.23327028543464 3.010858367635541 6.848404456103546
Pb 4.357385075804927 3.956404110479391 9.966624718931552
Pb 8.963376431379974 2.071999000176912 6.267197784667155
Pb 9.160565058413765 14.106516563701685 5.746009346408569
Pb 8.399817681501217 7.8858319379178585 6.059451278249572
Pb 4.813079764284694 9.120533497739784 6.7320853746990075
Pb 7.021014495081629 11.663682756228974 7.155338851868814
Pb 10.554386691978001 4.357310629482723 4.525771035089669
Pb 5.5550040899004145 2.1412541833968723 6.500950631937941
Pb 11.218566699353513 7.701284523047316 4.3997259245119
Pb 2.746028824156457 3.9033498790193324 7.047919856275059
Pb 9.577543490716234 10.963954889059131 4.731746902602012
Pb 5.804141805533058 5.355872223907016 6.350598926229808
Pb 5.599535942874103 14.4558501621169 6.343425036490259
Pb 3.352339016353839 6.763270493017796 8.606432463041795
Pb 3.4130017872799714 11.976426860028134 7.697987011388573
Pb 7.04141195224599 12.944557552503625 3.6772338255410024
Pb 6.692925061085398 9.614083227062322 3.95337277544203
Pb 7.137105776084877 3.379976515671887 3.767747184725641
Pb 8.609028577646042 6.49373220023368 2.993447715987327
Pb 4.263320933561485 11.7213246806284 4.644120464836693
Pb 3.877979756976526 3.5366803913993166 4.054004243950484
Pb 3.013042481161381 6.626559061670301 5.206233794541569
Pb 5.4262287637954465 6.2089945766984185 3.1397726005399877
