40
Energy = -131.80437569 eV
Pb 6.876150987598775 9.383569765341838 12.746373023090968
Pb 3.884486441475444 8.437790713650369 11.731530581431123
Pb 4.72943058559554 11.499017244898464 11.271887818507322
Pb 9.16653207034806 6.7406644538963185 12.738740366391307
Pb 10.041931174229553 9.81134155731568 11.801423470568299
Pb 6.012434538076004 5.9138064863781725 12.121167660073535
Pb 7.726215652325878 11.863378666391208 10.404546441983928
Pb 3.1790325555603665 9.0756243560598 8.602866024849616
Pb 6.284725678658113 8.956385555283191 9.513871074888018
Pb 8.63739903354532 4.113271954238709 10.694151917533713
Pb 3.296402206871274 5.689396939600527 9.848469557906267
Pb 11.957428237143745 7.16468796869978 11.328769757406647
Pb 7.37932764305415 13.705582072122368 7.255786400738568
Pb 10.272284855185799 12.75417044126885 8.184299417719032
Pb 9.327631613582362 7.026415665444484 9.349182506926315
Pb 4.9092108168894475 11.711126527304177 8.079482052471375
Pb 11.4582213394498 9.450365844991165 8.93049377249763
Pb 5.526197846295932 3.133158864730556 10.447280614663626
Pb 8.488587732623179 10.196249083361295 7.203602528798722
Pb 6.183939291950985 5.653487147326421 8.337270009515109
Pb 3.8834641053479415 3.1177339111976883 7.769924636988061
Pb 3.060525204894442 6.0841524817504675 6.531099232024262
Pb 6.471609283523744 7.74901458292334 5.732303849066244
Pb 9.409999737196944 12.798064629381829 4.985289973720412
Pb 3.681786627490875 9.182529728324619 5.233353101095468
Pb 6.386326155955901 11.487895222227158 4.862629349246443
Pb 11.547119148995401 10.650554581913816 5.9328426572516735
Pb 12.7067074247258 6.250980005885692 8.26882786494531
Pb 4.086629415035145 6.48684547950638 3.4398458049732823
Pb 10.583207352667634 3.791919185609382 7.964232014308431
Pb 7.228138869417879 2.731841218738727 7.651095301846205
Pb 5.552663876178977 4.17614985049713 5.125344940860491
Pb 9.076462720608445 9.536842348558228 3.9402432282152255
Pb 9.980323915358836 6.712308390853109 6.141029866030581
Pb 5.967644369876111 9.003094291117481 2.749621982863423
Pb 7.521631514414982 6.074358324653518 3.175982365202001
Pb 12.962089176306435 7.653815184739859 5.298425909213249
Pb 12.62689559952852 4.436873757460966 5.462205946950878
Pb 9.542478005635441 3.703609305312715 4.888831140376674
Pb 11.034197787148162 6.044658429522768 3.198454878554183
