46
Energy = -152.0233344 eV
Pb 7.507534393549847 2.320983056662725 6.383019178328628
Pb 9.738371053088246 3.711728556952453 4.515581298734817
Pb 6.441112226588417 4.514343907120571 4.304490431325324
Pb 9.39436515376622 5.978943291507041 9.538920922318908
Pb 5.0692944549309535 4.122191491678062 7.442373693285624
Pb 8.783930744883968 6.288231385714372 2.819344812780332
Pb 7.559273101767802 2.9974489247658203 9.52832959936912
Pb 3.697423364810503 6.041281037653938 5.120044775844366
Pb 10.287794308588072 3.3360147518978573 7.634045897819039
Pb 11.307746470512566 8.140217182760745 3.49050374931134
Pb 5.051623103817362 4.841692656757416 10.895234057496545
Pb 14.665408595208055 7.789232852309532 9.029424154316503
Pb 12.595798516393302 5.489764837061673 8.43373056162164
Pb 12.0637598756186 10.658511883267051 13.658326070773303
Pb 9.81704233023609 6.5712439529886595 6.227945680667289
Pb 5.801113396119612 7.71258210293155 3.2801784581059317
Pb 6.39153282507428 7.2902796049335645 6.738161913918592
Pb 3.4527090602488495 6.81260865620243 8.406343568931831
Pb 8.138587069419472 4.711486597631809 12.231708808712362
Pb 5.998836975127583 6.677463064222152 13.446682239160921
Pb 12.33515921350233 7.082300381938865 11.341833253818091
Pb 13.128502443296025 7.816213092786381 6.159142336558282
Pb 8.540026758259424 9.663190752647866 3.004422476512731
Pb 10.836415795193421 10.489153841320507 5.563357960489298
Pb 13.66538803785149 10.716753112313935 7.68586113267161
Pb 11.245044879783318 8.809663957860066 8.819908640979573
Pb 3.8616872887009914 7.8967212994048515 11.463689973762234
Pb 9.722872122395128 11.173165932049566 11.400175502698545
Pb 8.27414412859881 10.331860050235996 7.764241242643449
Pb 13.740574541283026 10.135594519446578 10.898727738962817
Pb 9.226913817252628 7.877697720918764 12.73841338865579
Pb 9.049686374463677 10.738958823570481 14.689898152824892
Pb 3.8701391729893766 9.238574819340206 5.6616863479846335
Pb 5.755696262970251 11.028507955521977 3.5764999930611308
Pb 6.898934623724481 8.001539992388457 10.27812981523513
Pb 10.873069508554554 12.486685598568233 8.39480580383285
Pb 6.429490477188166 9.906246196315168 12.886547358297818
Pb 10.56717028072845 13.573548230498213 13.949990488980873
Pb 7.861806204041225 13.656927689177685 8.101938580472366
Pb 12.545247716302335 13.132184294119563 11.458964807050013
Pb 8.315691960222544 12.430237920113592 5.00616354160148
Pb 3.850224596928943 9.968354701398301 8.798772793156678
Pb 7.505104234153462 13.119807637193908 12.942607419312587
Pb 5.472731386939199 12.03540290934696 6.641421181771078
Pb 6.378160016238174 11.567777243262421 10.07999819206958
Pb 9.65694238454819 14.486762779100811 10.938493249631865
