41
Energy = -135.23278883 eV
Pb 7.139510404749557 9.251350084212614 13.203497260226966
Pb 4.727493067487071 8.157760309466155 11.043760092623302
Pb 4.158378859178508 4.8799867193957365 11.007636064773104
Pb 6.745962209820487 6.084272350099267 12.961658911301356
Pb 6.701458858783083 10.703442991491178 10.33361847659269
Pb 2.712256873223335 10.137628122811021 8.826866833212838
Pb 2.6089028806092203 6.908939549685876 8.717525956159795
Pb 9.710956759367301 12.614500845978991 8.592724192716412
Pb 9.77746004951172 10.35109535572608 11.269200697867893
Pb 9.832199740361862 7.637440576022933 13.312057069926801
Pb 5.255451502308879 8.931605144675869 7.266166425797865
Pb 6.9156386501825615 3.1080069210313583 11.820591366167172
Pb 8.16493557715397 7.633990290884236 10.285614192680496
Pb 6.055343251674485 5.789934063038569 8.437380736593546
Pb 6.335064212708065 12.399422937299356 7.54297205158472
Pb 1.6957972586410357 8.693212135810523 6.143520418723345
Pb 9.770277826348174 4.599381714953815 11.893088260527573
Pb 3.4009482261584205 11.395998883868081 5.942814666781931
Pb 5.4428684181501765 2.7448993946631415 9.018717807315374
Pb 8.723283475064832 10.02343294372491 7.0014589532280125
Pb 11.822063772367681 7.676964859010798 10.79431440399117
Pb 12.129316478825908 10.226624796099005 8.665363438404837
Pb 8.675005041539947 13.220805048615365 5.513760816578326
Pb 11.478921161538512 11.883038860082985 5.8792102243770215
Pb 6.474596703275216 11.061521761549075 4.48291377488271
Pb 4.231910294688135 8.65944545300364 3.97133316275079
Pb 3.6837654517329823 5.959447561809152 5.837583113843436
Pb 8.640892495583829 3.0921698192984635 9.119552682439522
Pb 9.855496846626869 6.800881806891519 7.230915921617045
Pb 9.463655993553445 10.11541619677463 3.832716917387639
Pb 13.238248261190275 7.250750014872259 7.964373220102394
Pb 7.164736522847923 6.717610899666736 5.201542899344996
Pb 11.48367153048614 4.6715320036565045 9.076923278322116
Pb 12.087155355823441 8.707863896330576 5.35844501295768
Pb 7.563758147071004 7.6109403779475535 2.145548238893235
Pb 6.075707003590609 3.61745552744154 5.401388159129692
Pb 5.060010545464324 5.6068079569139115 2.826482108962527
Pb 9.346811705127125 3.8309292598080704 5.5664132767986105
Pb 10.2914571712804 6.417439049889452 3.5770304959814356
Pb 12.346537646976895 5.088497034105751 5.824070066717872
Pb 7.959009121377219 4.346892485178896 2.699563924545366
