40
Energy = -132.18408436 eV
Pb 4.413521243430285 10.251749215530905 10.003971432508507
Pb 9.891413273918184 7.7685972581279 12.329288734495503
Pb 6.80425089148571 8.875265985492597 11.886408633991916
Pb 1.6040472713611684 8.367782908575384 10.559958067737655
Pb 4.311839765036746 6.95675625261972 11.537326190990871
Pb 9.040782727109544 10.621316353496683 10.166032890834225
Pb 1.622991612733728 10.473429442272664 8.145171097537917
Pb 7.442534736921819 5.642941396559798 11.817949726906923
Pb 4.4428313478465205 10.895434782305855 6.693561570052534
Pb 7.030106201468388 9.282845170941892 7.887004038678054
Pb 8.64865453517409 12.230233779607808 7.196096798881521
Pb 10.585278423346494 4.715445154074812 11.241307328406654
Pb 12.010715411587567 9.238270031132718 10.356634011974958
Pb 3.725687261527137 7.585704935932588 7.915336329131552
Pb 5.003929417723296 3.9087350493626247 10.446651712226629
Pb 9.525928640019517 6.950045450412131 9.209583964412381
Pb 11.633116712109022 11.929782937442809 8.583511916250629
Pb 0.18117179180754395 7.615629591156981 7.6809029245754274
Pb 1.834132252149068 5.21947754632437 9.349561142316203
Pb 6.53775278305629 5.862090774811241 8.128223040018556
Pb 12.936718959292703 6.911372709758809 8.455542929993946
Pb 13.48710138088445 9.390550981685271 6.262582813878405
Pb 11.408626879595266 11.852799832311415 5.349079453199831
Pb 10.42942944157532 9.252608568953645 7.082850377962531
Pb 8.25257482292754 3.3160659163503987 9.446867353723553
Pb 2.2249929068060497 8.781725055194217 5.316976053354476
Pb 4.133420882893664 3.6503021722535793 7.4233406986901755
Pb 1.8791391426417776 5.472319698785093 5.984790635079112
Pb 8.411338836113776 10.661799775404523 4.397439705200609
Pb 5.329778493156505 5.361089117619659 5.041722233120811
Pb 5.766258175808797 8.472792355727817 4.7598109238905515
Pb 9.08614280011276 6.682931416237355 5.393700038507657
Pb 11.057742091655394 4.2648464337750305 7.799459461120261
Pb 11.486842940556517 9.137875176781796 3.4758786987573234
Pb 12.62872138761917 6.361149209568795 5.2108364286303885
Pb 7.8460453340209595 3.4194570038546535 6.201257840591765
Pb 8.318062275127073 8.114870748988544 2.429331808247728
Pb 10.615407312863693 3.7383681169042577 4.506304476514757
Pb 7.945155434176794 4.896006805621602 2.955136545214065
Pb 10.89327390752818 6.131120102242623 2.38348501378137
