43
Energy = -142.48393093 eV
Pb 12.477121524007108 9.743327748004969 8.647663378936084
Pb 12.65788945894955 7.613191558024168 6.332409229668638
Pb 10.595778466906054 10.078729679251072 5.646647703247612
Pb 9.8355648824233 8.905022968776425 2.3670351192338472
Pb 12.305287185635757 6.617420489617608 9.488751984209248
Pb 9.576642096116613 11.320954078478696 8.667607232431669
Pb 7.423982745005389 12.220092496251647 5.7366090722388
Pb 11.371616487279384 4.720834765763165 6.979127468659174
Pb 8.320042469537551 11.618192680199352 2.7241921623032974
Pb 9.683357656291456 7.767334891196363 7.834996728716876
Pb 9.812421588316766 6.514398136260956 4.526988471220895
Pb 10.367777050880477 8.847392901720209 11.039770912577728
Pb 7.329827379351296 9.109220625887362 4.878572107692571
Pb 6.509298884748195 9.054473052293021 1.6037249074331237
Pb 9.878311704644382 3.530417459973421 9.759875866320243
Pb 8.350259590400592 11.381496071219797 11.745250841103907
Pb 6.360812329464409 12.107753214423356 9.2723739206139
Pb 9.571212452028341 5.492722983522875 12.285902904689944
Pb 8.057255764795938 4.673414264779607 6.941861700621433
Pb 8.23343835109883 5.865209090733581 1.352474487111234
Pb 9.035536235410374 3.460685949599979 3.4790539630919364
Pb 7.057531281993665 8.991263546030263 9.67788187156887
Pb 5.173883458396075 11.513128904686853 3.3613496424468643
Pb 7.144838943819738 5.507242639658 10.10716890009137
Pb 6.406936836307974 5.287862958830891 13.360062490711636
Pb 6.2933311915027 3.2022478547753486 1.7745073297303111
Pb 7.744381812462533 2.701866719620595 12.110386901411262
Pb 6.367156554028607 2.2741855713193706 4.893667795186304
Pb 7.499459603677694 8.394575756358412 12.953536544471335
Pb 6.501472108660025 5.638430446108897 4.181618750864654
Pb 6.972274354141817 2.1765529987668524 9.045485766837162
Pb 4.689646626230397 10.720762196037345 6.49802689956334
Pb 4.860736491442361 6.1166745172585575 1.4208989633211317
Pb 5.196099811179043 10.641941563560179 11.968460253245398
Pb 5.414935288741854 7.416198232472892 7.145021931892785
Pb 4.686853304323411 3.6655144325960585 10.952819392055327
Pb 4.082666713117658 8.431311532315723 3.9352681992493657
Pb 3.7698539887747358 3.9417100112505112 3.797723397160228
Pb 4.7915541625814715 4.1243619379567535 7.3835713083590795
Pb 4.3099750130658405 7.498506191517207 11.935451602439873
Pb 2.638486669657131 6.212002855943108 5.996406810991069
Pb 3.621649281637259 9.49426188850153 9.331375447576612
Pb 2.9518151185599795 6.219107843647128 9.171337204413735
