46
Energy = -152.08362243 eV
Pb 6.544621585632852 3.1495108617542362 12.126935164407211
Pb 5.897670805642033 1.3440816141286802 9.687058052073727
Pb 8.81887066623939 2.8725966673073793 8.893420305307883
Pb 3.5324039109560905 3.6137294768162707 10.873294444776487
Pb 8.749593086245604 5.36811642176995 11.39186275478603
Pb 6.6538252064563075 1.980331304843466 6.426291895459543
Pb 5.415835800774612 6.109049803730318 12.371858458001633
Pb 3.57395450702785 2.264685558881135 7.780744180608245
Pb 11.59698117530002 4.31447580052105 7.838872912781868
Pb 6.027239716473602 4.667870018235625 9.058184749916968
Pb 7.837122353574886 8.171419429900173 12.9448424595678
Pb 10.371671076243922 8.201564417887198 10.716037394070685
Pb 9.416274572263351 3.5978214529574704 5.429418938073557
Pb 4.099161220690663 3.4604007006030795 4.714116953152769
Pb 2.1125661235781186 5.123704797641277 7.973698283758959
Pb 9.134985102567674 6.323442994964088 8.074797028152068
Pb 2.5860221520219646 7.205303950358581 10.509597249126763
Pb 12.097348590349863 5.678411771926927 4.88986605609957
Pb 6.690129828051841 5.556401047948934 5.775736567042493
Pb 4.908426140511393 9.368658138467296 11.813205999910782
Pb 6.938573572644998 3.236932396828318 3.272430402955238
Pb 7.1912038281087405 8.599358982105112 9.646833324192212
Pb 12.42955845663963 7.415054565629161 7.902894470710064
Pb 11.797931872005261 11.313745227907727 10.160305406636
Pb 8.814427928617908 6.1483118047315255 3.248048359106994
Pb 1.1123858524419994 8.196008469369096 7.740340487333382
Pb 8.855463186806627 10.963638521481352 11.591220410333602
Pb 2.6596049469498073 6.714203613600873 5.04376340165553
Pb 4.483847459056794 7.453814883386649 7.736826711712378
Pb 10.134422070494743 8.530399865434775 5.499777937095219
Pb 5.159512989237989 5.931423405497736 2.935988612522001
Pb 13.673968247644869 8.498566651328042 5.0717159758246755
Pb 3.2305487521720138 10.185950935188815 9.121618372712367
Pb 12.84176925640918 10.784761083221825 7.118963797276417
Pb 6.446586724068487 12.007521689942447 9.72411671963795
Pb 11.773325172805706 7.925898601621061 2.555896828637244
Pb 9.438565530695497 10.68904223439888 8.050462115525626
Pb 9.700495849916512 13.620639818334714 9.572396023774635
Pb 3.2632785986382915 9.763306089289857 5.8041605768403794
Pb 6.677518082892383 8.585210783030409 4.223041295778087
Pb 9.128459093799444 9.66303704014414 2.4198893950812512
Pb 6.310658984716011 10.47810395998601 6.7937866971058005
Pb 11.64108449561075 11.124858715828141 3.9940621469326887
Pb 10.784797003983286 13.418030833344055 6.3118036267462605
Pb 7.701868830383798 13.628039069655484 7.129177105738307
Pb 8.314039944560335 12.080436834495348 4.40199794751069
