43
Energy = -141.42684424 eV
Pb 9.653921825531075 5.654688400702942 13.914789275758151
Pb 10.404748128452725 3.488206122905112 11.5543578614037
Pb 11.837455921733232 6.3452992748040105 11.533252577515011
Pb 10.974631538769774 8.625586194223617 13.850884027040813
Pb 12.396863062473319 9.589238646073047 11.144634877887459
Pb 6.475590178284752 5.271751051256169 13.670589093653254
Pb 12.009268521355681 4.169270126417564 8.755722448499105
Pb 9.634979577647199 11.137793088990692 12.21526714925307
Pb 11.46366005977586 12.348731205841958 9.776243245399293
Pb 7.939061969565594 5.865575732388172 10.720114992855603
Pb 7.794370901393553 8.317155207388103 13.283814441076844
Pb 9.11967535898232 2.4667681235815198 8.592332593843906
Pb 12.295066498201171 7.653314097997838 8.460090892627008
Pb 4.619155046770786 4.500039162909124 11.259153148485968
Pb 10.692024044885029 3.3263409094842626 5.780980499991822
Pb 12.617754036979369 5.732016178452799 5.895795301171271
Pb 11.917841907555083 10.753687357527298 7.0382176740411255
Pb 9.559650495653324 9.507293035289328 9.307344401013756
Pb 4.987751698617058 7.751663890024551 11.678368623590547
Pb 8.370958059283286 12.723160778857697 8.816497547585247
Pb 7.274103169900809 2.7207256440051535 11.548108860727229
Pb 5.866061327465962 3.385305829402476 8.48028316962215
Pb 7.5546436673903345 3.34344649886703 5.770079620770551
Pb 10.645163200478809 13.751995056160249 6.576171195020632
Pb 9.338456476565744 5.907899301411304 7.520468229067166
Pb 10.955935143077305 8.294838501620148 5.216008875675386
Pb 10.889753191177567 11.697013749778188 3.983245976599923
Pb 6.672030198397935 10.474033556751245 10.797228198924051
Pb 8.220571394399496 10.533112775565934 5.999336338799367
Pb 8.40543599559737 6.298978712726469 4.467237972848976
Pb 5.3408457698743765 11.79140846825689 7.914003341132082
Pb 3.821528078489417 6.398862767853614 8.766871100190258
Pb 6.28791159296263 8.485657456194296 8.018927136323757
Pb 5.504480376567251 5.917786998560253 6.049211675903978
Pb 7.346372287180164 13.899313455033985 5.876915931211158
Pb 9.624503950754116 14.666721527967763 3.727425615910357
Pb 8.948871273379869 9.293785884525422 2.8605682154564103
Pb 5.902580999677883 8.605542216237836 4.172292039293349
Pb 3.3900186133074324 9.708519839411357 9.370257086949938
Pb 2.469073762260893 11.88609676245626 6.763638934768376
Pb 3.3448553128320064 8.916387197801448 6.243793444189525
Pb 7.685710022417917 12.226198956802005 3.0598155440697763
Pb 4.810984837936967 11.633109731495887 4.633980297855793
