40
Energy = -132.59637913 eV
Pb 2.039109685744903 4.635521843513955 7.257360513150834
Pb 3.8838280442131197 2.499628446909174 9.171422322069937
Pb 3.258989639751025 1.9711327603003117 5.973501413995018
Pb 3.6157640747673185 4.930145440038589 4.326013800589274
Pb 3.551054812962217 5.92044520068279 9.834521001260228
Pb 4.052323920219113 9.39464281557716 9.786084896695563
Pb 3.491731835391099 7.6219837995591995 6.992171775666501
Pb 3.982371459563015 9.926106393480962 4.451445608844987
Pb 8.290203776573499 2.341509181382313 8.80984738006513
Pb 3.806287451040603 11.736310442830671 7.243535913416942
Pb 6.009802100100075 0.7775741231064732 7.043642742058227
Pb 5.4121560886478335 4.409302513697732 7.083682065272752
Pb 5.799313270103438 2.1523824498420225 3.966314261180184
Pb 6.381460177973505 5.223651289587292 2.7278720700220207
Pb 6.577581209608988 9.19380446522588 11.834394812651261
Pb 5.387489470951733 12.772980279261526 4.311138928520747
Pb 5.939807214939294 12.085028025255118 10.16630795338715
Pb 6.426453242382727 7.3581434107054084 8.692251610585465
Pb 6.340631158450904 4.527853913845006 10.367764807888367
Pb 6.143146190735735 7.386655067117095 5.080078326006272
Pb 6.956191440588473 10.241742726532348 3.175869219312926
Pb 8.716139850575114 3.0767125975091547 2.8883258146440745
Pb 8.622592633207628 4.530350424611349 6.072347087052629
Pb 6.613087331483864 10.439466133684883 6.4928409043162
Pb 9.017555318974535 1.2473997275037987 5.70917801701474
Pb 9.575800622643548 5.684597158526716 9.06036464552276
Pb 6.566393252333793 13.70323269311246 7.133305691614954
Pb 9.873454108203921 8.714847082018084 11.923191521044862
Pb 8.602743295413388 11.747701401848301 12.247909694874856
Pb 8.49864483131305 9.978040021268184 9.30116399803433
Pb 9.965108372183394 6.159423562418344 3.635638177950595
Pb 9.284020550154313 7.940052750468567 6.567045270727447
Pb 11.456187416685005 3.3366656089950664 4.488502375138645
Pb 9.100397108881067 13.250328067210754 9.330648519732357
Pb 8.602563345925418 12.388160253868781 4.936334496101985
Pb 11.265573712852643 3.0129719750708057 7.727319111717738
Pb 11.35651220759735 11.29408012941544 10.574363378179802
Pb 11.62854306582994 8.42338895428725 9.064015290247177
Pb 10.823855886109325 11.086795453719109 7.3000477378512425
Pb 11.829917792913786 5.896427388807926 6.445614639617342
