41
Energy = -135.41035089 eV
Pb 10.01248708903741 9.501891281588426 2.487909549623525
Pb 6.657193633457954 5.236477925671144 3.964588075722696
Pb 7.160711927675506 9.462141782011528 7.326131505879987
Pb 8.103965457249632 11.919485373084484 3.5749994773265543
Pb 4.281210586977928 6.678302670442546 12.629239614158191
Pb 7.385990390149849 4.1258266584222625 7.674043567332395
Pb 6.107483803887943 11.68137791397485 9.262093105484439
Pb 10.043269728391344 8.204151469154358 11.46617281455613
Pb 4.949036039381856 7.998979815945004 1.7796178843389572
Pb 8.869934822611208 1.0725557780607997 7.15843863345598
Pb 2.44724488992673 7.510775677799868 7.360400775045488
Pb 12.028003571329515 9.150089546814433 8.793444335105901
Pb 3.628398549751408 8.828979022291078 10.40115737754774
Pb 10.154711481895614 9.666915494478278 5.9095694242342995
Pb 6.549685943966056 9.471945308670575 11.833507429018578
Pb 8.357874750329614 2.0931055878233717 10.160849694108606
Pb 7.134790116635036 8.809006045104155 4.073181117873265
Pb 3.484855646510903 5.365154117126177 9.668074485738082
Pb 8.052425661652798 7.0290001282315835 1.3786208715456274
Pb 3.613085532277336 9.120525712764362 4.779475986349108
Pb 4.987502432427585 11.232736973021774 2.621379723033761
Pb 4.050047444088095 3.679832151015194 6.716985199537759
Pb 9.42432133619276 7.0228923123796765 8.372877602002317
Pb 9.782106666709751 6.706328752040461 4.265263240545935
Pb 3.3350157559567566 10.61718466159117 7.731874729917449
Pb 6.45303339413156 1.9367091106295529 5.137015483558428
Pb 12.105140510809257 6.4859676278798615 6.8462371639009
Pb 7.353706733223483 10.121895166723927 0.7688170180757143
Pb 10.820082391701611 3.620902454921859 8.250759101223947
Pb 5.824592274203143 1.3492442681900305 8.2700428449672
Pb 6.4440529038862575 6.908561369304496 10.000771398681504
Pb 9.309519662175378 10.780560054807056 9.648850898917958
Pb 8.568041727336977 12.415416762874537 6.922950021692033
Pb 5.949281235562156 4.061849874993712 11.419276271081069
Pb 7.392394594080571 6.576643305750647 13.145737564794814
Pb 5.454076690761025 12.10241524265456 5.840382207380647
Pb 9.599860199288262 4.922220859707622 11.310837271066394
Pb 5.451255095596483 6.713827601211795 6.7098227766522625
Pb 12.319476138636553 6.244656456619314 10.008488553210412
Pb 9.357305367710943 3.4989736263262374 5.103941359923491
Pb 3.489388655838442 5.881105230590216 4.294592131304479
