48
Energy = -158.50689525 eV
Pb 9.93499166992442 4.972481208035282 2.8760864252645533
Pb 9.824689158790962 3.9918275337618003 5.987338804792532
Pb 9.787668930818914 2.9038155596449617 8.996092649279296
Pb 12.592382670769872 5.18286287307762 4.61011809348139
Pb 15.005945127548197 5.77318787304678 6.654141562403021
Pb 12.770686347126288 3.637439433122569 7.678309008155196
Pb 11.277634451933366 7.970842256116323 3.7197648124973663
Pb 14.766513335142468 8.95812877541735 6.651740428876261
Pb 9.383001845467197 3.890917235905656 11.952724244494052
Pb 6.774468208045775 4.204303413027668 7.933142850301139
Pb 8.085631095080887 7.487220797268681 2.663922744666674
Pb 6.992699771071385 5.11635163172679 4.674319985859645
Pb 12.095110798990502 5.006934737885081 10.547463742812353
Pb 8.8391754422174 7.48379731039621 6.011948648345183
Pb 14.677262183869573 7.283646270819666 9.489360054258908
Pb 9.035053315811577 6.183120336867952 9.212264680982836
Pb 12.023484024609076 7.118427605487753 7.4902742027601
Pb 5.848711258542175 8.699207633801793 5.246452675946008
Pb 3.8379168814721907 5.2527035765314976 6.388246898792348
Pb 3.748057970746517 4.273322346626814 9.518355472704236
Pb 8.930591313782816 10.34254455127242 4.302030359006011
Pb 6.551517423096286 5.20172270938932 11.182591809214438
Pb 11.876125490981762 10.407092477891869 6.154989112155981
Pb 6.308466901578396 10.03049848457231 2.355641206280206
Pb 1.6290455133114026 6.420912255940963 8.533472255951743
Pb 2.605803681407156 8.322246319713807 6.212512312936402
Pb 5.0470224429797925 7.320134076731866 8.512693560601651
Pb 10.12299433566332 9.58310982602311 8.818614569294843
Pb 6.092354807669099 12.26516743144079 4.6082852515438155
Pb 9.342692973969404 7.032130360049493 12.27153453120963
Pb 13.542255182227938 10.440537139327125 9.185478778011552
Pb 12.186597998031843 8.353756060235364 11.212143134201161
Pb 7.136518283340343 10.812239832219495 7.542429100314882
Pb 8.755715745139408 13.35383987696998 6.13422748073967
Pb 11.209713682480253 12.704033910722325 8.322205268793029
Pb 3.4458685760155356 6.96770002621954 11.387667053777912
Pb 3.855750509035303 11.303710756631599 6.841626422832033
Pb 7.010685517026752 9.150085727247387 10.813487758169515
Pb 2.517301269549314 9.458452005855234 9.379310819215885
Pb 10.178545091910426 11.537623653473029 11.261494025407316
Pb 5.8539891553879935 14.157166977195777 7.266637292032808
Pb 6.0778973280507715 7.589300972098459 13.631169924245969
Pb 8.10864765188206 13.573682252696328 9.407563101794869
Pb 8.81816639771954 9.869690478569833 13.710583207340951
Pb 4.95427504383341 12.18890166753899 9.771203217430996
Pb 4.2387421860980785 10.094055625222316 12.32846071523156
Pb 7.032886066874591 12.354019142790825 12.437367671040528
Pb 6.050676889058455 10.557038939473207 14.894444020632491
