46
Energy = -151.5197669 eV
Pb 3.298478573087233 5.522248722062274 11.235798714114745
Pb 6.1923143597190204 5.381689502237558 12.913938779105136
Pb 5.350182906162531 8.165536122927044 11.075362334350892
Pb 2.682434873674527 7.906842466801441 8.607761175885996
Pb 2.410049877937048 4.815745960292627 4.180716711693552
Pb 2.0664090157130572 4.935438006642439 7.441668256567778
Pb 5.047579669829289 2.972858864359848 10.806550502689678
Pb 4.058731748156163 10.775665750164896 9.107543435399933
Pb 1.4944188012469592 7.548513482908727 5.530389742276003
Pb 8.092500744394442 8.537518603669195 13.093820367425176
Pb 9.608879680134306 5.599020116418202 13.279928287108905
Pb 6.967098435892708 10.969427924961716 10.567690881962656
Pb 5.220271626483093 5.617257001909724 8.690224011248944
Pb 3.8704779928069235 10.010059052126758 5.995828100311148
Pb 6.3887788313776595 8.816957712529824 7.819281020154679
Pb 8.210426206829338 6.3481558611007225 10.243198623710365
Pb 4.532547220296376 3.144113283652258 6.2701720535714704
Pb 7.456803590024034 3.380929625336316 8.420405486371244
Pb 5.5769601594583476 4.232655682490879 3.2262794233647774
Pb 8.189162981241788 3.272407784788539 11.589261047660882
Pb 9.752134263793712 11.228310338571902 12.617676106133914
Pb 6.760363958035957 12.16646455273929 7.419112009975537
Pb 4.60777402742816 6.717417697435826 5.57627916141727
Pb 7.694030769252092 5.5529298315921745 5.734070135333105
Pb 6.787514560495176 10.496051852654881 4.36579853456853
Pb 11.529108390193707 8.489668113631627 12.797380121084194
Pb 7.497825662468878 2.2633669652737045 5.160243984955479
Pb 6.4603074152495905 13.652062053599524 4.592844661622108
Pb 10.007582009269324 9.324036298557536 9.917111781566295
Pb 12.496325452802173 11.465714663688884 11.099803136114167
Pb 11.538764745971987 5.913142840388119 10.642831913011662
Pb 10.25027496510532 6.768677080251322 7.461082136173316
Pb 7.517949135603522 6.992586580888578 2.8572005901906796
Pb 9.640794920095141 12.63263067528193 9.335550240224375
Pb 9.493374878648831 10.089617459371548 6.599400121999995
Pb 10.416831423863867 3.7594009057223303 5.816965771823148
Pb 13.384522788448377 8.729696766748587 9.7504264729022
Pb 8.933218344922107 4.006443842025983 2.8618940564502147
Pb 8.882133196199955 12.7798767038867 2.8549685800646003
Pb 10.51560304430479 6.514761194774783 4.100486032961669
Pb 12.34732665702909 11.50264245081749 7.860319239635591
Pb 9.418182157106422 13.57532562626801 5.9524422010276945
Pb 13.3287787662341 6.024463909967509 8.035508553147743
Pb 12.746732844961235 8.696328846161599 6.317145773703895
Pb 11.653121895360554 11.670419412164456 4.590561325594684
Pb 9.693364388932833 9.631317802474818 3.2013110531272306
