43
Energy = -141.58971032 eV
Pb 4.7889380587957975 4.66185590136343 12.725872740392322
Pb 7.416173651397078 6.718069987891793 12.194483027873172
Pb 7.822553182422659 3.346517909320735 12.459427045466471
Pb 4.1218865535087295 7.658916655758274 11.581261001767674
Pb 6.406786995119986 4.430660550020018 9.862423389440206
Pb 3.0375708846783875 4.8386847800585775 10.136238171245934
Pb 10.42927730488152 8.538495030845468 12.198882145466497
Pb 7.344925699045284 10.063173344540935 11.573192745629012
Pb 9.64865948028229 3.0673374704769882 9.750634974092824
Pb 10.575695903425018 5.138562210640365 12.431771961773393
Pb 13.177600389515703 10.270417617782064 11.561516047557886
Pb 6.323516564187195 7.913210193702129 9.027275374768468
Pb 10.311828703210814 11.924997337370012 11.602419585309967
Pb 4.56493137662561 10.677694493090163 9.913011072863428
Pb 13.286724027386922 7.021017285975376 12.113636636988609
Pb 11.419206692405108 3.1995149795859934 6.244703117298934
Pb 3.01818223927645 7.718227945677315 8.47892866346285
Pb 9.41872382721424 6.426926042384019 9.5371676338674
Pb 4.637870468250019 5.047878873644657 7.301558104262498
Pb 8.409061046873797 4.319256241958514 6.956106624891611
Pb 12.510949468584435 4.8788575220973 9.705716773847382
Pb 4.860621349621553 7.887728666165913 5.526319062049432
Pb 9.355241551250257 9.848558321057544 9.074179637299679
Pb 12.30367337173798 8.164924351591415 9.243427711859061
Pb 7.169319117532283 13.160817217087525 10.307387129208424
Pb 6.478422977055681 5.154318371383684 4.426023985452077
Pb 11.255760696949865 6.358790587849953 6.575574592681627
Pb 6.9879225847896 11.38574336232117 7.198360626849964
Pb 10.11509557677048 14.214584366515616 9.24220323366621
Pb 4.678089154159412 13.552351292780584 8.310605117766546
Pb 8.22527751251016 7.68941636880777 6.147246805070835
Pb 12.110280298269616 11.676274377268438 8.751660663596276
Pb 9.511645779917755 4.493439638104168 3.816362306145058
Pb 3.671876625698977 10.783639754782486 6.8655209131508785
Pb 12.502993443446686 5.196424948920508 3.8718570279301345
Pb 7.49800224145081 14.794477467334042 7.437585215609295
Pb 10.9398492515722 9.824974368432654 6.211354468124152
Pb 10.07984735214051 13.040969381662112 6.087611711061636
Pb 5.516936090768295 10.779819487180715 4.073993557401974
Pb 10.430564704273687 7.690013154356214 3.437428053656716
Pb 7.0937966765489415 8.095899665006877 2.937371823468596
Pb 7.161942700495902 13.46972189395361 4.571546395611283
Pb 8.855822516218328 10.764243260746346 3.8638933588006803
