44
Energy = -145.50753334 eV
Pb 13.805461521449125 8.02569014734346 7.767361751629042
Pb 14.01142982497674 6.226995507125389 4.90714958378998
Pb 12.44866154811536 9.0914400425147 4.7707898987943835
Pb 13.821540748500425 4.6898138473567 7.615342920813304
Pb 11.362583424407724 10.327605780865195 7.729327761095684
Pb 12.107304328187116 6.064532689769594 10.080969620502616
Pb 10.161714386747205 11.535754048712235 5.088349406484237
Pb 11.1601894857767 6.248235078196941 3.187576112500638
Pb 11.093790312205257 6.5346507245326935 6.793623524540844
Pb 9.272134568773037 8.893710304431934 3.394054789804677
Pb 11.658020959963405 3.718674867791203 5.281354968862665
Pb 9.725657874420204 8.358345085761464 9.709503242213092
Pb 10.974396414848218 3.3529057500023765 8.521553742490417
Pb 8.26656834353158 9.1121548673768 6.566187221488495
Pb 6.9046424628838885 11.859080334795006 4.880015307472602
Pb 9.083080287491164 5.441004179384726 11.576108759266745
Pb 8.364347276108418 12.187697596856637 8.039312900954894
Pb 7.4744256859539115 3.39414344197213 3.3756903972843886
Pb 8.291334329516904 6.032173798682949 5.071567742541157
Pb 8.026385676931246 6.20418384512853 1.885405049722306
Pb 8.140871211031488 5.733243963595851 8.412872438523758
Pb 8.172393318090204 2.903596368813573 6.568912574752411
Pb 4.913091201221306 9.258705550319132 4.651536774807595
Pb 7.949463778811916 2.830156595863612 10.030036818578653
Pb 8.114247250623858 10.950348250649611 11.163894587574097
Pb 8.497623435271565 8.373002876481884 12.978421574167179
Pb 5.402920333735376 10.54586674685801 7.77989775366993
Pb 5.683761365395935 13.896843452563056 7.203999154028932
Pb 5.305082353020718 6.000767007050888 3.565311018468576
Pb 4.890845842000756 3.4107379915867777 5.426140817032973
Pb 5.256417665896844 6.551915476202342 6.934494904188045
Pb 5.475738257086147 1.9511674356364745 8.262873977325285
Pb 3.6804626877671787 12.259486652162657 5.229132187600019
Pb 6.245751339913937 8.205085964643256 10.23455105839059
Pb 5.4152394043152166 12.686686720744394 10.359275241837967
Pb 6.114350445815368 6.318396404874746 13.104447698009327
Pb 5.423700160980477 4.878723253866458 10.11989662017454
Pb 2.3622386898172327 9.754684163692527 6.765194106414127
Pb 5.505589877039521 9.84485278775868 13.02531962144984
Pb 2.7819635368686075 12.696311920699245 8.307603008660072
Pb 3.1473428941517896 4.205987978067466 7.934618545726707
Pb 2.6258893056587675 7.331802212067281 8.847438133544504
Pb 3.4468622074115887 7.502999987801567 11.97048080931716
Pb 3.0476219110060696 10.351774301828918 10.588479884676344
