41
Energy = -135.51687925 eV
Pb 5.889056347791988 2.2105101027831497 11.794739668319759
Pb 8.800911364040864 3.6939928461752993 11.782743129197916
Pb 6.156274249294015 4.890018042558769 13.449282253200266
Pb 7.783754939535053 1.9817076764428265 9.106586368595211
Pb 8.424323751768599 7.103833158617514 12.595236613012819
Pb 3.7032719191178125 4.7763209776123015 11.29321893892365
Pb 4.490217389119768 2.422084005234552 8.950866237274699
Pb 6.575985051549717 5.050695321092667 9.856850940342106
Pb 10.86988085282103 6.7106448893585995 9.514736959859121
Pb 7.318423170789756 10.229439135374603 12.673574201432833
Pb 10.638890343171079 3.6504594735755846 8.875030619101803
Pb 5.09985267217034 7.885419021719699 12.304934089954903
Pb 7.192787638900942 8.397992161557324 9.707638853541276
Pb 10.098005058537243 9.509445853278812 11.063885899536894
Pb 6.201266059190037 3.804672612988851 6.460816990985904
Pb 3.186085958513398 5.144450493988516 7.8219049850790885
Pb 9.411596284919865 3.25983753282751 5.980411896644096
Pb 9.895462654169583 9.426951147675233 7.5897758014486705
Pb 3.3409913460778418 8.153667192714398 8.984318982160984
Pb 11.98015374905288 5.345585144338301 6.278515152278631
Pb 13.064067063583595 8.03917452197295 7.634605030208167
Pb 8.661880792290148 6.249632039604051 7.0568252505925875
Pb 3.726707823128449 5.248187230863551 4.573052406944531
Pb 4.9867947720198655 10.706359583748307 10.444203973826886
Pb 6.596042721875776 6.411611997097007 3.6361025081972342
Pb 1.860062256081706 7.489831966781718 5.988951505348826
Pb 5.406898400477446 7.540117882862287 6.552148009613079
Pb 8.027479099139523 11.603946294704254 9.823639816012976
Pb 9.842896262826065 5.927701912073594 3.95582399955156
Pb 12.4870273616651 10.818950330745258 6.437855792813516
Pb 12.260480916608646 8.181275529987227 4.393161974382831
Pb 3.4627915670532508 10.313861315497794 6.244779067205639
Pb 8.118255988535935 9.296395412896377 4.534254411023755
Pb 3.7379140223438996 8.393537607856922 3.5195468686474323
Pb 6.5677425189838194 10.832889557597573 6.9275146818189866
Pb 6.511003832483805 8.917703009009106 1.5913752622232908
Pb 9.960121557040202 8.766090992687593 1.9649602426560742
Pb 7.976573531155349 12.829675117580189 4.799781561118825
Pb 5.437361338843351 11.393766561822472 3.5536599758266822
Pb 10.72474102834751 11.32620052954615 3.823477233312487
Pb 8.279227146334907 11.61817191783225 1.7957383146758796
