45
Energy = -149.05305706 eV
Pb 9.580960067919834 2.9590704713857923 4.045405583997416
Pb 11.686052560138286 4.281650784453696 6.261480605780008
Pb 8.620425353202332 2.713939320606725 7.116113134644346
Pb 6.334620184083103 3.5437198646950594 5.071135822725851
Pb 10.800414824097153 5.699143474821563 2.7044072257921306
Pb 7.58166999883306 4.898958397849166 2.156765938144142
Pb 12.348657300011185 7.124908354972974 8.10284361011229
Pb 10.804312036503045 4.020404190916103 9.402366630390105
Pb 7.747185879547411 2.6016021657112027 10.278825503326999
Pb 4.965495916234704 4.067767221014067 8.996208053337135
Pb 12.69949654374153 7.0940120414755565 4.886916414764525
Pb 4.463516221671464 5.8094015114759605 3.2082967706635106
Pb 8.796550532525794 5.769219327870777 5.505265789950709
Pb 8.982047148968425 7.803823386227365 0.9778997779186396
Pb 9.473827002550674 4.179611113977911 12.318203037270418
Pb 10.712921932858182 9.21721192599574 3.5439107031129264
Pb 5.878050606922774 7.138984506581133 0.4565055868074167
Pb 9.56015506537915 8.646747817966396 6.813942709151407
Pb 5.969565966260767 4.92095260959151 12.086483443565594
Pb 8.010722000614015 5.783653043314909 9.532767871026037
Pb 11.012578495338037 6.971992722465573 11.180697809898088
Pb 5.687546725611907 6.324329582130871 6.819679476260281
Pb 12.395928641425135 9.97253994618249 6.300050990755132
Pb 11.358334909470651 10.08466643408202 9.657253792026681
Pb 2.708922649380221 5.2244599629502595 11.148440914099153
Pb 6.895036966566184 8.115704424844763 3.7479737809264333
Pb 2.5227418072959202 6.538378459013807 8.140709913086372
Pb 8.184672281662891 7.115363118950512 12.956505857583375
Pb 4.915776728979414 7.736947214900473 10.18112088128212
Pb 8.23797387597965 9.133780867165523 10.014554760603923
Pb 8.98329293037902 11.917829376326718 8.037559210641302
Pb 3.866556845463829 8.951700625061424 2.0632761828933672
Pb 3.5951902371958617 8.33990502220486 5.260543541225397
Pb 10.141880150691202 9.799859009096878 12.77240373210757
Pb 6.789594791177963 10.228561876294723 1.3132798373449723
Pb 6.275324356446242 9.678310759307605 7.052282394371635
Pb 8.523151428047397 11.08627271812825 4.927156684261679
Pb 3.6774234992171326 7.6227053129400835 13.108215917510835
Pb 3.081009802376683 9.91614706999667 8.464701278140549
Pb 8.868956255001335 12.241574466538003 11.33246427208588
Pb 1.4762547392711394 8.152062706956405 10.742004482585642
Pb 5.220076064839853 11.055640966903448 4.140761202087397
Pb 6.721444984501158 10.183396931683207 12.72121078114585
Pb 6.005508027754478 11.838380495228282 9.847697612749059
Pb 3.4994741074527624 10.535110485952602 11.61761558151075
