49
Energy = -162.10731988 eV
Pb 3.4968924894981877 9.11812487177289 3.3982952740258288
Pb 5.371493991664751 12.723891694194021 5.523145131143414
Pb 2.623727968424532 10.896886699730052 5.927312099631195
Pb 1.4402295727109207 6.784510716427443 4.7841547277667775
Pb 6.4141820349655045 10.971733435053732 2.9029549963371517
Pb 3.3709154679165336 6.088336891445414 2.0905659525149423
Pb 6.482246663801355 7.715897533496367 2.847549434961756
Pb 2.113877465182816 3.72962032599789 3.97319366576385
Pb 5.837990806298024 9.502844925314411 5.789218528810296
Pb 4.4565134938044 11.474894420531163 8.620954971046773
Pb 2.138742310755372 4.356042390750361 7.201325683098824
Pb 3.3013509295548946 7.833294378901645 7.407752222910367
Pb 8.647935518198912 12.336011842171342 4.900233541918685
Pb 4.709631039475326 5.914436251729119 5.011654876381301
Pb 5.1953104869796665 3.4049026007893732 2.9634731365665803
Pb 9.321825441372184 9.223550616475157 3.7368608571910946
Pb 8.02546837700132 6.964962231892328 5.851336621028955
Pb 11.903389278351789 10.871116823632574 4.792170795546641
Pb 4.016115462383767 8.699483436181861 10.53406476021085
Pb 4.4222163923474795 2.2399850536095505 5.949122957180826
Pb 10.946877325727685 12.973676470939782 7.075470157649432
Pb 6.922031558208598 9.422978560414748 9.200711420973276
Pb 1.568642956256852 10.189391174555736 8.823375626383614
Pb 7.757984218729412 12.588149664766753 8.077574487982407
Pb 9.58958738711415 9.83749927910238 7.012707308028599
Pb 11.113196962828106 12.122332938914436 10.234572019452624
Pb 7.493732736786774 3.694161081916053 5.340945302196338
Pb 3.3299988760368406 5.510043993641984 10.106128844033769
Pb 5.669430759357938 4.946375511876563 7.959427641862509
Pb 10.69237268639979 5.260714942781206 4.955635450888191
Pb 8.338390947193789 11.428293974275412 11.514333486243832
Pb 7.563810794051111 6.419860574526055 10.237944305130906
Pb 12.90576942636599 10.414971135720204 7.866964790096017
Pb 3.819705034919298 2.2614421248986347 9.184336663894324
Pb 7.283926440581481 8.666482130844273 12.590194236701034
Pb 12.75353695088615 7.775190117363247 5.678685164158907
Pb 10.179326943247801 8.816040806236655 10.297125422480583
Pb 10.49009525355503 3.0292061599012303 7.380175571323014
Pb 10.56000267755375 6.272718710031131 8.108810198816931
Pb 7.087103847582404 2.0306681082557567 8.31877693988419
Pb 6.034259434697392 3.6228614073258525 10.983415038202446
Pb 13.292699696789695 9.904684326100346 11.106309270225623
Pb 10.485181341533005 9.432186273938365 13.42419148262561
Pb 9.411133986682424 3.747849111261864 10.418394950893344
Pb 9.51740250619296 6.299060374769039 12.850116210338957
Pb 13.312769600022389 4.734395561790932 6.72478953893774
Pb 13.814615982212505 7.2558404091876545 8.894428247998214
Pb 12.500453250113353 6.970737227488047 11.994608270810978
Pb 12.619165115976113 4.289853806335092 9.810322223658945
