48
Energy = -158.70117901 eV
Pb 7.326533897699364 2.3572897413189042 7.230157979216893
Pb 9.322824221156033 4.104251619331538 5.017640411232643
Pb 11.899010164828928 6.108579150922533 4.147020642729157
Pb 5.958198193436251 4.37896468259385 4.783929845969016
Pb 6.196120436909159 6.413951340834719 1.244012105967398
Pb 9.04019657844784 6.402369158900127 2.661425044785751
Pb 4.133649216512574 2.8149994144630015 7.017318466168507
Pb 3.4749837618637325 5.987043384947902 2.9421588774304603
Pb 10.543238640049294 9.061335345907318 3.6372425685643486
Pb 11.774569365758278 5.094233852907758 7.202729311747874
Pb 5.653387953946483 2.4623025038995077 9.9484120051507
Pb 8.655123833606476 4.2046820178831705 9.829284469207694
Pb 7.524306525567062 9.406379679989715 1.9202802880113816
Pb 6.202320820906163 5.412525434357552 7.95790876900659
Pb 4.2607303191743044 8.951280403052875 1.4801713339646752
Pb 9.213610342494942 7.187373529893638 6.0472850850170135
Pb 5.837309187640676 7.794219966607861 4.405838275000578
Pb 6.991335772557479 4.124258633376978 12.842050958132914
Pb 12.229737370375377 4.683599005483392 10.538559311105606
Pb 13.991911105530557 6.899472660032801 8.955258264765
Pb 3.188309854360291 4.7167138870713865 9.54112414143826
Pb 12.302112223987425 8.409588038067522 6.555241496391948
Pb 3.367139831425084 6.233344351295561 6.360055018880799
Pb 3.904326846899486 3.417607289513536 12.356146327356184
Pb 12.626340733812844 7.594778702746359 11.888495257561612
Pb 9.940544192819806 5.579666365532505 12.877488083741138
Pb 10.520852798592546 7.295348891719382 9.381546720598596
Pb 6.655310178322353 8.911134934040847 7.642733547360745
Pb 4.6142439158827155 6.506254095124042 12.827034326659486
Pb 8.448601577348839 10.798093318781081 5.49242682861905
Pb 2.5431798436017248 8.82823454658295 4.1386980005882625
Pb 5.213297581746432 10.95733549175199 3.845610076475228
Pb 7.4184337846168145 7.024025616446199 10.972853883439269
Pb 4.379893000187535 7.784258459940787 9.741766166312367
Pb 3.578058057511477 9.681724356930447 7.009639769310556
Pb 12.741298384369967 9.83085522978026 9.611780153730663
Pb 7.395031025446624 6.93567735239405 14.555416182732452
Pb 9.210194479983256 10.359580434682112 9.063402807270958
Pb 9.47498053091287 8.81159947721233 12.74188949112148
Pb 5.853486038948327 12.152247689871043 6.925126050883069
Pb 6.128107233272205 9.413167889092406 12.909366071109446
Pb 11.044001026810614 12.107960161461994 6.941532442773918
Pb 5.94647243877462 11.06942930269783 10.074200432189404
Pb 8.56486364959845 14.096248504559712 5.925627978193499
Pb 8.501549020905989 11.885194114193988 11.832366766332918
Pb 11.17895692612046 12.920444979741031 10.234767736215618
Pb 8.087048766209858 13.75796976073903 9.135875057042764
Pb 10.781874606723818 15.083432519225399 7.950959844645347
