48
Energy = -159.11092912 eV
Pb 13.068728639202572 4.194243624185701 10.930402640418427
Pb 11.952106306453159 5.627620601295207 13.6980818975492
Pb 12.810433617110192 7.425776125061141 10.903520750973595
Pb 12.090027260300571 5.2359598378443755 7.929310171924197
Pb 10.676406135659965 2.8463875894752264 12.672257699760722
Pb 10.637543443784574 2.521292902657693 9.33746801140275
Pb 12.563300500769078 8.704765187045403 7.659905037018373
Pb 10.037524506452842 5.73701009395121 10.60128258812787
Pb 10.18226942795406 8.230048175150873 12.905663158134931
Pb 8.612660928310083 5.335968805287789 13.654148688259973
Pb 10.856282333448544 10.147463885484575 9.942658680662317
Pb 7.848047554546482 3.3299492155980137 11.039956302706008
Pb 9.577306748299568 7.3590678600447 7.559300127201678
Pb 10.55542009900381 2.6198014007052906 6.005508479763014
Pb 10.655563627679008 5.461198638646971 4.6481966389252705
Pb 5.408661975200311 5.381846103608416 12.174286416919692
Pb 10.558331935273243 11.412897489737423 6.638904141759782
Pb 7.595150297675264 1.6156074804117977 6.0068900722948495
Pb 10.809242054226285 8.598556322369701 4.7861339420645574
Pb 8.159172019009517 4.283316801125714 7.6723606410711875
Pb 8.123217038457943 10.915479341132096 11.51826959884935
Pb 6.8865259768337 7.127798746685518 9.858358080229197
Pb 7.922998157917767 10.148555695695771 8.271131620060252
Pb 9.457793684894188 13.049978929715847 9.188443074034973
Pb 7.707770030020252 10.136117124444558 4.749732937029899
Pb 8.217219857742297 3.6289359052314216 3.565310385222869
Pb 4.96098563473579 4.407698735761382 9.045168228557817
Pb 6.882195829001388 8.21167719929777 12.977218489861073
Pb 7.572420499980085 6.634792349985038 4.925323315545096
Pb 7.604665535325028 13.029141679654286 6.415321375584412
Pb 5.040378539197716 7.190294154811591 7.1108913460570236
Pb 3.341547527127202 7.024271324423818 10.109699875110563
Pb 5.023196247006419 10.662634988810689 6.722461819516281
Pb 5.413295942074273 4.0225681591252 5.6068337966997746
Pb 6.2220878855222335 12.801217671040458 9.306944323059016
Pb 7.465517136030001 7.473330015067403 1.7803180259672533
Pb 5.123318356468496 9.82440271244372 10.275676005527718
Pb 5.447020754958856 5.138187275453641 2.4595372853050046
Pb 2.222585175299613 5.399323916143252 7.5543023948828605
Pb 5.170799047664227 12.376236546388006 3.7334621576155302
Pb 4.746881716833889 8.775023744956737 3.7894471178272178
Pb 6.539421006350905 10.536992665595864 1.448544420141641
Pb 2.2410788335455747 11.197636874286442 4.547859609144941
Pb 2.7323361799806247 5.7049903371770725 4.298613124994714
Pb 2.092719660359066 8.327098542655737 6.142292738669758
Pb 4.299807409456293 7.970086926488087 0.6980951707815449
Pb 3.291061491965896 10.957295663030449 1.4679876025179062
Pb 1.6299965309037712 8.467330558260311 2.728289554906051
