44
Energy = -145.33711423 eV
Pb 8.596464155922735 8.878123450377341 12.897845172752366
Pb 10.908371045803436 6.537026183147701 12.8190197762529
Pb 7.773797248700162 5.587964686673693 12.14405316057103
Pb 10.385712209116464 4.233906684692006 10.463128805137583
Pb 5.456934462321245 7.8433226434322645 11.807880599425127
Pb 4.715777746696353 4.50089371274476 10.989144628339245
Pb 12.893349012558216 6.97846651721611 10.276120510895701
Pb 6.327691515132463 11.024742043292349 11.961658842668214
Pb 7.376346283562196 3.074234217124428 9.773015543341906
Pb 11.628445002766734 9.543001404051374 11.602527387470525
Pb 9.375070134946881 11.759198362244486 11.036683096415302
Pb 7.3924620304362305 9.778935140983501 9.229416973187638
Pb 12.216432026236577 4.731244894651377 7.7909600069699865
Pb 9.74831138613653 7.418825301262508 9.658326247015223
Pb 2.917863863583851 5.934407128805564 8.799170408930483
Pb 10.652511669008584 2.273715899427761 6.195684598730417
Pb 4.046458099157301 9.053537050200182 9.129973986982698
Pb 4.382928735726354 2.8798976194706842 8.062406410314514
Pb 6.258966773951973 6.458861887704928 8.945302866923418
Pb 7.380436806555973 1.9945553587876022 6.693023715723501
Pb 8.95737848893758 4.90541356397168 7.200700125326097
Pb 12.201170673496232 7.975605652366234 6.989991223318392
Pb 2.267549919808137 4.490036907119792 6.055762918850545
Pb 5.053394203240545 12.390639815993763 9.15123645579612
Pb 10.657862014328115 10.517060716459566 8.30972092037522
Pb 2.9203322708382355 11.234352769153027 6.867257256929591
Pb 11.460250019523608 5.2286208400216445 4.754427286287122
Pb 3.405203890715409 7.834363017638413 5.905783243470525
Pb 6.176918849226837 10.351940403316469 6.274663280436235
Pb 5.7519768182030155 5.357246076574272 5.78182711508095
Pb 8.945946820150645 8.256207662363748 6.213769905788932
Pb 4.653823435641079 2.4828457787571665 4.701307756472516
Pb 7.949710902931949 13.010813033315516 7.563175202701431
Pb 8.726716892714224 3.2200982004496703 3.914095976949835
Pb 10.045139540098107 11.389695875148725 5.287181685926042
Pb 4.92465302806601 13.709026466936756 6.2415914541007105
Pb 11.228117149879235 8.556588853156907 3.93120909772134
Pb 3.3868687782969698 5.302594382761661 3.324539190197161
Pb 8.913865010845923 6.458992693705886 3.0566429327414704
Pb 4.37078235982987 11.4612415392243 3.929760105157216
Pb 5.560606267255338 7.81769909118171 3.454837303841409
Pb 7.3247933456664125 12.943200660409369 4.294226105735411
Pb 6.277995511796248 4.604775238819758 2.403049914978305
Pb 8.145914864705665 9.804565708176588 3.208668013881598
