41
Energy = -134.80604711 eV
Pb 12.816755484712171 10.384294329658157 10.364275100848847
Pb 10.451944394604388 11.338002865160066 8.161622756240899
Pb 2.293732158291333 9.958463016738001 8.48609586054669
Pb 8.466715498914882 8.709921389353694 13.142158506429052
Pb 4.653163203271452 4.780448774355925 7.434539697185689
Pb 11.86878705058983 6.07763144320206 7.333415642582902
Pb 12.870737336051409 9.277288572036332 7.3407647226648844
Pb 6.650805743838184 9.590255574534917 2.496310121014303
Pb 8.98868687065989 11.627424469926392 2.4114858360614897
Pb 7.364447703848777 10.163967660570439 8.605082858935399
Pb 10.193679541152195 8.205059756490321 9.955515344422476
Pb 4.759577121151331 12.021948400671144 9.147831491135571
Pb 4.278612100172846 5.503934836372988 4.172014933668876
Pb 4.792266997391004 10.612835867094088 6.208098424754274
Pb 9.646956172005341 8.406845746759775 6.409350970843763
Pb 6.538765497785589 11.12831564454257 11.765380377797051
Pb 1.834143086835187 10.38271705956723 5.310222665946958
Pb 7.858840331276576 5.742148010080901 8.2821616171042
Pb 13.206334631965557 7.145738806374077 10.639443204079335
Pb 7.097956585567944 3.8873002189949464 5.502081027522826
Pb 3.701378000920647 8.57956927588456 3.4212796826879237
Pb 5.530170396379695 4.4751141634722735 10.628069073388067
Pb 7.121829426715006 6.4437174668142 3.010769815513978
Pb 3.78297256375862 9.717407807831764 11.334003319553016
Pb 11.641603610787385 4.335338295258154 10.144813553434322
Pb 2.694378844677928 7.439372243163583 6.360079761180413
Pb 9.939591368620098 3.3489777894922814 7.501712369988556
Pb 9.770181532903827 8.454770718324488 2.5514925349781894
Pb 11.711704504743917 9.035686297570038 13.00256218052243
Pb 8.681299047693605 3.501837975628449 11.13545452436007
Pb 8.018173183825674 11.075480378756085 5.344984517498869
Pb 10.56404832207081 5.969578940851802 12.694955522307266
Pb 6.239369575495564 7.585222720133677 5.92791413379437
Pb 3.248052668736016 7.011456164167751 9.702490402494197
Pb 6.9103061486382105 2.4948004129689605 8.515068361426117
Pb 11.29044581114693 10.714101990912475 4.530810249557774
Pb 9.843132435438168 11.32106486384551 11.37346452196236
Pb 6.381078878501816 7.812003828084374 10.60603598309996
Pb 7.2313921470303955 5.7665263035346195 13.01757314035169
Pb 12.320075699646207 7.703016517296212 4.457269032889934
Pb 9.85637052382763 5.380875605167798 4.681808360867984
