40
Energy = -132.20485657 eV
Pb 13.318344880041396 7.162203766632477 5.678810353621099
Pb 11.536514357615353 4.4882678709948065 4.919726927889164
Pb 13.811830291870304 9.9119764373644 7.3234025478553155
Pb 13.421032601594453 7.254247792087153 9.012673953025471
Pb 12.250413559710074 4.3127183260539645 8.32269589375988
Pb 10.007897894817923 2.5092044746153688 6.85277408146892
Pb 12.161172560159853 10.031815757875838 4.52380562180194
Pb 11.733175169801848 5.817263109862268 11.475063403283974
Pb 10.279631027482207 7.335325346764612 4.201411321367417
Pb 11.279463768858205 9.136961362358061 10.552656279664726
Pb 8.005964800348984 4.393037467104518 4.762214943767785
Pb 9.620978757978706 5.812265723059741 7.321044293502463
Pb 10.477952754339407 9.115228442742477 7.26785821385892
Pb 11.714658751619254 12.216992352650246 6.850833172439757
Pb 10.037553892508924 8.138869614133368 13.290123190668597
Pb 9.402708421107906 3.6307014176267947 10.23164995367642
Pb 7.059342998469512 3.509239406551642 7.899701840097472
Pb 8.670356424195004 11.927729070021867 5.928948213107549
Pb 6.944635840635948 7.349708060105777 13.56185823172074
Pb 8.614907861006396 7.108695591893811 10.342812575608068
Pb 9.050357323580323 5.016457472949932 13.168781682835304
Pb 9.672569395477876 11.998674627245814 9.380854805045827
Pb 7.634709960911039 9.042375648282853 4.9941941352099475
Pb 7.709403506352758 10.240612130727884 11.451687803838036
Pb 6.250439670576199 6.849019921788916 7.0357484734392965
Pb 5.66971862338301 6.669462503562703 3.759873775680034
Pb 6.360956266962612 4.884839466493616 11.290921248276875
Pb 4.788192709783698 4.020562636502368 5.428758350029796
Pb 5.262506198347238 13.054036963394191 5.973454125794202
Pb 6.430287904143583 10.881019472468923 8.313503330353603
Pb 7.662686567525378 14.304084486454594 7.82298004283768
Pb 5.414865605494076 8.071843909973083 10.810757355587642
Pb 4.49519750197707 9.581173071849259 5.439937368488149
Pb 4.102174345885475 4.99095379206944 8.45509550416015
Pb 7.084826350162882 13.505534272112387 10.951711034685298
Pb 3.3333832969891786 8.33486807117904 8.421314987853421
Pb 3.0408951749558444 6.6758176086954855 5.713366898859014
Pb 4.659711499392243 14.182442681949931 8.984581159516816
Pb 4.494920744535109 11.53995727111952 10.970233120147624
Pb 3.1280636493156933 11.588215510594448 7.906582695088921
