40
Energy = -131.94082064 eV
Pb 10.591291144627844 13.954804425598404 7.5588488960045295
Pb 10.266563520010141 6.966883871974726 7.3521831297351286
Pb 7.24104587946923 9.75427515960066 12.713122041613698
Pb 12.11396560900387 8.206273048232674 10.444115677953638
Pb 10.01993918287998 10.688716027029225 3.216970739641232
Pb 7.717163212202182 5.629071957072705 9.3269102111379
Pb 6.443237435147025 5.813582113410393 5.65491635710565
Pb 13.10470037317343 8.641176417649504 7.211409432470731
Pb 8.579270726357478 9.179305890793353 9.690669685219438
Pb 2.583929439462864 6.597277345975611 9.413021380997506
Pb 5.293584386909814 8.130753532873724 8.383658404511204
Pb 9.25915040806004 10.728943384282578 6.610402446311134
Pb 4.944266874452929 8.767929995532292 5.002906369295029
Pb 11.835467483653618 11.259045421537447 8.940395936544189
Pb 4.692171448398031 11.176700959382053 7.23935252648519
Pb 2.2687350183538513 8.996718970975481 6.936371603824811
Pb 11.482501307924878 8.067933517044438 4.425466497377767
Pb 8.732345459462055 12.49080073998499 9.86416581325006
Pb 7.731522914240778 3.1641390652531194 6.9112533342929545
Pb 9.666054770986076 7.532131362415665 12.510742898868305
Pb 7.395370183190684 13.502533702331206 6.898094828222008
Pb 11.007815677983494 3.6397595465930235 7.5379731401224355
Pb 6.591340022557175 6.73945115223644 13.5099369175624
Pb 5.131094296629675 4.886542524768868 11.319437076582465
Pb 9.803475234784312 5.016964380035719 4.6423758465439
Pb 5.727527715817142 11.204868304370809 10.35720338281607
Pb 7.008707525862697 11.520880456714663 4.3460750623710975
Pb 10.51536881386111 10.732949626248088 11.871279748787593
Pb 11.210331699576312 4.918092152658734 10.908736540555225
Pb 13.387673608483123 5.720544795626134 8.684641398538329
Pb 8.336977166783747 4.323526940271907 12.374358409296693
Pb 12.820935517650646 5.308775305740079 5.574070929201386
Pb 8.226672127348536 8.078465162089868 4.164868033766787
Pb 3.285372259326911 6.07214451307877 6.138967145154897
Pb 12.203667084814404 11.746933937871052 5.595750303366556
Pb 9.006060443145467 2.6184566808924665 9.79872742734375
Pb 9.600307391189403 13.547000218898434 4.548118557570362
Pb 4.21887443194915 8.182255515146522 11.991358440013677
Pb 2.77447485066389 10.017970275430518 9.84518552543745
Pb 4.88227224847777 4.176646497249857 8.187182798978306
