40
Energy = -132.54346767 eV
Pb 11.19430457650899 7.188255941150825 2.03444337959348
Pb 8.567818888415482 6.24057435127703 0.26751323708003344
Pb 9.313293565240947 9.36157890002937 0.449587495463954
Pb 9.232258063106215 4.680879090949041 3.099213015345133
Pb 10.305417854192775 5.833841163447781 6.39867220692984
Pb 10.679732981740734 10.300500039467725 3.190282165282426
Pb 5.844283178312857 2.4558158656162776 6.3758892682564765
Pb 6.1996820734349924 8.52699722340423 0.8322792299049702
Pb 6.1755063112426445 1.6062789680096723 9.606191721114548
Pb 10.774752136470962 9.007073683811518 6.206310679301892
Pb 8.673800731456488 7.820902890423353 3.832867658584087
Pb 11.459458383895287 7.786686210661201 9.1610072361647
Pb 6.134347983378688 5.5987714698548485 2.3372387527885468
Pb 10.933554291182375 4.611100520565033 9.815825265179814
Pb 7.445042023981409 10.908141491040759 2.6932062967692847
Pb 8.604701976732358 3.374975469765255 7.954634965070295
Pb 7.039678698502357 5.434918117898996 5.524705607746574
Pb 3.139982201576062 4.574327319729982 6.153715617499425
Pb 3.19564677891527 1.9274416514844441 8.101588603048263
Pb 8.279149536689864 6.563159223585275 9.050811304545045
Pb 5.892756816823702 8.113155494780283 7.403633439462363
Pb 5.571646785394541 8.40504449852303 4.042954737259914
Pb 7.895180569105784 10.507561340934014 6.077091226755224
Pb 10.883300656572159 11.48767128735088 8.419420601231554
Pb 1.6299125067913796 4.509652146440924 9.08129873363283
Pb 7.994626371146597 3.9629107499563405 11.124699404292393
Pb 5.1595125590742 4.758733770947471 8.776232147357547
Pb 8.153860835867075 9.993500419799776 9.466859311602482
Pb 3.6637176604531425 3.0775090092617035 11.169915782023555
Pb 9.836753241481397 7.025182022880565 11.918599249530482
Pb 7.922305494075503 13.138183152293415 8.188408125328674
Pb 11.028827813028064 10.082052512924072 11.501381174454702
Pb 2.8181166032501017 7.315650883860096 7.980989137850771
Pb 5.228695177771943 11.337084761528521 8.081638228612642
Pb 9.399927076993594 12.790606680825206 11.101702864665718
Pb 3.463714939063219 6.43508426308706 11.035010399354759
Pb 6.595324459947987 6.776351362748389 12.045461989557294
Pb 4.982334838194689 9.420994990963623 10.769120439449155
Pb 7.8048928094267875 10.099732798398762 12.642132335602593
Pb 6.222938693930994 12.489071127330941 10.970131176869279
