48
Energy = -158.97798263 eV
Pb 10.204827759771895 13.548043805795743 7.60126700687187
Pb 13.190782630110887 12.086626194159678 6.874845081250351
Pb 7.41111576924202 13.421965904591413 10.722903053054617
Pb 14.943577423859923 9.052748932560668 7.082505103580122
Pb 7.761520232935366 12.033570005126919 6.190286386270007
Pb 10.982160439227004 12.51127248185871 4.6778976237034895
Pb 10.426949134782927 14.354400455998539 10.685127303249804
Pb 2.026500641083864 11.845173827741636 7.653806137775144
Pb 12.402926760097461 9.545642717493573 4.950747676389697
Pb 12.14951852776487 11.841758628249554 9.88280822030439
Pb 4.167287790433045 11.759739391894655 5.337792175937886
Pb 5.167432383182089 12.678268384029165 8.35318229684705
Pb 9.779596064197927 11.508874646631321 12.141189055597685
Pb 14.090791723035899 9.011736575842232 10.231929629014434
Pb 6.745819358665251 11.577524112028645 13.229742593200863
Pb 10.275113850266274 6.893073756349358 5.114858175885627
Pb 7.642521480376713 7.066966919042225 3.2573653903408153
Pb 10.273429739845911 10.19518236854304 7.317352511141746
Pb 9.030346815902877 9.994197998428913 3.9519125690438344
Pb 15.745223346517928 6.480202948926094 8.873723266133057
Pb 5.196702725919199 9.088769267661558 4.063500671161337
Pb 10.666391425100594 8.732396928761142 10.3345684469451
Pb 14.372246624119263 6.023655404284536 5.902694307845753
Pb 4.638859488490203 9.404730702730163 7.619586876228993
Pb 2.1564274525742597 9.04678022024524 5.6240517620559345
Pb 7.148733130023606 10.250027280679484 10.098453253418011
Pb 8.464218803130867 8.658986665192824 13.054657869980666
Pb 12.398469045590472 7.061300046497657 8.0569235639488
Pb 5.263498156727334 8.831771544488078 12.712971206163893
Pb 9.086603312511631 5.919749977154883 8.369367029481706
Pb 13.229306580522405 5.976085309031683 11.048047572394571
Pb 11.051575805936675 3.875712893042045 6.568080078849973
Pb 3.5774611090648527 10.840707485040113 10.5434560934428
Pb 1.383102583119093 8.970275781024348 8.77538519046421
Pb 4.95267832028608 6.038413145001266 5.171688457778213
Pb 7.482333552009072 8.125011900015336 6.39206819799663
Pb 13.868470746750816 3.982387441949932 8.44127147418594
Pb 6.1453889560826775 6.946738984381842 9.723476800148688
Pb 2.956507744147263 7.392581120159406 11.095475703520973
Pb 7.865753620731817 4.530567617663277 5.392562637669273
Pb 9.927418926586103 5.884727675769616 12.02997614126854
Pb 6.609718487234454 5.79294793824311 12.852441828346526
Pb 3.2154788055354135 6.238607435711376 7.98550103217511
Pb 10.88977656894564 3.5350493957583775 9.877689500197887
Pb 7.516939029539317 3.7018462698525663 10.603337715714668
Pb 5.497604502599788 3.7641678439308364 7.750286169452196
Pb 8.46054800880915 2.3658372455413077 7.829902102611368
Pb 4.325313870675539 4.378165678958475 10.716306315023084
