47
Energy = -155.3302204 eV
Pb 6.439360859702651 8.936399176966715 1.8171548943853808
Pb 10.25750783293258 8.821030028071055 2.3791260511930634
Pb 8.639258730556808 6.104698358369292 1.5711793538923036
Pb 10.404385915997048 11.697688545559885 6.6184763781593725
Pb 5.301425571448085 5.890778986585874 2.403973485881926
Pb 3.2137844950552203 8.428707732857845 2.209589654858318
Pb 11.241365521841034 5.8393910816045915 3.5514749950263136
Pb 4.598566699689047 10.963532191323033 3.8658387922610964
Pb 8.16334831774284 10.338197991924574 4.327149880619577
Pb 7.172174635660159 12.3689317834395 6.5233286359359255
Pb 11.127911096400195 8.758075563961247 5.549209509938765
Pb 5.270544143109032 7.9868421959130735 4.911345181936967
Pb 8.347091928044826 6.976629093029838 4.730199617837005
Pb 10.159710720983067 11.482891248870143 9.748359723318565
Pb 6.699859198530255 3.8267973551349757 5.175774509295494
Pb 13.040251687446213 10.019339435822634 8.44776388938286
Pb 9.163873034718694 3.267673936000669 3.1119528417198055
Pb 2.687052549292505 6.0482560776048695 4.378469664581108
Pb 4.63782778131372 10.253543367434965 7.321865263910645
Pb 2.113147670464552 9.13704039064668 5.203265212164836
Pb 8.134536165168083 9.37904429800645 7.6181987896305445
Pb 10.179150204443921 4.907170519752827 6.745824745417073
Pb 13.412048187036389 6.905121994721627 7.100542959261378
Pb 11.78288499116256 2.8224976632293624 4.890227577084888
Pb 6.254762036627887 0.8879777838503188 6.496692450775325
Pb 14.087123359694539 7.319742651905603 10.221972330883792
Pb 6.7910638337724265 11.62742591242764 9.83207717586894
Pb 12.03818680841099 9.568885096903966 11.599868345106893
Pb 10.827908816325785 7.7179336861330174 9.031346174674185
Pb 3.627782831967059 11.65811338838742 10.262274313192016
Pb 4.71764933838827 3.483974545230955 7.6489236977155075
Pb 1.674261452864029 9.367437215316023 8.897122449386202
Pb 3.4489556412238542 6.822273134766261 7.579741969302029
Pb 9.182894763950406 1.620209505112149 6.0808465464733565
Pb 6.718505860382382 6.139123344917036 7.746387679009425
Pb 8.446777155183675 9.046468626510308 11.05685858426188
Pb 7.723293776645777 2.9637206243140524 8.634950108149242
Pb 12.25248280507044 4.781283351398067 9.346920289191281
Pb 4.870605459275373 8.373175940496465 10.217503364088865
Pb 11.503211032341277 6.451459692346029 12.008627717528585
Pb 2.11289294623033 9.516801607634344 12.145655121311679
Pb 8.482437381387408 5.713305206805159 10.449807337026288
Pb 5.3784000632370255 10.104264535954579 12.886845482000766
Pb 1.9535064631370322 6.54428239330771 10.579762224009736
Pb 5.02605656159174 5.082085485845668 10.897127638588998
Pb 6.813726758011613 6.979276452246887 13.004598334835585
Pb 3.6974976453165325 7.062353857344364 13.339645799337212
