53
Energy = -175.6287752 eV
Pb 13.77542487350059 10.736250422376461 9.045924228384434
Pb 14.401816025587417 10.611535990280377 5.846547033022379
Pb 15.44058447272856 8.241018678692978 7.843016137052473
Pb 13.043208717898642 7.788989495366255 10.042592022156509
Pb 11.527282964187412 12.06056332540807 7.03336424848127
Pb 14.421668439944154 7.409729903222007 4.831440139604618
Pb 12.944213343871189 4.582644822899734 10.422980405914778
Pb 11.96991662621763 8.59342526841404 6.637862637603814
Pb 10.278263787064235 9.856083584867456 9.231200897447607
Pb 11.737950821271776 8.106878028547301 2.9869915548115107
Pb 10.393154654663533 5.104177548651688 12.360480237612647
Pb 13.595577847600577 5.5954749689083725 7.42488190847642
Pb 8.778476351634879 11.232579878592682 11.954952548190365
Pb 9.027366473459644 13.053185868016577 9.298826528885709
Pb 11.20149909551756 5.538596391264115 5.005762843245001
Pb 9.400040282672792 6.298636897848503 2.0300203371573153
Pb 10.368509404424183 6.181313979178842 8.833902286679855
Pb 10.97684745010288 11.014895296302699 3.996479382755083
Pb 7.918411607651199 2.3882197480833507 12.460596773376286
Pb 8.81490481914969 7.798037327658906 11.501036231683194
Pb 8.863000762996334 7.848278308407498 4.981636590347979
Pb 8.269147348135071 10.880286515100515 6.509595892047012
Pb 10.464245651882834 2.710067443804818 10.064404949025041
Pb 6.409911070457911 13.434120662806398 11.222401689603258
Pb 6.753125880552905 10.49543957407208 9.503319189815988
Pb 7.923647117860998 10.477207287628348 2.931649539769193
Pb 8.888223365227793 13.311745814913701 4.550988938072242
Pb 9.14575169968377 3.6218710607722313 7.152853611855838
Pb 7.886282361459342 1.1632261074546668 9.160021731379937
Pb 5.6686058310264515 7.282806687446181 11.509650470487005
Pb 7.414770620951947 4.633508242219223 10.127197645927875
Pb 7.5930444026433 5.515796221114537 13.768749146638841
Pb 5.5554416012313546 9.264455477377169 5.333930536921039
Pb 4.986400090039105 4.218424971315978 12.614222705946611
Pb 3.636459514309209 12.1477468646412 10.088629055685479
Pb 5.1014072660798115 1.9732416499725391 10.423721718970851
Pb 6.469882921667209 7.315003104869019 2.604163244144939
Pb 6.407428729100036 6.20757343279266 7.040203213290544
Pb 6.058981993966107 13.347156230546439 7.838910979818826
Pb 5.464643821892619 10.663614644085982 12.556056281859853
Pb 7.950734039694998 4.552908590020023 4.240518403722659
Pb 5.834172747448206 2.9746060216387376 7.32595177251602
Pb 4.086904211567583 8.716321724130866 8.428743965326964
Pb 5.820766159180925 12.407942532517295 4.5139231524735495
Pb 2.650070283263723 9.240743588880386 11.363516692246698
Pb 4.009464959829158 5.027153155001873 9.495163438156993
Pb 3.3504303203214536 11.606882432219244 6.7159438631230595
Pb 3.3493033608388143 7.656733406243094 3.6375363388998747
Pb 0.987025279122735 10.582245246046384 8.886780349758828
Pb 4.876409518443623 4.778335110508452 4.1506145275107365
Pb 3.0394542673758527 5.948801047279822 6.485109910469964
Pb 1.2558326776893565 7.370701534234928 9.081501320485321
Pb 1.5914388369576324 8.91201203506322 6.156002725300987
