54
Energy = -178.59446124 eV
Pb 5.780987950750874 1.9500451387024063 6.79676180271896
Pb 5.795592877246384 2.884711847589421 10.104632979600687
Pb 8.867898794604711 3.2378959198816726 6.631244075877857
Pb 3.749635623421356 3.9823073001321516 5.140508226758344
Pb 8.86222188553518 3.992871691199902 10.111271534307097
Pb 3.0736301953112752 3.586990089844218 8.334687342345344
Pb 7.2677153607814615 4.8065476133416185 12.825680231377142
Pb 12.07768716522951 4.328689447526659 9.80596418494951
Pb 6.70955841859776 3.900159791833875 4.138140292995096
Pb 10.537246991659623 4.762578978653345 12.942142004169805
Pb 9.789921228813553 4.222636712496437 3.6762393232387716
Pb 6.095453381349456 5.0469774923228705 7.576099469490843
Pb 8.682226217686507 6.878101064773642 15.162021816663124
Pb 12.835373944665813 6.978681397885571 11.530704224010163
Pb 3.9773969261215503 5.388684874946099 10.965177895196339
Pb 11.914746379642315 7.202762113158076 14.58429189303058
Pb 11.787628893660568 5.316642864767583 6.205580008754684
Pb 8.697359369613283 6.5203401019044405 5.982919634311433
Pb 5.019292009075103 7.151882720477153 5.289016590484548
Pb 13.81482888256705 7.080198672793321 8.291593496259141
Pb 1.7420521141826215 6.557248986850723 6.109835560647111
Pb 6.896703991700764 6.900842820595136 10.201664788969284
Pb 1.1724957777596823 6.025521562562244 9.372385370244263
Pb 6.060865295525217 7.738406998973034 13.297960140483173
Pb 14.165644604484568 7.461167307434185 5.143478898955878
Pb 7.76812297016963 6.97413402010691 2.9898198956790463
Pb 10.35996098953779 6.938975498275891 9.159165921969397
Pb 3.818181053333824 7.692372544585628 8.484333659345195
Pb 12.946227637264988 10.19364111557985 3.921107650385601
Pb 0.6930977664526694 8.925065105353152 7.999499879982633
Pb 9.48126741511624 8.089088873723412 12.285921581633781
Pb 11.330417669538951 8.805227227968563 6.529555374649677
Pb 11.112495900489462 7.24562048727905 3.395256630249828
Pb 8.68260649248265 10.014626768523906 9.406577588625066
Pb 9.16592607398717 9.954624236114258 2.1871780987699694
Pb 10.50871310066011 9.957848064998688 14.838102984099613
Pb 5.963100166612842 9.947542693990474 7.162634308313487
Pb 7.548805075868454 10.645193881847687 13.771285608704579
Pb 2.8627196357817124 9.733149456719197 5.694858451418597
Pb 14.319787876157418 10.142246455231556 6.977113118268501
Pb 8.889020315743288 10.901239025901106 5.249250358277032
Pb 5.704610496618427 10.092046756576956 10.933900990484332
Pb 6.086220783360152 10.200150695704982 3.5987178093942043
Pb 3.1230638537265087 10.893489410656573 8.748247878999674
Pb 12.237758037296649 9.673044830223692 9.771924487454084
Pb 12.00223392902347 12.39501199152277 6.191277726016178
Pb 10.433240416995199 11.372384140807407 12.030240079337961
Pb 10.873614888603289 12.642915407719455 3.1033601689606845
Pb 8.986753067827843 12.828085799343919 7.9441328116356065
Pb 7.709620106750595 12.797256244743203 11.266482223868556
Pb 6.143141683869018 12.914546045562362 5.510316069287174
Pb 7.604912905281945 12.92395769774967 2.621269709831053
Pb 5.646730906509013 12.863389689163503 8.80754934510268
Pb 9.03969640641926 14.382902133036524 5.146976038449945
