5
Energy = -13.67353549 eV
Pb 7.426164850106267 6.635557071012708 10.455844690807755
Pb 7.039094955791522 6.911356747337207 5.237650676041713
Pb 8.939350792299736 6.74784682615352 7.8968095235650795
Pb 6.104869373151283 8.027644911184959 8.180864163330613
Pb 8.256210537171269 9.45743097283701 6.156455431398737
