53
Energy = -174.84493689 eV
Pb 7.655490648085796 0.12921897410041006 7.4946011604035405
Pb 4.75589819850545 0.8415640544311308 6.223802090076593
Pb 5.046136312021007 0.3540380638920681 9.393387067083967
Pb 8.082388283996638 2.960868634898648 4.918524760460521
Pb 9.93565558213937 2.4684372682887084 7.91149032549324
Pb 7.865019191013824 1.6945228632964253 10.419799324879984
Pb 10.53735654714966 4.791274482892964 10.51762366683732
Pb 6.405254197345018 3.216170235570698 7.912992782597947
Pb 12.364542784426096 5.695888412356885 7.84450419264158
Pb 9.964530692955384 3.945553722394912 2.3780785269709854
Pb 11.257716348603473 3.8362919021561943 5.309655956249455
Pb 4.617275267561841 3.8259320272894013 4.848785352944229
Pb 3.0547910008371706 2.886152061824713 8.191824241965104
Pb 13.15422791485593 6.65132554118929 10.952486140630786
Pb 9.437956670510816 6.854487412056412 1.2147940126700805
Pb 9.394137147171099 6.53191304535003 4.394292725884214
Pb 11.479338794076334 9.07312228351078 5.951644827855764
Pb 4.907297277196677 3.1167868806415284 10.961296291166954
Pb 13.793154664139548 8.56332705817964 8.480823032958673
Pb 9.0273931663545 5.546621241355555 7.52737446783074
Pb 7.353649699595307 5.6331221794594075 10.845351321421553
Pb 6.885959892447326 5.008826036258012 2.453857621160886
Pb 10.383094986323098 7.60535481712835 12.391176381381467
Pb 10.452808887123469 8.19105194198358 9.143331866542814
Pb 3.486224084017095 6.448798357815457 3.4320270874668517
Pb 2.242756726791251 5.640634607338982 6.43617872979609
Pb 4.358609526890443 6.013388217672672 12.257928075185323
Pb 6.04537962334036 6.706553047764882 5.736884647927759
Pb 12.546428897305292 9.875242290236242 11.279430855609888
Pb 6.812846149814413 8.301470128282837 2.6558771979298426
Pb 8.251670298985223 9.33883424180112 6.029873815709569
Pb 4.7375186686950865 6.036277251795679 8.892608356066024
Pb 6.5827566968632825 8.472153047916406 12.59827143900455
Pb 8.988654873619977 10.486554874137637 11.722177462622419
Pb 12.400766009614944 11.460870824862535 8.085469737323248
Pb 6.559904143430427 9.184635913958102 9.308247627112946
Pb 9.873780491529002 9.629750269743289 2.9801749686849135
Pb 1.2352780102912662 8.203489366483641 4.968188348003575
Pb 8.665757596093403 11.833518555091873 8.571801635038259
Pb 3.6759651452908724 8.672864818574443 10.890199242285142
Pb 4.161337314061624 9.463126064315583 4.320077336648445
Pb 3.391768507270588 8.724967287784446 7.392077423353974
Pb 10.380357269030384 12.184476633205161 5.403236297967077
Pb 5.597341402769343 11.37184302593957 6.642470410562419
Pb 11.165461145898044 12.84811143273808 10.72033859498863
Pb 5.942992376024355 11.778030841214841 11.465196263291256
Pb 7.338295329238079 11.503422895112125 3.8108933082355954
Pb 3.6745344924581667 11.500856722166802 9.279812125703373
Pb 7.720801065758957 14.104934245128208 6.001347530801658
Pb 8.240912489815054 14.187711602367207 10.933815904676031
Pb 10.571521614248859 14.459959996225665 7.857599666803908
Pb 5.77365770879369 13.982165036070919 8.800989613541386
Pb 7.919796758187359 16.214848116707437 8.382517848937253
