54
Energy = -179.05145455 eV
Pb 13.55616139027776 7.994945079395305 11.321129086707543
Pb 14.474711389810196 9.03545221783248 8.431355768934742
Pb 13.703885306775385 5.590467028017313 8.977848832050991
Pb 12.517731208603426 11.035635865273953 10.499284319557667
Pb 11.40969123176263 5.504000264917182 11.623042891138775
Pb 10.717471617387401 9.130719913970337 12.662830459403281
Pb 13.14610815694279 3.6868319956217985 6.374921634516589
Pb 11.173798696825177 3.2373180907714687 8.973029477387005
Pb 13.65510759635681 7.003149749160076 5.901268120749736
Pb 11.348052332776124 8.168153322056993 8.858154401509593
Pb 12.376153650931423 10.220092994395063 6.3766267134268855
Pb 9.92065794740079 12.270756047744547 11.968170270615033
Pb 9.13443610453411 3.160543637804922 11.593187510197103
Pb 10.51553188691101 6.164568105890253 6.3863695696414045
Pb 8.66037734645782 5.795098169770891 9.501615191224754
Pb 8.442092316995442 6.295136368937626 12.670341208640856
Pb 10.11891056910329 12.163566598615706 8.470865375003736
Pb 12.042225180309437 4.9501514192838405 3.6969980040261947
Pb 8.633620958308711 9.691717943303864 9.921864182620345
Pb 10.99762213123425 8.26042231550059 3.742605755367514
Pb 7.792226061834236 2.8275428985320405 8.532447128890222
Pb 7.575366611089451 10.05138547900503 12.797728627676115
Pb 9.26015407405994 9.627669857955306 6.291088825745078
Pb 10.02835260202638 3.0992023932913724 5.777908520443783
Pb 7.19992555509095 12.558991069730443 10.385490250930435
Pb 6.673991816843345 8.129584021286126 7.799801193063855
Pb 6.166591832891348 4.186090757185016 11.179461359726929
Pb 7.115086210004742 5.226351621062826 6.107929981468039
Pb 6.756289496638157 11.511652480132256 7.201034742029497
Pb 8.84201884859248 5.563540563668741 3.2991347670672395
Pb 4.566810429973812 10.51021243550559 9.653108510655
Pb 3.0874587570777456 2.9374914227386677 9.440725162045275
Pb 5.808467953722134 7.561579099516407 10.934819688383046
Pb 4.029376486392976 5.835713432123898 8.295106986475988
Pb 8.617565925126005 8.246250106574069 1.4036754550098007
Pb 3.131091615625732 5.398107956579853 11.50677728291248
Pb 8.521644024319729 10.904225822926206 3.307231954343802
Pb 5.892722548977506 3.9297338766309027 3.4021392907646084
Pb 6.644661458093108 8.33112242860396 4.212549790934944
Pb 3.8598344511658347 6.058234554445562 4.8852603967956
Pb 4.888957974977948 2.7535855925905155 6.4946727807169955
Pb 3.9112293013804518 9.244978148332411 6.497926679705073
Pb 3.6345035117994597 12.525620613072414 7.197347981390175
Pb 5.703538542637081 6.7526281942456245 1.5007520479830325
Pb 1.2274964869324392 10.534459486904433 8.083780751091888
Pb 0.670746470117383 5.15648015184853 9.356040208387336
Pb 1.6334460011187228 3.890596290867087 6.56502971877133
Pb 2.092199252424136 8.094824028078532 9.988224836928485
Pb 6.032875787368305 10.135250835021623 1.2843144350905689
Pb 5.107081462006002 11.531305071416199 4.155197365658316
Pb 1.1927835891957883 7.308308516361466 6.8683947364373035
Pb 2.942554908702296 3.036201611653125 3.8553621542272642
Pb 1.8131261448045601 11.156400004720673 4.937170424580334
Pb 3.484718358314954 8.905253731871502 3.006984775947244
