51
Energy = -168.68321473 eV
Pb 14.01698136240868 7.13869106603362 5.636977943943582
Pb 13.01019127926819 10.201606920418195 5.815814351401079
Pb 12.537742347366537 7.626136347852475 8.52767733313374
Pb 12.723721419361484 5.030749118398649 10.714630381004234
Pb 10.273865130760859 3.38669623612118 12.198283128611122
Pb 12.137763922581692 5.519001537417113 13.88228506208855
Pb 12.325502399687037 10.841225786339537 8.990942402882434
Pb 12.434060071859177 5.5047828955523705 3.3479399730753623
Pb 12.938934450671406 8.609110096754168 2.861951365771996
Pb 11.707200842730693 4.580036466421343 6.604253451097514
Pb 9.439776388205921 4.56635907378838 3.8863879614747234
Pb 10.748487077399275 7.716317895870181 5.483466223417186
Pb 13.000412742024396 8.049013312306487 12.104891087071897
Pb 9.984698579030317 2.7395330791154184 9.096969940017445
Pb 9.482856120818692 2.1671453371091096 5.93850962612039
Pb 9.956501928998703 6.660516157755696 11.374809563550977
Pb 8.855104129498546 5.4998165699162955 14.23981842512215
Pb 10.526920503842026 10.338066111763084 11.658699822665863
Pb 9.778170485860622 7.661700927117861 2.311200086372436
Pb 7.093894310675511 7.025400376425935 4.716616141825183
Pb 9.733854080434414 12.322370748816946 7.804594281630405
Pb 10.543148723777795 8.294238294152416 14.234911283846701
Pb 10.70876674209913 10.726653571145174 3.582494315446589
Pb 8.432126138058615 5.249486831171481 7.446916753457812
Pb 9.604775143540145 8.99400333090411 8.880655961782653
Pb 8.156974649020805 9.866781436124572 6.1036588371506175
Pb 6.556203888231867 3.6839227658024316 5.177697587721612
Pb 6.300208003482675 6.9754685132815 12.811882709795027
Pb 6.960102647065496 2.182945858727526 8.04926164814011
Pb 4.989349292573586 8.365127121401244 7.01140731872596
Pb 8.123104876282685 12.923359248301532 10.641267471423255
Pb 7.336794961245787 4.155403777908299 10.668095162946853
Pb 8.545394884683574 12.849370071113983 4.866879032736712
Pb 7.484229228093299 10.122990261490493 2.967118202198761
Pb 7.3679454312076 9.989614656846983 12.253959531116001
Pb 4.937510576470243 5.018451447256849 8.200155611529928
Pb 6.736422396104985 7.394656598211712 9.704260279040689
Pb 4.389711767897899 8.991625339897759 3.749627600369627
Pb 3.8827099746884164 5.8304220405004195 5.095930674822633
Pb 6.365138954642418 10.809431235127393 8.877182630287637
Pb 4.014068054493694 9.234841325438072 12.649009765123438
Pb 5.648434313017949 14.935578088912004 10.39428906839426
Pb 6.79954940055192 14.073608582320361 7.604040718753597
Pb 3.580123150242489 6.750257430707421 10.67986030634817
Pb 5.418158586567014 11.69442475227319 5.63685505851288
Pb 2.4508075066688484 10.458502328438499 6.379802217880791
Pb 2.02948968018379 7.078612519630422 7.715143048669328
Pb 4.824682076844345 12.180391211933589 11.63749461619256
Pb 2.840684065526729 9.878176369375765 9.670344743523469
Pb 1.5173685890509645 7.924016217796304 4.686374903584527
Pb 3.769354493566894 12.900676563229686 8.445272510608355
