53
Energy = -176.18410319 eV
Pb 4.907400403486064 9.170944720162078 12.341098901651742
Pb 7.719917683844583 10.935697841726606 13.380504079457113
Pb 5.711865326795611 11.852633053577417 10.79420312822429
Pb 3.250661565732748 6.644948991121081 10.866897576951818
Pb 2.7397700564776755 8.150812508948402 7.754276396155859
Pb 6.730468662429107 8.003298515681516 14.775784443472725
Pb 5.691839722869241 8.75381256890346 9.0778958484639
Pb 5.313253658234586 5.4519022062403115 13.13304503392616
Pb 8.741700682942195 12.943139502813674 10.611527678710244
Pb 10.563626770933828 10.255860134254256 11.825147110338467
Pb 6.763692812694473 13.358478932724594 7.929469903446122
Pb 9.856563405931166 8.522742769432087 14.57081836809762
Pb 3.9107262918042207 11.379505959517179 8.067982321640834
Pb 8.063682191147226 8.105293819120288 11.534609357699876
Pb 3.168214004575604 4.4199261846382925 8.424711577051331
Pb 4.887487288661805 12.820969298567451 5.315581837326382
Pb 3.606045509096363 9.877998336946243 5.12076769197749
Pb 8.669862162306874 5.534378367850468 13.704471362137577
Pb 5.3656081610331094 6.98558179316451 6.033205373567775
Pb 6.165622345038957 5.393233100454673 9.743716213860036
Pb 8.817390050707811 10.436821050764852 8.71268607074579
Pb 6.89500455577041 10.220173416227547 5.9108870689486706
Pb 2.4239200526971776 5.629171957316015 5.5502122897939765
Pb 3.8563257210368 3.2977865119295307 11.316106527090708
Pb 7.987162952812789 13.057247440651658 4.522103527028157
Pb 9.984511240767594 13.459378493344513 7.174254805866181
Pb 8.786473083786849 7.023284192326262 8.011103310395232
Pb 11.946607558092788 11.640715361531804 8.958542703247517
Pb 8.274493612084074 10.419244069835944 2.728885997646819
Pb 11.149568574634415 12.144116689558333 3.2935677127162357
Pb 7.075598390555415 2.9633292300402174 11.764982162994963
Pb 11.132309298693357 6.86600688894991 12.073221255152179
Pb 13.102162545393467 12.594758593892266 5.911956017411659
Pb 5.585296550260629 8.601651584755462 2.9745926622444974
Pb 10.699026911347884 10.23088057426177 5.892711442084932
Pb 5.5680294629810945 2.1412057801167337 8.65501058265089
Pb 11.567389180855034 8.306539216541054 9.059696718335218
Pb 4.437237238432126 3.0673739896451258 5.459915533721474
Pb 9.429468965578515 4.711558659134427 10.254053337328559
Pb 4.549827139055846 5.478982136061399 3.1075268094724886
Pb 7.514970022364108 4.257981811222294 6.340213062309953
Pb 8.738343209648711 7.541170724349543 4.655536325309158
Pb 13.643769544624497 10.098449977299085 3.8813234999607795
Pb 13.89994417905629 9.630885786922429 7.047471592497173
Pb 8.877384572630767 1.8561599863218599 8.105274635057192
Pb 11.056017162547748 8.743544007353366 2.539101124334786
Pb 12.162281182078805 7.362479614568439 5.405127105522747
Pb 6.8898398185951795 0.9092810287900684 5.650637106370282
Pb 7.575799041845749 6.082508210167659 1.9827179242626032
Pb 10.707324326664919 4.439537022777627 6.9760148037623075
Pb 7.025580820969225 3.0425221715600985 3.127628041276876
Pb 9.841297470058144 1.9945960277626915 5.026954315904922
Pb 10.054681616532974 4.758620141429012 3.495823280819725
