52
Energy = -172.33433608 eV
Pb 12.714411166524092 10.120016638471695 8.811392459523889
Pb 11.183706063013945 11.803318656917373 11.133185623958218
Pb 13.131244799400184 6.794922572880474 9.645410016778655
Pb 11.642686233577404 8.779173764369041 12.073751843579444
Pb 11.390182076317664 13.349675034061038 7.878672587915302
Pb 12.46909093223886 11.357933807996195 5.582716139386194
Pb 11.946445272506084 5.689804885070924 12.728449091157882
Pb 8.463927571687533 12.973240479086675 9.537765869476468
Pb 9.353678595261647 9.707292432940564 9.463734221811512
Pb 11.05726006832997 8.022607995067018 6.895280076117395
Pb 8.561324062043543 10.145258454840103 12.587119282389859
Pb 10.637197764955209 13.909733103156686 4.608841151428564
Pb 12.260812468637903 8.6202986154736 4.02159395116655
Pb 8.38281616812798 14.623085074342265 6.802181282635197
Pb 12.044786271599374 3.6839712729057026 10.228214324209153
Pb 10.014984125928866 10.957012387850753 3.1991466417081047
Pb 8.959806562814286 6.98470638551336 13.307643378127377
Pb 9.15789812855541 11.26904168947145 6.514236644117019
Pb 5.971878969634923 10.987802182283788 10.47832281384035
Pb 9.172783394979666 3.853134988466579 12.065605110309038
Pb 6.913278608662637 9.657110292000144 4.336799179049213
Pb 11.457454542849437 4.829101403918189 7.2535393703780295
Pb 9.87439093807842 6.324053096038885 10.010385490978477
Pb 7.523192022026191 12.990125407568673 4.148909694808478
Pb 9.365682952709832 7.37211472924567 3.6099913240025674
Pb 6.477491602099112 9.066235948720463 7.60421401595617
Pb 8.208178040212664 6.014502885092026 7.05721210142997
Pb 7.163391305486183 8.158736059614284 1.2882770845552736
Pb 6.8028224986809915 7.758061912940798 10.787212506554216
Pb 6.02356632161645 2.361146209603124 12.161793423008358
Pb 9.095172947788834 3.2233613826446645 8.85248675596508
Pb 4.03410229229954 8.466032076910345 12.17458329503735
Pb 5.985559008039161 12.324854585158855 7.235140896129904
Pb 9.153328711749797 4.179754363436639 4.475143874029799
Pb 8.321328451045856 5.185749283308331 1.3706038282086381
Pb 5.987981426772136 4.537735419194884 9.63343700417083
Pb 4.990764714165256 5.414191951774568 12.63471026827445
Pb 4.268501166125529 8.799357268443766 2.5035215068484904
Pb 3.418343022931864 9.406370450581912 9.168520384941377
Pb 6.268564357979451 6.251276450063924 4.181513439663217
Pb 3.6819986807668275 9.70160580332808 5.884272247231181
Pb 4.479474520059776 6.454995504017485 7.114157538905316
Pb 3.052575225632245 3.047021835587075 11.244858894393145
Pb 2.6786165225017062 6.1569546913258195 10.151146319965056
Pb 6.3369533164458955 3.2655917563315184 6.332230338447691
Pb 5.169335370397559 1.4501495534111672 9.254662680371732
Pb 4.968841221515116 5.614219158971034 1.2579586869126287
Pb 6.409205665757979 3.1026609116897275 2.9596462383964743
Pb 2.4877697154082514 6.969906979898752 4.4054399224818255
Pb 3.059702471060023 3.4605375400468037 8.00865625227381
Pb 1.4144519971611238 7.667617729328082 7.334730463966376
Pb 3.7126051397209623 4.026308362514929 4.614270689135373
