50
Energy = -165.48720796 eV
Pb 12.21057616596759 9.441838321159963 10.747407217809391
Pb 9.302303960584064 12.96011142848728 9.66332440676269
Pb 14.241653766315327 8.600667121017565 7.684467346717383
Pb 9.037942004307526 10.01846295461706 11.61069967584198
Pb 6.591496016707246 13.96005704208118 8.271418506787096
Pb 12.818141109737184 6.321242209817759 9.731126794822075
Pb 8.781548466525418 12.522720370078572 6.395658288827006
Pb 10.791021918445033 7.0276625938305886 12.276171729049157
Pb 6.350879738489332 12.268291507513775 11.137675120659317
Pb 11.119148304860209 10.764981843665408 8.076503359567736
Pb 11.653996445343092 7.056732886304566 6.478782652631648
Pb 7.301620152424051 10.597955912083313 8.467847193865525
Pb 3.132885091396014 11.21683084289818 11.883208338814848
Pb 5.170240695767084 9.020851128868683 13.263183262957899
Pb 5.232862621131874 12.222716694149135 5.702626747789925
Pb 3.8085656858008496 12.225232188656523 8.759343019079365
Pb 7.556008217246798 7.059194771069293 11.580950011429689
Pb 9.158911152977419 9.043660210000432 5.830918447115213
Pb 9.999546544771935 4.6547777071698775 10.195348060156082
Pb 14.51532382259389 5.3652844880515085 6.888654363774056
Pb 6.584182920393443 9.847864043721149 3.855702951974191
Pb 12.548301460917754 10.12471164684234 5.247401964843262
Pb 14.519834882690478 7.530016314010053 4.549041195370172
Pb 4.8392924999814575 8.88553046220159 10.118197907606088
Pb 9.555843110924211 7.8347889998759985 9.130982265851756
Pb 4.90611953240953 9.055945116514089 6.704638914126571
Pb 4.430571483787723 5.980724376522723 12.068256997293783
Pb 11.6176187524294 7.922025005372439 3.13673455512984
Pb 2.155428741939897 8.214623451843295 12.263075398662625
Pb 5.828070904029327 5.890714170416966 8.737568650717435
Pb 11.610610707059305 3.7108438172243345 7.405670868515946
Pb 7.077234906667379 2.9276278909137337 9.566092390737975
Pb 2.228337101866704 10.737076548416612 6.007647238470928
Pb 12.534120458776858 4.9246435988678785 4.206854144338841
Pb 1.6527537893148747 9.622217050453678 9.14219059367168
Pb 6.232510918677841 6.500174092552648 5.293459338864942
Pb 8.560111581721362 4.810413830723525 7.10528550303719
Pb 9.064438242045274 6.048232701248018 3.709295839001807
Pb 8.234219536977799 1.4459906274203709 7.003664859335734
Pb 3.773836703037108 8.330944559869183 3.5399730957485165
Pb 6.46028505478235 7.049154619450363 1.9482261671189205
Pb 2.381335642885172 6.396318443958734 9.475049488830287
Pb 3.8711178660093934 3.410334843306837 9.570755775565438
Pb 2.046639978550263 7.586714030128192 6.256059889043172
Pb 9.525571703710979 2.9343386699803453 4.485085542173871
Pb 7.233339546687635 3.8376630794964157 2.0605930225166675
Pb 3.730084888470173 4.576358011990511 6.429169925535839
Pb 4.218790320587657 4.977096918374892 3.124124165573607
Pb 4.993250221261643 1.4422883924642451 7.316335415381231
Pb 6.101469636997658 2.6541130041548437 4.714293738852
