51
Energy = -169.14255182 eV
Pb 10.014922172447706 2.328882116756686 6.036092655095592
Pb 12.170906542829655 4.707873360379933 4.8950072530153985
Pb 10.245454264067002 1.402396285263217 9.98964808625863
Pb 12.007536362652907 3.744680358111194 8.239256409914317
Pb 9.085646076570901 4.385989245756742 3.552363689974419
Pb 6.27581399297192 2.3048096322300418 4.7119368656095215
Pb 7.31717330577695 1.7752415737518703 7.887068757063073
Pb 8.227632965200717 7.008941786632095 1.542881767609266
Pb 12.408019168123372 6.871444991550455 7.345035648697647
Pb 7.093276922923129 1.313116299270606 11.128455271288145
Pb 11.816506359948052 3.821019933502366 11.570975634740702
Pb 9.552269833388241 5.41417235160299 6.758905322765203
Pb 9.429692284663693 2.32843622120184 13.084479989765581
Pb 10.818817533937136 7.178322076119533 3.3852580108331978
Pb 5.785131905670404 5.107533816277238 2.969278855509592
Pb 8.594418749111602 4.260425709204867 10.135538296462968
Pb 10.997984670342557 6.832682714220445 10.259061830720619
Pb 5.981243890990544 4.7534733119855 6.861647532353402
Pb 4.159743122030779 1.8866070027587072 7.252996322073234
Pb 3.3626552033178965 3.742845159639573 4.816550004008994
Pb 5.358794405737774 8.443001435817193 2.2352630285695043
Pb 11.386816645129976 9.578724420195384 5.644425666927266
Pb 8.238203913065645 9.98532911895653 3.0597092479192063
Pb 7.523526293715951 7.376847837241097 4.917281069389063
Pb 6.683274052342048 4.051979527323675 12.936588761468165
Pb 4.990831044413032 3.6534904595455484 9.943807219395868
Pb 3.856256586204769 7.090274653896794 5.0088329859640215
Pb 9.473683438309214 5.601382095350254 13.125006789302718
Pb 10.862107482763301 9.958341466865686 9.054007435762824
Pb 10.413504386628556 12.399066308375739 4.186646496349443
Pb 8.624970033660091 10.975392702126383 6.694610869263289
Pb 5.239113988659987 11.771985574342633 2.4817265826294785
Pb 5.486042310025999 10.142079799450885 5.38685869999922
Pb 2.648860898838006 10.000365722420923 3.4282837708012295
Pb 8.913351561593592 8.779082142830676 11.785160729817289
Pb 2.884838062572022 5.121389841263779 7.752220442573755
Pb 8.246795293806391 7.876313446248912 8.569013154665965
Pb 11.868626380601583 12.482007405944175 7.120396279603996
Pb 6.348560543775671 6.865309685242946 11.083561091496673
Pb 7.076944871997196 13.33181993178623 4.543631868516427
Pb 4.680552917973249 8.269669131935888 8.305566529507221
Pb 3.096252015112863 6.698446666454384 10.755073253754652
Pb 1.9655461561142613 9.6967403852578 6.49217941278601
Pb 9.46140294632879 12.95068395319753 9.351229449753973
Pb 6.511050449695817 13.224721107598421 7.779917354586677
Pb 3.4030741039602135 12.546501732574917 5.295458829504672
Pb 9.393037057636679 14.46561857441228 6.498758826465138
Pb 6.958787051329904 10.613411636365447 9.894078704950875
Pb 1.5431264617625022 9.218980451869596 9.640008334908522
Pb 4.198567871963872 9.692902931427437 11.433169610063
Pb 3.7264308822430765 11.459742105263006 8.66965581900075
