52
Energy = -172.43576571 eV
Pb 12.450160477869515 6.407497583350558 4.8912245665615055
Pb 10.205078880208202 5.197465756069664 2.645801744262879
Pb 11.105196749224644 3.5049326578165205 5.416523961701852
Pb 10.750537833373537 8.400684623809221 3.004111143905963
Pb 7.993481482087288 7.478499024772608 0.952958494538563
Pb 12.08267299770303 9.620347221981447 9.086289953142874
Pb 11.59922663809174 6.0438020917570405 8.030375604802842
Pb 8.844347089183797 2.2543893468693263 3.309988185181503
Pb 11.083498435979132 2.705664587666513 8.558522552886037
Pb 10.929342821139338 9.740568821927916 6.090171833596762
Pb 11.635069219826518 7.411070218171843 11.348714471926277
Pb 9.299689728716308 6.733447386542963 5.518922993537137
Pb 6.873066611296315 4.356402765970302 1.3846533089877344
Pb 8.851979955296114 1.282898137077274 6.717784723688309
Pb 10.081708323633912 10.29141565222121 11.634559602124352
Pb 4.832412169895867 6.699613266836409 0.27731565797360086
Pb 8.028039005325288 9.990101456527192 3.8894082261219873
Pb 5.498085098237181 9.570693708982171 1.6589323941067036
Pb 10.355186850487181 12.365213034495389 8.691724099262697
Pb 6.128000312044427 6.951678261628245 3.519192405223372
Pb 8.988348223544603 8.129839350046394 9.34972886596415
Pb 8.239318642104017 4.505769583732717 7.93427979806829
Pb 9.783317529238865 4.765518664094196 10.796434653471856
Pb 9.802600124884606 12.703154402363927 5.320559923978116
Pb 6.6184654035661445 4.016236194896581 4.875069373622558
Pb 8.144289904889485 1.8704653262681235 10.157121872327968
Pb 7.287023735770004 4.03699056173127 12.731714047181953
Pb 6.342877564043229 0.7890937182322811 4.769993363953
Pb 5.797087143852333 1.6491345370022192 7.946516860453925
Pb 6.619458610560559 13.001467869837342 4.915219823148129
Pb 6.138914122726776 6.3165054588154 10.48304833139808
Pb 7.765159979457157 10.715800683359191 7.185936448038992
Pb 6.270684683190284 7.450257344160613 6.828999895421797
Pb 7.993221127898168 14.235080688080958 7.541207748498134
Pb 3.9472680130462985 4.609652131174328 2.7432321560893542
Pb 3.063475779389671 7.759004339999882 2.8801768216016748
Pb 4.845532295849445 3.0404896821696172 10.774914657426729
Pb 8.804563030986401 7.276791960794402 12.833627524920118
Pb 7.381909215707641 12.167099502224826 10.133462856290576
Pb 4.853992536627572 10.057484604057194 5.077549245226323
Pb 6.76164179599037 9.45322921831771 11.916056722553998
Pb 4.48258640391665 4.876951883129825 7.706616828098203
Pb 4.398606306559415 5.291489166235757 13.068241264491373
Pb 3.7600689374650096 2.6253878546875207 5.540312897606655
Pb 4.9103812481721985 9.372362045456828 8.930010225883018
Pb 4.980571620361378 12.65429999905598 7.806836523839674
Pb 2.983476261923863 7.576489266044211 6.353825051551385
Pb 2.5697455832362324 5.465574232716345 10.32129751720157
Pb 2.301545707192989 10.831005426907522 7.1559418233766054
Pb 3.571781679548439 8.2621944858362 11.83391024281917
Pb 2.7970929141018472 11.199100618949949 10.328006839008882
Pb 1.4998899471619782 8.423713247521851 9.209758635053038
