52
Energy = -170.79363344 eV
Pb 13.163029225736858 9.754607598157735 6.654499146627065
Pb 12.297964026125289 6.524987718599935 9.483163913696018
Pb 12.59736650264461 6.904018237167738 5.117873346943638
Pb 12.149003500773684 12.49151239365778 4.773099171127828
Pb 10.79773274494587 9.704427228001459 9.300860466654251
Pb 12.316267018640257 9.571307526033953 3.4389184764502647
Pb 12.03436737288913 4.28055124949297 7.126812103974925
Pb 11.338977923762602 2.268198097808633 9.510132164974156
Pb 11.662456639535131 4.477237700810181 12.051681712688818
Pb 12.109281702483086 12.576779462804058 7.884838225901377
Pb 10.574409721363889 7.516733332484431 12.245687857168798
Pb 10.350276043621399 13.286046763113118 10.348763288563951
Pb 9.854422764212268 10.64641531508348 6.156905368069397
Pb 10.575281007787591 13.777313447058638 11.294632825887852
Pb 8.874906515124707 2.695772954197733 7.002692854058788
Pb 9.583221727098168 11.242949431161552 2.838836659135863
Pb 10.03810644429523 7.087384476721894 7.254786640912103
Pb 9.412325975272562 8.053138561074103 3.954522011057348
Pb 8.31775135320439 5.36269768421429 13.104027185780158
Pb 9.97834491219912 4.879629710700396 4.718433538669297
Pb 7.194207441313558 12.18258574437896 5.191469885919184
Pb 9.22722741957544 2.32765346328988 12.615795056604911
Pb 8.817596950630003 13.777313447058638 7.55107513055195
Pb 9.13488668698238 4.729473491413732 9.923587001202842
Pb 7.506804765311491 10.788316115354585 8.610578076037505
Pb 8.132527588510689 0.9941196533573935 9.739348813947954
Pb 6.914530888170272 5.5223774696644625 7.251165578358242
Pb 8.898738595509293 10.844118884867092 11.868066985275265
Pb 7.139547409265072 13.44237891975633 10.563576357366342
Pb 5.230596278032252 13.17187932585355 8.050717233470747
Pb 7.899565576714697 7.9262991123164745 10.369685585533562
Pb 6.230031011153209 3.503399883172493 11.442004446738313
Pb 7.29640930252464 6.8348144262769805 1.6916839332031206
Pb 6.159380550792213 7.724177328663732 4.8252851233499685
Pb 7.354419316105366 8.606666511759881 13.515063387751326
Pb 5.099828207852925 6.792765682072142 11.886071797651718
Pb 6.613388277253525 10.06754790422664 2.3516283021876916
Pb 6.801202760929752 4.478343394191152 3.95563939133216
Pb 3.857229770600907 5.226184447117855 9.007144352002317
Pb 4.960157434219423 8.2381823078601 8.80933824507282
Pb 4.782291479307167 10.318153519179576 6.274932514780619
Pb 5.501179559549599 10.445228081090617 11.31879430051234
Pb 5.717953949461948 2.641780841772554 8.366853647439655
Pb 2.740769158461434 11.001191542324545 8.865746760425123
Pb 4.864611257833567 8.24022456415785 0.34185486049981917
Pb 2.6936180408294574 8.804657545740762 11.274128558777026
Pb 3.6112595252125006 9.316103035409043 3.2472122784950623
Pb 4.078661237762536 6.070916628775231 2.582958840857621
Pb 2.827636418813923 6.971408469740772 5.5038146251103255
Pb 4.22849506704275 4.158997174026367 5.812017870396209
Pb 1.4985265582680967 9.804025249688362 6.059825029726575
Pb 1.5591784134086348 7.763912948831427 8.521214874153573
