54
Energy = -179.63617555 eV
Pb 11.282278307875782 4.502385920525204 10.51011105873649
Pb 12.85693307813327 10.113771747719872 9.487452874697857
Pb 9.692872798547889 4.851758664740038 13.299737791296698
Pb 13.431798744899961 8.869172806666064 6.487503443121526
Pb 11.195138969695298 7.359221318270857 12.023614657763446
Pb 11.91657808838653 4.578257283741115 6.5076838130258485
Pb 13.48668780739716 12.099447242220563 6.9813115667650685
Pb 11.128792249500984 12.846873129972845 9.105890828438959
Pb 8.283420244808234 2.9479873550633653 11.110829369524852
Pb 10.709809404603513 1.990390285243859 4.837504593872741
Pb 9.822632104829047 2.4952567211982113 7.9187327902364615
Pb 10.992023842825018 4.911004778052094 3.2978403859192347
Pb 8.176409836359687 7.831929136440328 13.175938220995798
Pb 10.456796184166464 7.636791806313813 5.352270201126785
Pb 7.495483048396834 11.126175389225928 12.649283494275412
Pb 6.289612006811212 5.1377499539979885 12.819984196703945
Pb 12.131200546426228 10.844409301724458 4.231247607463677
Pb 10.94308160904078 7.323921875582401 8.547720781769486
Pb 7.606563794726863 12.445057297758446 9.398880077353494
Pb 8.398505747646217 6.189102833625149 10.359528039752444
Pb 10.836119911220893 8.294220331134184 2.2753896071775728
Pb 10.665700765107093 13.397740477255736 5.821613992899963
Pb 9.436962580563995 9.73697852873571 10.307473376268991
Pb 10.408860784268533 10.464742494037875 7.120785899165083
Pb 8.699396171541505 4.733784335429873 5.731739741587423
Pb 7.539437165330119 1.6004519639779355 5.752611019792603
Pb 8.27814203152445 3.01411627592976 2.953317468527308
Pb 5.3561975652137175 5.142704271487281 3.0267121380071944
Pb 8.191748042775652 5.89415508038815 1.18561671061248
Pb 4.429452864221303 10.080551976050776 13.341463466870447
Pb 4.860520770478336 2.7307368466725483 11.033417929514654
Pb 5.833654710890283 9.342599689044373 10.405754683624384
Pb 6.552566213880796 3.6557630355619612 8.260604026984007
Pb 6.983570174598188 9.75435797817454 7.185000400529372
Pb 4.855678330349338 12.576896745018553 11.40773955302655
Pb 4.759712714271725 5.937593758928221 9.78263351565568
Pb 2.1944099925945535 4.312135096167808 11.77822220744689
Pb 8.184928990217527 9.15269432552375 0.7242186681166314
Pb 7.33792575891458 7.74383176986492 3.701304698470185
Pb 5.722137115415607 6.442674476035894 6.300752796551556
Pb 7.295840480654325 12.860537108515265 6.163307290529424
Pb 3.5228301307336367 7.178603361393225 12.435368041780066
Pb 8.73217415173876 10.645014899155706 4.129854610179411
Pb 2.7168768561971257 3.5167784510690057 8.721854980043359
Pb 4.52054464703716 3.3808300235583286 5.738093434769951
Pb 2.6345627356251837 10.258914808366937 10.565488950109124
Pb 5.306286057819745 7.564083925287057 0.8576299990524867
Pb 4.427740709731839 12.026734135534115 8.357209577099939
Pb 3.656177657583043 8.851080760643924 7.450462776743885
Pb 4.611258953336045 11.20001717320087 5.255772315381784
Pb 1.5909303300148003 6.646961648918554 9.620912409875128
Pb 5.730673765817734 10.389858531730555 2.3389394445638443
Pb 3.8977800172204096 8.073472923817581 3.868981034591756
Pb 2.503180346822157 5.890962126350588 6.51145582518245
