52
Energy = -172.99306215 eV
Pb 9.115708509116603 5.416130929865938 13.995829020330083
Pb 9.036771202924832 2.717296744757366 12.332455172823236
Pb 6.181268156305001 4.051536963397411 13.19305284938418
Pb 11.093980135789533 5.266905521193883 11.434801339346045
Pb 13.256613262356833 4.608357064852564 5.88088735488282
Pb 6.517203305704086 7.3186566649713924 13.660455280591606
Pb 9.555698451110779 8.112036280921757 12.207393894653746
Pb 6.592614980777721 2.27417720596023 9.844902558283625
Pb 13.943935193714976 7.216956457074067 7.70274894984496
Pb 7.7912332789416245 5.545395876742031 10.778289640048222
Pb 9.98678225019699 2.8580096040348755 9.315092054928067
Pb 11.616874346528583 8.717227176054926 9.437583002659002
Pb 3.8369447349261416 5.901391245149626 11.7927978404313
Pb 3.3057028372987682 2.9015547210679977 9.61029059786065
Pb 6.727721063166787 10.132580775158242 11.667891304204284
Pb 10.232406925458378 4.129805981474254 4.917151614924662
Pb 4.772762735317552 1.7610648215199924 6.965479983731843
Pb 14.79841911498816 7.143512876290663 4.562661351790227
Pb 7.971678479942171 2.6524566514403514 6.794088043337615
Pb 8.468246183237644 8.571956993342978 8.928214420611676
Pb 5.026366704973072 8.073622052763168 9.478537774073509
Pb 10.910461775350434 5.690884664127193 8.015880822355568
Pb 13.80452108818221 10.005965951174415 5.804748014060583
Pb 3.8853933237759266 9.049320114802912 12.510837392927534
Pb 5.477572240556825 4.9184890562087205 8.139306483621207
Pb 9.109619825214889 11.758128931323546 10.464576293914973
Pb 2.7780669785671677 4.2157512185625405 6.465150840641015
Pb 11.442120384982488 7.76320810169067 5.348116470545677
Pb 12.031659956792167 5.969436599388569 2.734024979990565
Pb 10.359182726952916 11.175565287718015 7.42928931953513
Pb 8.074195183141178 6.1452875210594184 6.503550404943716
Pb 6.111466814230352 13.362997420394423 10.11398800709269
Pb 13.189616456141819 9.028365768296087 2.633284261115338
Pb 6.687091528484544 11.064812571976535 7.8453882476764445
Pb 8.351456675920929 6.148425393264426 3.2445052835838673
Pb 8.641569047780413 14.014107029998035 8.224511662535251
Pb 2.2621271884381855 5.989988065301848 9.075079952962257
Pb 5.699524775349091 4.096703711511171 4.9039650928116005
Pb 3.6952273799729842 11.031930825995559 10.04300957488719
Pb 11.092574438319062 11.068265750323297 4.116163722676219
Pb 4.904936858639398 8.535143559007013 5.760877244392595
Pb 8.359187885873634 9.221074969689862 5.107223983948434
Pb 2.0355037981447683 9.056694594573676 8.253701174857968
Pb 9.91569833224548 8.789132476692618 2.1636014189189683
Pb 3.8081026494381063 6.607691951583418 3.452866048359711
Pb 8.36180256914112 12.823913703410842 5.259733415305484
Pb 5.681790737855599 13.937820647767936 6.887596740621348
Pb 6.2113174871730825 8.576844706518616 2.4221338182965044
Pb 1.6308692428985703 8.21857616689844 5.201877043087386
Pb 5.714945958954574 11.388992696294647 4.083712231411304
Pb 2.928173013107881 11.201370312878534 5.824374013265909
Pb 3.158360370928455 9.772508646298618 2.9102555390138223
