50
Energy = -165.42315438 eV
Pb 5.501853432180531 10.604022952507536 3.127787388333464
Pb 5.988797070410061 12.990762227209716 5.3664302378605795
Pb 4.678301931318464 7.457198035764988 3.259679274070772
Pb 9.220556030795196 13.684637149736748 5.370578775071403
Pb 4.442203954196791 10.109912437766244 6.2888569578674405
Pb 7.537355252864634 7.226628091616337 1.755660933084058
Pb 8.541332299982656 11.347039188094346 3.210648308072511
Pb 4.3696226984123525 3.382349726682452 4.612269677507329
Pb 5.229750449671367 4.67407393927322 1.5317694838633968
Pb 7.390193337425813 8.484603116186634 4.819416100141017
Pb 3.901383001745033 6.442781089148484 6.222379397716338
Pb 7.439709700592061 14.302159072046601 7.900211059670269
Pb 5.24184025013893 11.962083649352408 9.079602553155064
Pb 7.979577908563614 10.94729141053914 7.228146962629098
Pb 3.2378623371329334 9.126540210400904 9.235424021054802
Pb 10.493283415915556 8.78403390442907 3.2921766745651504
Pb 7.0522616355187155 5.003575254381312 4.310005792338418
Pb 6.571853428256181 1.8882350418993523 2.622428031076173
Pb 10.588717522031164 12.909656264058654 8.261589565918515
Pb 10.187132237148244 5.6595352997613455 3.9047163426644405
Pb 11.248031619824834 10.99923761931019 5.592805582331367
Pb 6.244424873689997 7.911855572705579 7.9760032578385935
Pb 3.3594539996954906 11.088310050781729 11.905799311357118
Pb 7.017405780598263 1.6769512479194923 5.835976899078013
Pb 8.488476924455004 4.117830062904569 1.2594562144788028
Pb 5.986372881898127 4.357948560098323 7.601152449828798
Pb 8.242199200788919 12.148674434762787 10.331967392230487
Pb 9.104362869381728 4.1725575543874305 6.945526823711545
Pb 5.972796679713087 12.698601743406385 12.639977052316631
Pb 10.092335952657773 7.877872532228333 7.029049270308055
Pb 4.293765927522451 6.170929224640777 9.992940486089905
Pb 3.3032833661293024 7.959123368301644 12.549934456018606
Pb 9.798392256512109 9.1652582371644 10.27397753602228
Pb 12.968439808491535 8.20996520830845 5.569168223458588
Pb 6.230892830004088 9.230805255005803 11.071255257879676
Pb 9.50126475818506 2.4128756898478363 3.905337320445802
Pb 8.170174858250737 6.066990234475472 10.16493181654455
Pb 12.433587142379523 10.07756151231416 8.472045395950158
Pb 12.214197976517545 5.181272213149345 6.4904496034228245
Pb 5.939379449502706 3.5943867312337408 11.062757436920572
Pb 8.646436469599687 2.5880818014409415 9.865538062009858
Pb 8.49521438466947 10.850283257065762 13.455302225012222
Pb 12.778285027049572 6.992061971364723 9.003490379608827
Pb 11.191306342612808 9.24022104009375 13.138434292546304
Pb 5.51041233497206 9.808021372714837 14.165167639300018
Pb 5.893506918308775 6.105918766020062 13.091131072264155
Pb 11.402021101822875 4.070743907137033 9.692281149131714
Pb 11.391306265496006 6.357585698503799 11.941010729780832
Pb 8.73720745279705 7.27265207325885 13.770057977705404
Pb 9.121890229020593 4.095548646183763 12.666831486336989
