54
Energy = -178.0014119 eV
Pb 14.766339729192428 12.297616947320337 6.684950238611953
Pb 12.585000136481417 11.747592287052884 4.009031772308108
Pb 9.45553844518911 12.997995169076914 5.254156437868337
Pb 10.898955231526745 14.091521662122036 11.493556344062528
Pb 6.071826677727862 11.417834169171767 5.165303369333545
Pb 12.262291914263738 14.131682496765267 6.401339397047863
Pb 9.763988320711988 13.798356159805532 8.466591082700026
Pb 12.815591518274092 12.522778310589272 9.437618301067468
Pb 14.556654096866406 9.31678967522857 5.389608341474223
Pb 14.530710654656346 9.700828837478355 8.75767539053937
Pb 8.991574928245933 10.050824224055967 4.153492195079504
Pb 7.807473510312785 13.54443928594794 11.446708209749794
Pb 11.717418346509724 10.596664346755608 6.813934957052941
Pb 3.2984162158134867 11.576730297955512 6.870519752105277
Pb 5.618269089834192 9.032885017877442 7.538504824492424
Pb 3.445235417786336 8.876165274607857 4.9216066935206415
Pb 11.821527150804897 8.423455050782815 3.919870215512799
Pb 6.034911004493804 12.684357304870183 8.716502634215347
Pb 5.978024615471201 9.046677568509187 2.981464105264643
Pb 10.023305889500337 11.127684717646131 11.999768781257655
Pb 8.44449071705903 10.70235647915942 7.547597983807473
Pb 3.0399087170819388 13.499368544062019 9.342634881924988
Pb 11.05071093492097 8.65766944921833 9.539640961003574
Pb 12.909144458113902 7.075585768858508 7.229320523815685
Pb 4.715357678613392 12.544661805332025 11.92667088138027
Pb 8.683337047269736 7.013111609039055 3.13838762266991
Pb 9.5343911569719 7.483886909637209 6.367527320940451
Pb 13.8387248862778 6.939994704805022 10.451929378370295
Pb 13.060840054619462 9.823008096896684 11.821982427397996
Pb 6.174437133031527 6.634692339326634 5.27284599437546
Pb 11.52149865732708 5.321100855364994 4.752961883039432
Pb 10.991939944105502 5.077389178358799 10.09253020253075
Pb 9.044807438041532 8.351407855748299 13.636928459569551
Pb 7.197403723526323 11.340479453292327 13.98003875954227
Pb 7.0737020706229385 10.183488083561437 10.722055382264584
Pb 7.575553769842879 4.750356649673118 7.936256814212634
Pb 3.54570342354692 10.245579967883481 9.849055677420404
Pb 3.1657048674694366 5.419119192005312 5.339533074287764
Pb 8.550970894565276 4.0428460279343685 4.665859987457243
Pb 2.790991911237632 7.319554184468188 7.795325026872645
Pb 8.285253340535625 6.986707874259964 10.720464965041025
Pb 11.755878267141265 6.895053520602107 12.794009805397216
Pb 6.641874618846082 8.634223057168363 15.645907768153817
Pb 3.7856486928653847 4.30450092543764 8.484740051085225
Pb 5.493873356768459 3.233068748797749 5.638915407474432
Pb 5.034881610643795 7.064232355652045 10.359128703604208
Pb 10.6458008810567 3.3597385571668026 7.2363890003976845
Pb 8.876055232793515 2.295233372255103 9.790766465945717
Pb 4.901228605265979 9.211170184983791 13.00287627969307
Pb 6.448434430879225 6.251725592651612 13.524312944913232
Pb 8.18627125555514 1.3957661411114637 6.58987522046893
Pb 5.83061628895592 1.7745862466209947 8.670397397725196
Pb 9.243501325860445 4.5745286845684054 12.79409920418892
Pb 6.361032926864266 4.0027392411329545 11.111726005346796
