50
Energy = -165.87112519 eV
Pb 11.607066294387861 5.891876569325539 5.811199173651413
Pb 6.802716451295597 4.364769081083445 6.605886750622478
Pb 9.787120864022869 4.9337460600302405 8.333648489201828
Pb 4.9529559040030655 3.768411312355044 4.040736895356689
Pb 12.9429839420184 5.135416886325039 9.023496317595809
Pb 9.97560248043443 7.6602886758035815 3.621651019883393
Pb 5.5151044418664465 4.181978764715189 9.803425059078357
Pb 7.473638897558375 5.553978691124236 3.460914676449794
Pb 14.502719877958873 7.295863232949301 7.198498790857761
Pb 10.99527277301066 3.9928079181984395 11.486657952389946
Pb 12.88166017909936 8.895440448491643 4.90788955000291
Pb 3.5083756214814454 4.586435743464316 6.946257956162832
Pb 10.81835017357854 10.875296257818187 3.074164356490446
Pb 14.082348604462759 5.194647148341989 12.046457919807807
Pb 11.447760797560788 8.169023987485494 8.34705376626204
Pb 8.24861403393392 7.324499146564979 6.370216140124108
Pb 2.589503044262749 5.5568448107699115 9.867882861860494
Pb 4.745003071535839 6.842230648368639 4.835672548016696
Pb 2.4174600291043804 7.869202988053691 7.231514999618133
Pb 14.160136346674507 8.156840320429323 10.353886589643828
Pb 4.8681593251963 6.63612732749503 11.877811568611852
Pb 5.336611664909935 7.1139072313170075 8.401131791101005
Pb 10.147926091832232 10.610103969928074 6.2526511308432156
Pb 12.004161137742097 5.130229199267441 14.45914803441317
Pb 6.979488015015365 8.823709533427758 3.4135642462520477
Pb 4.29159818903221 10.11484373745529 5.323388544699372
Pb 13.630719628305421 7.936640034972595 13.780791324444078
Pb 8.071765854211002 6.534610919619603 10.573622689386307
Pb 13.1669541589207 12.211118576274082 4.932112989745238
Pb 8.899137910268912 5.463646212900747 13.693647040233214
Pb 13.838008761835132 10.584866218397037 7.629440466735212
Pb 2.5714999290692053 8.740892433034526 10.480707935107562
Pb 9.086281354122667 9.87838511547949 10.204179273182431
Pb 3.0788021444034466 11.29156311808946 8.153188272404895
Pb 7.2470582152175735 11.903921107065411 4.441453806145014
Pb 6.711433997684024 10.45801166376661 7.440671451669591
Pb 7.844018512717314 8.614017709343186 13.175937426551188
Pb 10.229822530278861 13.536628039160037 4.7002936657288865
Pb 5.6969681972118025 9.716408040540333 10.562175617761511
Pb 11.108528771130954 7.380985784904489 11.843705524060166
Pb 10.63740533367718 7.98038275833255 15.109139074654369
Pb 11.695500066151116 13.163873339691825 7.75273113395569
Pb 4.960974434094881 13.233354676145801 6.2960637915527
Pb 12.301112285414126 11.056549867020168 10.55692045570605
Pb 3.337537309280498 11.828755433161026 11.26634404820758
Pb 8.195413380588736 13.436579761841246 7.332055214801039
Pb 10.414662504858176 10.665382254767175 13.183602617231761
Pb 5.612051454789188 13.128246080034575 9.51603647496767
Pb 9.616525966872455 13.082828768768989 10.373019532194578
Pb 7.35581640948098 11.884169758660589 12.29769040713837
