54
Energy = -178.67286874 eV
Pb 2.4100116982389004 10.857341964070564 10.022689515256312
Pb 2.750140850823907 8.040989604969628 12.292039752402562
Pb 1.3744154788707905 9.864573943144899 7.043876795778892
Pb 6.420037114543094 11.991361282333028 7.803309088179349
Pb 5.94028072109776 6.60958910691187 5.856246356370225
Pb 3.4586729371031795 11.138433749599518 13.151695382728445
Pb 1.4101991447693718 7.757131890642725 9.41986425972087
Pb 6.243463756170582 9.807291575651384 4.040621611429708
Pb 6.482702097070005 1.7052580751978759 5.208386828355357
Pb 5.222310648235233 3.5459673872044597 7.632517844029195
Pb 8.118217152848455 1.609574256524239 7.916252857947867
Pb 8.227941244721608 12.414439106579092 10.901275744861216
Pb 9.708247850184048 11.777238433452874 8.074614604693258
Pb 7.707376688758184 5.297938560612591 0.7580768182477918
Pb 6.342702350438133 6.138754116068019 12.350431805114578
Pb 7.0375450789983045 3.476603486399555 10.312798311473427
Pb 5.170670835357058 8.709472510866252 14.359924824094282
Pb 7.253751695021612 8.396002711733159 1.1835319217273232
Pb 8.017151361449624 9.244036791757786 6.788124508116992
Pb 8.383761355661294 4.290528098830334 6.113481590073235
Pb 6.648542232568149 11.637645895055329 13.749595773461472
Pb 10.054046062706023 4.10305704039066 8.98979712276133
Pb 3.965576314160655 5.7523754773368525 10.11994281866704
Pb 13.255793847796413 4.975992620984382 7.463548467312682
Pb 9.944900085395483 11.371175634486063 13.490808922088167
Pb 8.322068761607376 8.584069391201426 13.800452007392513
Pb 9.523096266094667 6.161505049560174 11.645494328469162
Pb 5.7697628528611995 9.51844405955213 11.146459282077638
Pb 7.320296815307821 6.46308461341562 9.047690658704417
Pb 15.264148009347577 7.472126698478432 8.421494453406096
Pb 8.828777745397183 6.98602853961932 3.7540308484307543
Pb 14.409223663361187 9.172003863921832 10.97232812729514
Pb 9.265252713975123 3.3534210904373842 2.995601558114816
Pb 12.726935326461389 6.420953990298782 10.23648570751722
Pb 11.615962567955986 8.560134469522993 12.642769829668156
Pb 4.509795579009812 8.977331785290692 7.941500115291928
Pb 11.626845075099638 5.087652706959844 4.518856477555563
Pb 4.1216713261172355 4.058516058306019 4.613924619956207
Pb 2.7785057897342824 6.211279573125931 6.918437054529871
Pb 10.504895351599888 6.929308921485752 7.342985999840897
Pb 11.874252368310723 11.36409179626601 10.918181170370218
Pb 6.126088116814003 2.9846148969059225 2.2882568061939335
Pb 9.268099253328915 9.23685180237234 10.386132841785066
Pb 13.504816526209868 7.7057230107271035 5.673026419076134
Pb 5.055913525837164 12.771966939966461 10.820473644096765
Pb 12.400332788248468 9.269925623144196 8.465619058550061
Pb 3.2402153294220315 8.557385981225215 4.69792073851778
Pb 5.117918975911625 6.391901009676213 2.6249129346699633
Pb 10.772289509899448 5.6741502313005805 1.2816855272502712
Pb 10.940664947148194 10.095854003746842 5.455461246667425
Pb 11.95443494860457 8.19094312348338 2.8764022847183
Pb 3.8366168528928726 11.502266938177547 5.881998198447956
Pb 9.47080854815059 10.243599234560616 2.564507551643186
Pb 8.275626409369687 12.148823305728635 4.957556242754341
