51
Energy = -169.32115346 eV
Pb 10.883688926563607 11.810331442273405 2.3405894023905813
Pb 9.909653157128488 8.91458394885611 0.6235162813639633
Pb 7.844216275016308 11.29587800100143 0.9195765250704165
Pb 8.090545760415221 13.187332040091603 3.5570243519866103
Pb 12.175364104075921 8.855285105758405 2.8883197046374436
Pb 9.695116233329438 12.497972847386663 6.255160859668013
Pb 11.89992715701326 10.234283020083486 5.774429254575406
Pb 8.855975378459059 9.865456100471189 3.9576014782924074
Pb 11.542601039554164 10.69491390150461 9.312711726447377
Pb 9.886868417309538 6.42247639258303 2.645679981693877
Pb 5.548758138191418 11.161068001824333 3.1047480015699875
Pb 6.9178508096514 8.088143538755945 1.979008890818295
Pb 6.563646680983039 11.496927103592563 6.317998981290397
Pb 8.460139385969748 12.026582711676559 9.409575832089393
Pb 9.104836700720812 9.32178645633405 7.359155279789401
Pb 11.43131034080214 6.972425722748656 5.596708492231121
Pb 12.20289378658429 7.300611744439844 9.262633732128107
Pb 12.318060597813357 9.09855587497183 12.037516871426769
Pb 10.032275936247823 11.36472450880392 12.202762533542202
Pb 7.266419336330254 4.027590637891361 3.389831687847226
Pb 5.169168533162077 12.403979413080926 9.532380581086398
Pb 4.61603891915106 5.762760432643464 4.07978234574189
Pb 9.822041212479418 4.099331950963557 5.344855887374143
Pb 9.056549811344874 8.470686686438604 10.744507201281616
Pb 7.772439135736342 6.8097386767936925 5.207282541236642
Pb 3.245696167084114 10.718703946506999 7.720340352611917
Pb 4.984264788539441 8.80471937039359 5.304217512777852
Pb 9.431179681087682 5.725860751877815 8.33070772232572
Pb 11.955216572560296 4.091454656071457 9.75264809012225
Pb 11.166537284526248 6.026936730689947 12.245615908711304
Pb 9.676013569999991 8.631609270334508 13.914564153583157
Pb 1.6818333207592007 8.548820414716996 6.146980966708313
Pb 6.682047801002976 10.833284655039213 12.102753513025995
Pb 6.100989516183923 9.180814651617428 9.152807079181454
Pb 3.8742626057930307 6.960610689988305 7.863606584205473
Pb 9.790778928553214 2.403387952476984 8.056769818979868
Pb 6.070185209988045 4.3012984613333085 6.851093681894807
Pb 4.5713695173326965 2.4597607623680364 4.359490159329965
Pb 7.9335494398860265 5.798072904392705 13.135604370752171
Pb 3.3675586926499204 10.112838820851596 11.094152671383878
Pb 6.528266304621891 5.868533088354809 10.08866744321523
Pb 7.375671087986763 1.443565419679906 5.928000865133757
Pb 9.213098097852926 3.2966789516957355 11.185156742349312
Pb 2.7200074127116287 4.182606289675953 6.366683690732368
Pb 5.565035000929708 7.923641759415578 12.672141218224871
Pb 1.2352585990320617 8.419782975539992 9.314309545885632
Pb 3.1569878317397624 6.58709939042212 11.06111382144549
Pb 6.774857729111591 1.6253219739194944 9.310513792946974
Pb 4.239519450420698 1.35587883295233 7.296074091677152
Pb 3.9504460538460653 3.6439614627127637 9.650036197983146
Pb 6.15316231441037 3.3002571505642133 12.07234035603744
