54
Energy = -178.23180114 eV
Pb 14.361637008284541 8.310946064158554 9.108540030038764
Pb 13.03771915866911 11.274199543565754 8.75798739187467
Pb 10.951023900891771 12.637395149820467 10.902959394931074
Pb 14.370885084434887 9.69469129923405 6.2099597352660725
Pb 11.603091009452994 9.241196066824996 11.39381826129204
Pb 9.890986820900185 8.113800655235423 14.04692235026645
Pb 9.531506028438008 11.177695724541847 13.324549907158595
Pb 13.756912713414733 6.552344464977907 6.264534161468207
Pb 12.755568943187068 5.475883599277353 9.525505396056653
Pb 11.65129348221625 11.505871050683082 5.823781524741462
Pb 11.37034731776384 8.364874725387308 7.665722336992325
Pb 10.420443734360134 5.776944401297122 11.817628772147517
Pb 9.44692421945349 11.047781273784986 8.474371495609383
Pb 8.850715330826482 14.318604379152857 9.042981660470248
Pb 6.869346564589372 9.460211140649315 13.626556736987915
Pb 12.30174648475146 3.6430591192351733 6.897331164224406
Pb 8.792838393236424 13.010863156826366 5.824440191579933
Pb 11.901476421474252 8.682024839731918 4.294877004531843
Pb 8.495346033980342 8.373444851403473 10.83593209023271
Pb 11.07666576604323 2.6047729264912696 9.839866973821847
Pb 7.40271858022777 11.825808764088368 10.833235239892625
Pb 7.433413450455906 6.1847936490053135 12.989605326748789
Pb 10.141342943878167 6.010345503834179 5.115945722828558
Pb 9.532405376253676 5.29300491567034 8.232231339439322
Pb 7.82574681978982 11.134226698995665 3.0669257569376476
Pb 11.28553596034553 0.6486035723575223 7.248416457630214
Pb 6.287129129211422 14.851390859483157 7.101632531239547
Pb 9.453646073917799 2.7369705513498683 5.55278290895977
Pb 5.818956702201727 14.652581727319967 10.232647443724304
Pb 8.69022402681967 9.449657756407747 5.6857173135938
Pb 3.687511955394013 13.06589848623526 8.065265977980454
Pb 4.165459167679684 11.894712873485766 11.065170835517847
Pb 4.949325248247876 8.692452286266969 11.156943012871102
Pb 6.596850680990038 3.6583993527453766 6.973496599738332
Pb 5.681197451667573 10.142380488354025 8.194938952519777
Pb 8.3976639886726 1.2230059933196813 8.324229269582533
Pb 8.62682651984126 8.013426055611006 2.697693740805226
Pb 6.131789086086494 6.369075015423368 8.953829955486583
Pb 5.658680477646692 12.183616940507994 5.422395769443749
Pb 8.046666883294835 3.6711641211310826 10.611422844737849
Pb 6.750403488571987 6.623431508693402 5.253775078017647
Pb 2.7049170558442976 6.775453695855884 10.001343523729673
Pb 4.845666959506318 4.685982633228908 11.465674597937827
Pb 2.4378508481568413 9.949037229987228 9.108630404081138
Pb 5.494839979387841 1.897856267721113 9.70459669658871
Pb 6.681244448823427 3.8496135249785985 3.5412834056633167
Pb 3.0658031934571164 10.33972705264371 5.933816092309847
Pb 5.329170061753772 9.233915939917178 3.6345709859820308
Pb 3.731378252585283 7.29405028073975 6.8615181011435125
Pb 5.914713672270631 6.531717940387838 1.823491747984026
Pb 3.837103576167249 4.352810470243277 5.106309076927265
Pb 3.5177817078059337 4.088095708581357 8.40568812748443
Pb 2.9934123358159375 7.07955874549 3.4591134486475354
Pb 3.771806599317932 4.276145351586165 2.003045367915522
