51
Energy = -169.03075959 eV
Pb 4.502197872322705 11.951130780858445 11.581508331630944
Pb 6.869305544512306 9.919588186028337 12.381859142187604
Pb 10.505317687433264 11.01347759820526 10.670390832048477
Pb 10.456086037389044 7.844178356484244 11.710606597461673
Pb 10.144959452300602 13.80815547308079 8.434766892126568
Pb 7.3945616999673085 12.000635420660752 9.756426895463862
Pb 3.6929655749356667 8.661551904587663 12.285967375319066
Pb 12.89041759918118 12.1553217670031 8.858778297927413
Pb 1.8144085826036307 10.686244619925649 10.536147802979148
Pb 9.556164130306726 4.869597520842614 12.564006020032116
Pb 6.84604876138995 6.6940935400598995 11.944702567287171
Pb 4.4729038246512856 12.683937333457337 8.43403511317952
Pb 12.304996337477952 5.301841553646821 10.458880028875337
Pb 12.872026079547297 8.853470495149821 9.530238352095427
Pb 8.187734673138019 8.745145805566464 9.441424162920539
Pb 4.864320639820069 9.499473413658162 9.288837797548528
Pb 7.462984068016198 13.047430712501791 6.567376784214872
Pb 12.007599885851974 12.922151542333019 5.854912369521867
Pb 9.818629046618483 10.804601421129211 7.288185523951072
Pb 10.394226377785055 2.5111141123388663 10.62256519977153
Pb 1.91097071982378 7.68282749571698 9.390776374237696
Pb 2.060162036619958 10.219238773291973 7.267856458655394
Pb 3.784624234560567 5.559978056198633 11.150464522079025
Pb 9.29622215769891 5.5276435605665695 9.294328647696785
Pb 13.569803534235612 10.021737736700524 6.432502897829578
Pb 2.5415722812618466 9.728048102344337 4.15007289336707
Pb 10.65146050905886 7.620796932340513 6.624738871788568
Pb 5.2422997098453 10.55876625937031 5.957180892624228
Pb 5.960765459489893 6.1348003234362425 8.802901611030752
Pb 11.016552763791655 10.249689278767903 4.268873281094736
Pb 7.878777820315712 10.885239418123083 4.088120102985031
Pb 13.508606602855922 6.531864825315234 7.330089578368359
Pb 4.166145930202326 7.339056947036049 6.140932471779093
Pb 7.172869296941241 3.45759349806963 10.62399167567259
Pb 7.352062251432456 7.949350704894077 5.724732670497408
Pb 8.786752490770635 4.612066807264628 6.030359177846347
Pb 2.650187582954591 4.604104151687011 8.21958067254473
Pb 5.5567505876507965 3.6665965598155985 6.876269540981074
Pb 12.903825813192912 7.676768504692408 4.17027031921291
Pb 11.778434172622188 3.3342816016055594 7.747809931430707
Pb 1.0314424036952656 6.840488675616087 5.986100243080876
Pb 5.44802799979954 8.72884291325626 3.009156296350908
Pb 9.598138671102598 6.807032312391117 3.4630442324821673
Pb 2.745213256845227 6.727469226972335 3.0784903478234713
Pb 8.603506408498907 1.786925492613698 7.9346582532609675
Pb 6.00689886649404 5.372452132092998 3.8936206590096214
Pb 7.350069002627243 1.8745171741352586 4.735980093419812
Pb 11.929859613598088 4.638364626247213 4.708005394837584
Pb 2.911856595051287 4.256551890178857 4.986507746973467
Pb 9.241559114193237 3.6234914399301936 2.9060504860740677
Pb 10.489103165835864 1.6179514884557635 5.229067544157737
