5
Energy = -13.02259388 eV
Pb 7.557597809208194 5.914994649363266 5.982663480301652
Pb 9.469908720032766 7.007292514873254 8.069994588148843
Pb 5.577314063441707 8.0553378354931 6.544803913722388
Pb 9.889569313989247 9.062916208567279 10.144252259257334
Pb 7.337824531014464 9.304640967248158 8.681962426720709
