51
Energy = -168.28816702 eV
Pb 4.466563257548321 11.376869036035163 11.493827312354089
Pb 7.761436367632899 10.132292901663323 12.164787077800025
Pb 6.857869437191309 13.07502191735998 10.286382032006864
Pb 5.041403512387597 8.48643741607139 12.714754434410803
Pb 2.986753133832437 9.236537721314697 9.762519709770455
Pb 10.767992305078197 9.086525410488628 13.173320585154553
Pb 10.173326007058956 12.771707766011827 10.01856558830523
Pb 8.347018372870107 7.114562197848033 13.839255308466726
Pb 8.536915345962667 14.685498945190721 7.767182124554354
Pb 5.5603621431427115 12.937577392695529 7.404296630084468
Pb 6.187307146449766 10.02434253821868 9.037996052486408
Pb 5.673225891476716 5.402702550310823 13.173964931914682
Pb 3.2699509017533397 6.151665086935967 11.028776175315691
Pb 3.635033791565111 10.354867888161918 6.766621655206867
Pb 11.76856163236655 13.518536919289938 6.993262337488426
Pb 10.014129216930758 9.340318596506446 9.933169929049434
Pb 12.678224205716997 11.012107247852601 8.924804411322388
Pb 8.911697088313698 11.37989489288411 7.316151919035876
Pb 11.467692362174883 5.900893757342447 12.80763583944468
Pb 5.742577253141485 3.947387382304258 10.013525590575806
Pb 7.321146244194709 7.012619992919126 10.529074689119891
Pb 9.948099912623263 15.385532891939874 5.06515942743576
Pb 4.5992255404695 6.772897294572107 8.074021626676272
Pb 8.51540236532714 4.261165146680939 12.124665304392458
Pb 7.517777646365552 13.183909508544417 4.774078848002306
Pb 10.729221555125234 12.626246379355003 3.9182429006513497
Pb 2.7604887688753146 4.063998385699954 8.673622661706759
Pb 3.3479277301516297 4.896129294035278 5.506264548088141
Pb 11.385548330299162 2.942037579892584 11.402872826603758
Pb 13.099988737456083 8.334616021132419 11.1754422229569
Pb 7.389610142866972 4.984301964364646 7.119758244159093
Pb 2.9040391004132706 8.090657252962396 4.547656451215383
Pb 8.938335670842344 2.4376372667568806 9.00701329054521
Pb 10.400014007588426 5.307511981954177 9.172676694318055
Pb 6.1086461948720405 7.964624672309687 5.375769924180956
Pb 5.163735006368226 10.720616286357632 3.8320247383565977
Pb 9.11379925259686 7.957221794020301 6.911876180694326
Pb 12.379130569968982 7.808823459045677 8.00385643310327
Pb 8.799397156461284 10.02390813508699 4.2404808718279146
Pb 4.984285269741614 2.515644639804315 7.053238238832512
Pb 11.926265108417375 10.270307477991672 5.790444161508144
Pb 6.230141895404332 3.44015288829606 4.352091239320957
Pb 4.9775508929721415 5.942800768315544 2.7176957124833656
Pb 13.550910295577333 5.1627474146817 10.103860772238605
Pb 12.174623427415554 2.311282918163555 8.391593861941447
Pb 3.861879104289059 8.777425861438958 1.6434391357394253
Pb 10.228344079061383 3.485766505776723 6.107786224442849
Pb 8.230236162110122 5.890646978894701 3.889410781617006
Pb 7.021684395584066 8.502351344215151 2.0524827319980203
Pb 13.203148231031783 4.794212782977581 6.785459586534543
Pb 11.246734922637165 6.724110266936042 4.963032726813519
