52
Energy = -172.20866015 eV
Pb 4.729764931332332 6.894371941973854 13.204291159969776
Pb 1.8607817416029708 7.61040679046892 8.527866200143915
Pb 2.981254476810356 8.999698725262245 5.761777999836414
Pb 1.9723786376699863 6.475084019487146 11.553951626079167
Pb 2.282923881529678 5.79633340305936 5.785725382318092
Pb 3.861790077882687 10.197883341127119 8.932663841486498
Pb 5.352627463483759 9.933158276277887 11.708632111114705
Pb 5.274824259638459 13.09351569412791 10.261192664567853
Pb 5.161717237635007 8.091535353261396 3.4756014077363417
Pb 4.109944348676992 12.77521986992915 7.084784872620996
Pb 5.732506641639965 15.346340128573761 8.16811285369913
Pb 7.9390168446157645 7.918817256549838 12.127939529870043
Pb 2.6117263021549944 4.357502056992661 8.934671738255906
Pb 4.931458182745382 6.7427108050801055 9.99945418455048
Pb 5.272454535830394 6.692386122278012 6.620804092527457
Pb 3.947495721545938 3.9811338576326722 11.93014866889411
Pb 5.999813128651161 5.0836335709916876 3.632982526528901
Pb 7.343256194367514 9.206714979430691 8.929253491336217
Pb 8.246847074599943 11.557339261412016 10.878436849048915
Pb 8.300795221113267 14.63277361916974 9.883442811392639
Pb 6.071223000040336 10.121356655555939 6.0856737050535825
Pb 8.275290387210472 5.921015957167065 9.28754869759586
Pb 9.137344679646397 10.666731631060777 14.033537882000916
Pb 7.43939219138383 12.689865667919161 7.466708012478308
Pb 4.559335668296033 3.5292288081839622 6.073936995857578
Pb 5.828108273133789 3.4332066728917416 9.258341633442164
Pb 7.082564573605781 4.767783009024661 12.135300897921015
Pb 10.717291642306861 8.629482971277978 10.005441170213052
Pb 9.352247797944685 7.4954757485563785 1.999234299136572
Pb 10.289881419345651 9.829314947095115 6.837562643052645
Pb 10.917363913948764 8.023105269005262 13.36647528324059
Pb 7.858299443919792 10.10928549274374 3.1106994017973677
Pb 7.874109987633603 4.272934152151543 6.437797263321794
Pb 9.509042670702618 12.413246122825475 4.92264830864715
Pb 8.242158237869228 7.368853172754895 5.069980701642872
Pb 10.20442469835366 3.1278375626146966 8.563797201430601
Pb 11.390734314623526 11.657199546152103 11.660206209657773
Pb 11.063212236242402 6.211116517501182 7.289761647691555
Pb 9.254322761970196 4.612034512052168 3.37714693337901
Pb 12.229873537700543 10.65650402907378 14.519446838524107
Pb 10.76280574578419 12.793715185253953 8.272433227626108
Pb 11.230178817022056 9.916068427348074 3.324028556767519
Pb 11.463345889399251 5.4545515088009715 10.677726768496754
Pb 13.483055896168988 9.166483770373347 11.838133689348512
Pb 13.082087172499238 10.566673569045465 8.62006155005026
Pb 12.01711887872098 6.440053182984419 3.655488513798788
Pb 13.283123176229967 3.7798004583819655 8.569973208081137
Pb 12.566277798585217 11.963807594628962 5.507455866898455
Pb 11.6180512125728 3.448460856965449 5.580371595104582
Pb 13.29839221220932 8.777218122182076 5.7390361054499595
Pb 13.831529988943098 7.034416177125433 8.965130373327883
Pb 14.136714933067339 5.556926980240748 5.99175921946749
