5
Energy = -14.36186536 eV
Pb 6.729392384572831 5.297335416392955 5.103123896247277
Pb 6.7687935846579395 9.035807828554024 6.36560332212898
Pb 8.714151925553194 6.811871193588966 6.706601209364279
Pb 4.892219268742702 6.7987306039818725 6.891157034762475
Pb 6.910765670757598 6.071577791766446 8.948837371781263
