54
Energy = -178.65238624 eV
Pb 13.450105574576098 8.03696310193354 3.9528824464190815
Pb 11.854007393969905 10.855598492679706 3.5599321490965408
Pb 11.35152090412259 12.590733495633547 6.744561261838184
Pb 13.307737242255365 10.019203529185033 6.511753226851588
Pb 13.114091246519825 8.246564967469174 9.516605278520666
Pb 12.947597947885207 4.700239279590686 9.54691615806384
Pb 12.745376060184102 11.58431800769168 9.604358322251604
Pb 11.68950696673034 5.507576330763899 3.1788961331054897
Pb 11.973354019816373 6.730069429174735 6.736305386279527
Pb 12.31544807873869 6.529952613872002 12.216453042506583
Pb 11.367453580437 8.315726032527271 1.4613055422779486
Pb 10.767219794170911 12.722835097299377 12.002827222305744
Pb 8.715176107093628 11.418261109537319 5.264446833143138
Pb 11.298939224450235 14.465196240552135 9.425650155798834
Pb 7.5528468479594375 11.591531279002378 12.026859403575742
Pb 10.716138334883116 9.549793630271985 11.380234421667277
Pb 10.255924784593336 9.470555814899862 7.994559169695886
Pb 9.422140476422307 4.688638837080284 5.507827663685711
Pb 9.888298283507257 8.146350649967838 4.470890871527099
Pb 10.084703889045908 6.241455177709489 9.71192055696877
Pb 10.980334019470428 3.5801828283033186 11.861391925011329
Pb 10.068591583776243 3.1345049777798883 8.79450785284095
Pb 8.70020995840058 5.810154505092053 2.230040381475544
Pb 8.976502734803217 12.32503162678264 9.166430601004768
Pb 8.87037083393479 10.313974901158062 2.1382426469451876
Pb 9.071282809699605 6.136108384073255 12.880827459416873
Pb 6.068173246503823 12.79613223799358 6.671617650013628
Pb 7.720352241114435 8.396292146923152 10.451437193081741
Pb 5.673979919352034 10.976564969754682 3.9848937138243734
Pb 6.843749097568249 4.736288773233381 7.801041915133839
Pb 5.870970355399607 10.869877188235986 9.207085963136139
Pb 7.2588169853055815 8.79554055668904 13.590256814546892
Pb 6.456392373095248 8.172668033118715 2.550650371911582
Pb 8.159409142008027 1.7119546479582526 6.329427649517814
Pb 7.732758512849687 3.8374412099008772 10.892847979861694
Pb 6.729688615307822 8.774234656836171 6.257051373710286
Pb 4.435049098651927 12.581357837945466 11.570758279427457
Pb 7.649397515153573 2.8924720623130438 3.407029969682988
Pb 6.196011897859363 5.59039666202851 4.571965008496858
Pb 5.56185530147215 6.333759514128638 11.901428491979944
Pb 3.547223869629251 13.216421427012412 8.632624289417695
Pb 3.4110456663842963 10.650256060175998 6.531560557948468
Pb 5.824543199605503 1.5587152793485646 8.59417804329184
Pb 4.17675216817527 4.078014818301722 9.85899657289152
Pb 3.932573913866321 7.974344566774522 4.750471045367169
Pb 4.8211373039916845 7.626505381782397 8.82690309150502
Pb 5.061893131487951 2.451002174091213 5.437026429126668
Pb 4.3344569459503575 9.404402916113149 12.186955350907677
Pb 3.59534151312426 5.134368621486517 6.716310028461796
Pb 2.318637033288095 6.9760041327572 10.826957337709803
Pb 2.342227037807477 10.342249806047063 9.750203822255681
Pb 2.7016721344298156 2.0442350201600217 7.722288007062601
Pb 1.7220126010193462 7.735037363056979 7.652849770216268
Pb 1.1505322490411454 4.641680610186685 8.784388045993447
