55
Energy = -182.52032811 eV
Pb 3.10127491115961 3.043435894270845 0.5607741525247274
Pb 8.163713821038487 2.0005363988040226 5.0468601642067545
Pb 5.39882399816778 0.4610656783269879 5.58797010256398
Pb 4.132758604141441 5.386417744883027 2.722852079881692
Pb 2.252242956091279 8.142499822290617 1.8794452578908367
Pb 5.182679998801842 7.974381798897878 0.4112435204334387
Pb 2.8037796573295397 6.035246438708981 13.040098335213301
Pb 0.24875863785204325 6.344212033842036 8.418752234804295
Pb 7.247954861310514 4.467125573719064 8.400592293561374
Pb 5.478035256135213 8.15709285538008 3.909218257065827
Pb 9.593074088922904 6.257853616051933 6.8399386407537826
Pb 7.486378641462853 1.2127586959931032 8.223338124279069
Pb 0.997138795304359 5.068633793563296 2.1700105141420414
Pb 2.819778963568601 3.1179779356353636 12.228537593672156
Pb 1.3107146753941772 3.326925834309068 9.303400779872208
Pb 13.17383891127278 6.816070003999697 5.011886651902292
Pb 9.637130304558791 10.661150262081478 7.093063649539206
Pb 11.493372475162168 7.113977337694623 2.354684075929286
Pb 3.2594117753600176 6.981264278907424 6.740175533103479
Pb 0.8041651775773664 9.323891412730566 7.407871843612116
Pb 2.7456928243278704 2.2483145343340096 3.7113972695404116
Pb 7.067741694993405 11.334641840164302 8.847758617601405
Pb 5.86351424411558 4.687617917321638 0.0633532086067656
Pb 12.735931432798097 4.859961746277141 7.394928852603022
Pb 9.073419252302779 8.610654466412033 4.4419707430427895
Pb 12.082104310147692 9.903775865618549 4.4714649888969875
Pb 7.186771226046166 10.39176241601995 2.1477226826443427
Pb 6.723852270029291 8.24096248244767 7.343789658057193
Pb 4.276713499600263 5.4237305258397415 9.855299924516233
Pb 10.54018130843758 5.50125379863951 9.840905252682145
Pb 10.270987443623092 2.885876411358205 7.584661146098926
Pb 1.2313471170169812 4.326726101888752 5.980469297326488
Pb 4.412398463993877 5.856253275832766 13.040098335213301
Pb 2.4782428450746377 8.377170679461553 9.963082197953003
Pb 4.837433357431535 3.7154808588717363 5.8706633317411825
Pb 8.63104011507297 3.806485131694572 2.039530073366648
Pb 0.48904723480980405 7.267065389908386 4.888527680397948
Pb 8.148808342970217 7.1290961898122704 1.6610031381931392
Pb 11.982374064215353 8.266370051141065 7.67604968706216
Pb 2.6142560563944537 1.3373335059273657 6.869012911993504
Pb 8.893401708549206 2.819033763568158 10.720199663787986
Pb 4.452193412989817 2.1488647452043304 9.397665718426982
Pb 5.9863061211149695 3.1744633594917513 12.123567538716248
Pb 9.43542238181614 11.996822092311506 4.082069799787209
Pb 6.54219344933868 11.050453399935025 5.442867462243362
Pb 2.6770112439350258 9.65797534595167 4.7970998931964015
Pb 7.507051169069389 5.995170609327173 11.395469208126851
Pb 4.168846906480914 10.30775302574875 7.877808905396552
Pb 10.322551237763145 10.044021075450027 1.6259331868196842
Pb 5.821160096079384 8.781690186282727 10.501989798274742
Pb 5.789439549118814 2.2365530268684024 2.7212101160646176
Pb 10.969173795784153 4.330511574278662 4.429067024320892
Pb 7.515961559605509 5.3479551527723475 4.544287852281811
Pb 9.062253340902055 8.659043297196229 9.627440581418076
Pb 1.3415073494108969 5.847995682525295 11.678015220623518
