52
Energy = -172.49770925 eV
Pb 12.04350728351082 10.253882518157905 8.568839268956163
Pb 12.24117273045922 9.395876726215212 5.41071558648765
Pb 11.941849273822335 8.245456224824084 2.40077505191363
Pb 12.565817931875113 5.953019132547332 5.223014176403186
Pb 12.044955662655738 4.997644459333347 2.060213744714084
Pb 10.224287314419609 12.7354243699018 9.288863908547869
Pb 10.774122902077584 11.468493884027405 3.3052063448725204
Pb 11.752191787284914 7.742938581016841 10.542144780072892
Pb 10.771824590699897 10.264187505713396 12.522667082496582
Pb 9.412471364364636 11.109876459296864 6.510953135136558
Pb 10.210499320862086 7.478106089057338 7.317888194176165
Pb 9.575587351582756 9.863788582966812 0.712856435743818
Pb 9.283098070316056 6.6256196536243745 0.9323967035100843
Pb 11.339653117715015 2.7644455938643087 4.279961810408304
Pb 8.91675292269962 8.854573137554087 3.986771742171748
Pb 9.001193850814644 9.68357075434228 9.953095268942501
Pb 6.897088942592896 12.007769156933895 8.853144789136168
Pb 9.393339400406067 5.581476591794795 4.227391618068483
Pb 9.801098645831095 7.044126279319458 13.25714803949904
Pb 10.416053229091137 4.033233902184328 7.087711761412855
Pb 8.502174763438678 12.556929151154252 11.933430932129319
Pb 5.7032447398050055 10.281767171915071 4.747734453743766
Pb 10.882461841741005 4.707116336934688 10.937480414648977
Pb 9.292063637747352 3.218733267255569 1.8788332715070155
Pb 7.618101292536487 11.529352748153347 2.542624014633981
Pb 7.079978693316107 8.779897541623232 7.213062412780989
Pb 8.634088981891605 3.9862690387628223 13.041336624220422
Pb 6.611260848306587 5.047453409300716 2.2713951370684846
Pb 7.928373003510446 6.249070881755627 10.5537294849829
Pb 6.417814046636943 8.40771973192308 1.7345073968564497
Pb 8.11254664872956 2.5818798589802827 4.966210772634179
Pb 5.569166850549482 6.895783111147581 4.774142704470365
Pb 7.25511622478585 5.071272707115036 7.241720441515312
Pb 3.9421201845967047 9.997238883625954 7.652265001364097
Pb 7.558548346504711 9.808754747041837 13.505558851044919
Pb 8.170184371033615 3.1033020570141727 9.83470656260851
Pb 5.737852372767929 8.868808798454676 10.34154859267178
Pb 6.525560725861653 6.514856321311421 13.67145739218739
Pb 4.872007785205385 3.608702871855833 4.822666977079433
Pb 5.4397930993237305 11.867738946891203 11.743215207400826
Pb 2.61225181201043 5.714218003918768 3.8364100538768495
Pb 5.674222553072135 3.8890566987842456 11.755112118208299
Pb 3.3066354442839287 8.725598481876037 3.402763821764715
Pb 4.9467524902792634 2.8161737422380724 7.831452442741798
Pb 4.27369486002082 6.472927202746642 8.429767371678912
Pb 4.221238157334543 9.210058801925047 13.22706222018166
Pb 2.4778983401884074 9.159343769819236 10.390310568597846
Pb 3.4479016661665107 6.344985312975931 11.854248694226598
Pb 2.058449659688184 4.426900577704583 6.835049714039606
Pb 1.887994986290258 7.793943653714408 6.387545432851911
Pb 2.79269069027013 3.777734569169677 10.03215969031858
Pb 1.0190105674656518 6.397119151595642 9.28713995261638
