50
Energy = -165.60864325 eV
Pb 6.193952366867948 0.9991600631107026 5.812500639215226
Pb 3.7217717509671657 2.931516450959823 5.258157391668594
Pb 9.009492531646261 2.461199366981665 5.3382919266102
Pb 8.810005813528685 6.0122386763089155 4.079595485315782
Pb 3.8590778932840633 5.656781469724782 3.5929437637345263
Pb 7.701391163336084 1.6630571176076514 8.613544071392178
Pb 4.405341844054938 2.5919613719329715 8.400796233343597
Pb 6.148575201587977 10.23992950740495 1.6455876857187008
Pb 6.293053254708617 7.444124107821092 5.561566718024409
Pb 9.091062764725837 8.965137273602398 2.1005352681433886
Pb 6.110597418709078 10.759062268097303 5.124878683136575
Pb 13.957109526160101 8.645996916160327 9.685862258958009
Pb 10.560242663615517 3.2374569864374307 8.287865809432525
Pb 3.7446791794071577 5.768949125758844 6.966077784328502
Pb 12.773844762100863 5.554879260347521 9.136218610630984
Pb 11.509096872184523 4.749543070610966 5.607976610989442
Pb 9.659563156202836 5.17095703896493 10.691838612216387
Pb 6.821754688642991 4.331270202851616 6.9388827584978685
Pb 3.702177086013653 5.556127047066843 10.173400627984368
Pb 9.66087426596683 6.460609116786765 7.587125872231171
Pb 6.50208403866342 3.51607887048901 3.546189039472726
Pb 12.310729763655432 6.9402457794452594 11.955649944894143
Pb 7.487281726008704 7.0054917844005535 12.790043077888077
Pb 11.855596461025327 7.977590502271771 3.6354028858222347
Pb 4.010015391305636 8.501420528181166 12.072659640179673
Pb 6.381103950298966 3.8720304853444554 10.707546271217685
Pb 6.007981614848993 9.245470607000712 14.64930646826195
Pb 9.666165230150073 9.587275190946515 5.4185759650438055
Pb 9.70194683034293 8.501195518419259 10.600187248526712
Pb 9.310433904018124 9.459273298260252 13.756713039229815
Pb 4.060204642145833 8.871244059746898 3.6134596378537536
Pb 6.6319761330857165 6.906502720753145 9.617699689413326
Pb 12.281339646633816 10.120019284266183 11.984648716133908
Pb 6.721099949145674 10.202898955213387 11.333270602810527
Pb 12.545766868164037 7.8110180110492085 6.90681944529003
Pb 6.328659268651137 7.001186750600003 2.022521976781888
Pb 7.643896086219181 9.60400151426015 7.996060147938025
Pb 3.35441336245209 11.476415280645396 10.468524430090655
Pb 4.325660591368581 11.680873178893778 13.462878326868681
Pb 12.944704723967078 10.75911525880924 5.653734830331344
Pb 4.192085902546135 8.842734296134788 8.662678631059572
Pb 11.2990155997596 10.572176552221839 8.546502341702414
Pb 7.465535376837223 12.178172794971228 14.057538405107232
Pb 9.682670230474136 12.120548413687525 11.65398258543609
Pb 8.33749587646948 12.066345418250291 3.2187989955887897
Pb 5.491830086286131 12.073593562547716 8.1169261345338
Pb 6.076192805624805 13.44196135078115 11.141451073317919
Pb 11.460588197277328 11.178661997731401 2.884284147462464
Pb 8.5409496604499 12.740532886907538 8.661929410958713
Pb 10.401712547412814 12.734586267957868 5.677381040330603
