54
Energy = -178.97035791 eV
Pb 10.27797320788799 1.9531763019878472 9.857924814315918
Pb 12.704097973630448 4.061226950524266 9.939824539742352
Pb 5.679034258589552 4.978119246049343 12.971024820534987
Pb 12.578187632740777 1.9996813692592617 7.506036222747987
Pb 4.614635951835994 2.913600457993073 10.684406359576506
Pb 10.58356191350155 6.759660010957682 11.50248212160671
Pb 7.198970358307635 1.5778192288594626 8.816622747530106
Pb 2.3981025583779423 4.6499892283466275 12.465071390249827
Pb 7.574607956563498 4.506533334059247 10.36830114065104
Pb 9.550588272113085 1.3584879222735207 6.519890981580492
Pb 13.293807366043177 5.195869537281072 6.859721557103433
Pb 7.092916513590554 7.940575884309743 11.360570174991413
Pb 10.279911487287363 4.712284686696051 7.981538001297486
Pb 3.5770819171651342 7.47784328995423 13.307614687422918
Pb 12.548735697572118 7.529804204768647 9.074103050918007
Pb 12.429413784974747 9.63860248871089 11.587013138714227
Pb 4.400285431771361 6.465277008387683 10.172479090229993
Pb 1.9969427344147028 4.37122242578043 9.312978243433342
Pb 9.49948547217439 9.530854266632003 12.871592268430772
Pb 5.395901726172997 4.306535110629268 7.698674731764499
Pb 11.300920405799227 3.6196693235324804 4.837819146471811
Pb 6.430194906569333 1.8653448060205386 5.745921922336054
Pb 7.420251993400358 6.915872326365985 7.999679753757875
Pb 8.141660955497809 4.779198802232311 5.443144330408051
Pb 1.2593399018619822 7.372606182110397 10.894180675813598
Pb 8.53897432540065 2.5098979223679008 3.324800144871002
Pb 3.8192429106487085 9.877151525293783 11.31967683914898
Pb 9.685618070299052 9.193830764085554 9.554844610865237
Pb 7.086729712684288 11.399517516732365 10.125349308832652
Pb 2.003463001759443 7.0139887270601475 7.4683078297855054
Pb 6.445144485549932 5.295073442571719 2.3844039207581513
Pb 4.952884757522186 7.350761377440058 5.619380030098658
Pb 11.996369173511864 6.714120882094798 3.691594372836676
Pb 9.628641020514161 5.442626902486922 1.893569928938394
Pb 10.366725169882415 12.158503868350396 11.103629773076548
Pb 12.142417545175757 11.08388466265448 8.508291760851034
Pb 12.446303191415305 9.766617195465768 3.822752403070014
Pb 8.15461110151169 7.787497935661197 3.909615457482617
Pb 10.715856808840515 8.304207312921056 6.372671786768825
Pb 3.6642836803085315 12.557707451364045 9.665581129779442
Pb 4.630660455036119 9.66858157139385 8.080630500757596
Pb 1.3768559489981613 10.114987175298067 8.813430095789698
Pb 7.869556242379131 10.2029202761365 6.746884976043969
Pb 10.36097384059966 8.838523845037315 1.5571575593498768
Pb 2.169733618170188 9.435015205253206 5.559759437251504
Pb 7.659696645252543 7.555718209272025 0.37341151463269856
Pb 5.072976613423924 8.242425875278052 2.3444543187563283
Pb 5.925986985586167 12.998690978202038 7.353794383408687
Pb 9.329331616434164 12.998300735781175 8.145830046965948
Pb 10.64722151906176 11.67177638939548 5.529952177215427
Pb 2.7283652828613674 12.356445021806751 6.616765993488609
Pb 5.167513923908538 10.678600489037093 4.77205715475525
Pb 7.497092193964203 10.381548319811415 2.110794929939915
Pb 7.740500902384646 12.643983603659395 4.566699988776626
