53
Energy = -175.76249057 eV
Pb 2.546641196725665 8.181811872875059 4.149582082664423
Pb 2.676259398084248 3.5890860716814514 7.950919278340188
Pb 5.144970118564905 12.269274352065159 8.766730229015536
Pb 3.3252528891886364 2.567343268980435 4.786543674189181
Pb 4.656601186237329 5.988966384366854 9.266824743416615
Pb 5.497082167486477 9.972392816154802 4.5828111108237755
Pb 7.739090392161309 5.153438196647716 5.662958471474118
Pb 7.489006764876916 7.0268890883103605 11.658271912128312
Pb 4.4857340007514805 3.0594523059974197 11.23391844520794
Pb 2.9012936601863704 5.1184284990387034 2.604250285289192
Pb 3.6753435634521523 10.146007042554235 1.7188650786449802
Pb 7.904192177095191 12.148628655810404 10.500910143033455
Pb 7.852851141690531 14.091253915428592 7.964032551527653
Pb 6.4499486012068 1.895789873263064 5.658701836282901
Pb 4.870515528933548 1.007206562156866 8.557914697754862
Pb 5.5791952900379895 13.26890228802802 5.702751662641421
Pb 5.442997664658871 7.411506022646263 2.6110395181910735
Pb 5.810964351403328 9.551488465334678 10.594633628967843
Pb 6.9906621326940845 3.457583008108355 8.834971869211838
Pb 7.640912321039759 3.8067020166190466 12.240136032322575
Pb 5.849228131648679 3.9795534164369304 3.067490335027122
Pb 4.366424867148888 5.802024251750636 5.685521334374261
Pb 11.311602061836762 4.98372782368323 4.419660102612739
Pb 8.102840086301981 0.3345234971816616 8.223466446751752
Pb 1.1775528261989832 4.9182627261650795 5.222138989238882
Pb 8.763942918608366 6.05301367985938 2.5953300392143364
Pb 1.6407989531206133 6.881087856231227 7.904061718292526
Pb 5.23533442755929 12.847871541097634 2.5409912122840526
Pb 2.8372866431032056 11.611080580338857 4.578103716175684
Pb 9.807603257848337 2.734416650540784 6.707946020259794
Pb 11.587914297648247 7.809366947095925 2.9428378020660504
Pb 12.2627628678003 4.883078807459894 7.542680166006371
Pb 13.474014338078236 7.46677229414245 5.64262193927723
Pb 9.638304616198324 5.506341347005672 9.745748311450786
Pb 8.866141101613005 2.806336762922674 3.5375754461142317
Pb 1.7409122797318959 5.194793491756489 10.71992879486717
Pb 10.450776722150781 7.582613917210834 6.931146128702156
Pb 6.956926721633689 0.8631281869858469 11.161376232639235
Pb 4.19027318254512 9.094986601240505 7.687464173368825
Pb 8.573062115050483 8.831566874296708 4.342049268909304
Pb 9.798785310878486 2.2542141038317536 10.300101986617568
Pb 2.6743252451143484 8.333061426629486 10.631936999003123
Pb 6.964712953281949 10.29463700709011 1.5446386137691273
Pb 4.375518476272888 6.260353853018727 12.489668529267444
Pb 8.192668744699173 12.180929007500303 3.99807434879625
Pb 12.564898093606354 7.205474937664232 9.745303182334299
Pb 11.61935918000874 10.163116548990084 5.087393536611739
Pb 9.641509548783036 9.356485670670402 9.85093695835944
Pb 12.70964348119917 9.905194410875065 8.072686356048644
Pb 10.601175094412739 7.503064811288616 12.235244222298135
Pb 7.3246439819691735 7.657549715943694 8.14391042069071
Pb 10.450846679648262 12.244690423653244 8.300969398209547
Pb 7.771708710629678 10.892428521836843 7.1179275100728105
