53
Energy = -175.62888385 eV
Pb 12.0134749091699 3.425615779491802 5.4093848811660346
Pb 13.626088683947199 5.129507089575324 7.742251399112266
Pb 12.744714720801046 6.696236691409554 5.068714684813558
Pb 12.48620110540581 8.476292546177675 7.784391143497621
Pb 9.995713983119696 1.8909853674684103 3.292134856023177
Pb 9.792646273901925 1.1062452738153115 6.520224418486482
Pb 12.212215820115727 6.472306698880208 10.38744656366317
Pb 11.313635218962727 3.0151263599664064 8.78666518399477
Pb 11.0492491742332 11.039939299684267 5.8351900145095215
Pb 10.427349505303413 5.9939673927530555 7.545828205899332
Pb 10.497818711798745 5.199838160725331 3.037269945564081
Pb 10.930776697424934 10.233844781525953 2.81355757438726
Pb 9.74166840585399 4.286793567974818 11.444198290540914
Pb 8.444028109478024 4.049736376302017 5.413506083786884
Pb 7.070946891995943 1.1794911720436942 4.49096485191233
Pb 11.065353528434319 9.657727780509408 10.752205670006717
Pb 7.600646985600901 3.841570067089943 2.2134969071012676
Pb 8.458426828099405 12.700661444094736 6.973913313327773
Pb 6.947758065067307 0.5286228129045027 8.100678803094443
Pb 7.897119986059864 9.392210616467038 2.0319229507269765
Pb 10.51425343070094 7.337145551930632 12.94137909893812
Pb 9.119423669626972 9.490655955933956 7.9586016337333
Pb 7.845160079754736 3.7957028098004697 8.734873114592615
Pb 7.4899363852601955 1.4962002673387524 11.10368747789748
Pb 8.577790705131022 12.393934298801202 3.5458112665959223
Pb 9.651960553765417 8.109251405596407 4.820779936112537
Pb 8.329769704599457 7.23245491665812 10.536772155750135
Pb 5.724041602453763 13.23382998630453 5.199653286772738
Pb 6.525827742365204 6.520300327441453 4.028595934874444
Pb 7.005948742474037 6.9482815137153695 7.265098268888425
Pb 8.66199765191424 11.918008580241375 10.238386710008694
Pb 6.555797944547548 4.427953816206252 11.91150700126013
Pb 4.775054463074237 3.5423858315699635 3.7282517355031994
Pb 8.428651061275868 9.783997298512677 12.822199358995896
Pb 4.444286851863611 4.872588485257777 6.764256852109804
Pb 4.6815434866314884 8.696100192825664 2.2701507736490503
Pb 6.66924826102038 10.06519629431148 5.116987219749512
Pb 5.817304699177771 13.237344109580846 8.957037622784217
Pb 5.65838739671338 11.806414400734093 2.2326781911537936
Pb 4.395078904919133 1.6449454041685823 6.396241720636715
Pb 5.910498050716923 9.949562476661356 9.340453208827862
Pb 4.862812402328623 2.6572210797637865 9.600281064398926
Pb 4.973131000242746 6.425980678823071 9.836079303866779
Pb 3.9851762976155105 8.270168931340875 6.686294728237062
Pb 3.492694218225954 10.844459387630414 4.451660871302024
Pb 5.269763123606272 8.708082080691282 12.401455077893388
Pb 5.987006564671488 11.969434844181592 12.076651620327326
Pb 3.2331229445597782 6.410952452741343 4.065444678109035
Pb 1.9823330521712255 6.230078446523751 8.516233587152739
Pb 3.4456999811866162 11.548537100360587 7.630718312356155
Pb 2.3754976756172064 7.669999974043493 11.43758765441872
Pb 3.115717131366527 10.917096772912139 11.058558190876095
Pb 1.452900690223187 9.330643830457413 8.784302672969176
