5
Energy = -13.94883584 eV
Pb 7.766135050838659 7.825679896295628 10.190939741115487
Pb 8.120348618225897 6.2856034161399075 6.966366747640845
Pb 5.579778098007397 6.6935176974486446 8.434837192756639
Pb 7.852925883276608 9.43749710314541 7.699636341517681
Pb 9.435217059124518 8.428337267477161 5.394580481316558
