52
Energy = -172.39271003 eV
Pb 11.61747541708337 12.019394140346014 4.341115628985467
Pb 8.706339646425278 14.150360099018574 5.428174397553872
Pb 8.993307020710892 12.685806797547679 2.463698565080477
Pb 12.617161733924812 8.745979375887051 4.418576376376289
Pb 10.571515868579842 10.035659886342241 6.768450138179815
Pb 7.727007898953819 12.686136745882871 8.3232715479646
Pb 10.073471629805749 9.648347741326779 2.2276730070147264
Pb 11.315082169681702 13.074338379889106 7.482420359056232
Pb 5.956926253763052 13.515126928395718 3.1511003881239477
Pb 5.526877040478432 13.89349516560314 6.301771824996628
Pb 12.503062794861425 10.667709632899498 9.316880226962953
Pb 7.3796248575747425 9.224381210521129 8.26010794457656
Pb 3.822074873548994 8.40339671774356 2.2750444757783677
Pb 4.145585491105505 11.132428420029653 4.464540320555478
Pb 5.999033774819458 10.796895029604704 10.994631668465038
Pb 11.251854739478668 4.635777495548354 7.707524013529248
Pb 7.038174476997647 7.287562138811219 1.7675885971436867
Pb 10.111912844628943 6.382826096504499 2.065701582917322
Pb 10.290973417995701 7.462582411095045 9.252151261870056
Pb 4.715359760971055 11.1967133143501 7.732694889174533
Pb 2.8931017972721507 7.041122018761353 5.074475154982951
Pb 3.1080044134363005 3.569279507680684 11.530745931500038
Pb 6.385228256617794 10.474975909663126 2.0151857560862236
Pb 5.0369070411046675 8.875596516243125 13.443512171908273
Pb 5.274451394109153 5.333882803459629 13.402327936833606
Pb 4.663032821366257 5.313467887064283 3.0739544931396874
Pb 8.051298242171375 10.277051637931693 13.57934161055962
Pb 3.123338388954789 6.898698630580072 11.19926819049475
Pb 9.299303304921134 10.549843037546088 10.631491906517534
Pb 2.5015456441270296 4.819461110055059 8.686560570138505
Pb 7.456690909765062 11.13138377973418 5.270630936253494
Pb 7.607637913619368 7.322033982427849 14.753508040999623
Pb 5.039548359920489 4.779933612785495 6.489340049021704
Pb 7.2264269653015525 7.714260663061791 11.37730852030874
Pb 5.908873336343273 8.027392083501121 4.876487356332753
Pb 4.2677470826404145 7.705672906731478 8.084722968403518
Pb 5.568194434148605 5.2702931301295015 9.878891680937192
Pb 8.129818158147865 5.830701379389113 7.095466393346625
Pb 10.202427410242718 7.830507522334081 12.660235612264744
Pb 4.8873184182944325 2.302594843644742 9.019960484541802
Pb 9.254576463570672 7.749400255938671 4.747274778436528
Pb 8.591399992469695 4.033454142902058 9.879705570041663
Pb 8.79029074505084 2.535556629095487 6.938565150553724
Pb 13.872103667061594 11.015162417397192 6.402717357577138
Pb 7.858411076223953 4.850494102173992 3.8321106990876834
Pb 8.719875925420975 4.64274170653017 13.384086276112319
Pb 11.538522334341284 4.56319843086739 11.066577634613013
Pb 6.274193114167159 2.3950436362192846 12.108120279653647
Pb 11.12220994826844 1.802304957750218 9.210180722798793
Pb 13.10534177224086 8.035233739105049 7.523361237613144
Pb 7.9479980315036505 0.8101211403653472 9.59805704747488
Pb 9.771475601281724 1.8154658804290513 12.109522855588075
