52
Energy = -171.89288006 eV
Pb 14.820628328868793 5.108845727563505 11.551791284549724
Pb 14.577837665764932 7.760705144282186 9.655751732934348
Pb 13.701326695322388 4.61227189497608 8.66966066085143
Pb 13.019601181957873 7.4879194292149265 12.691343763643538
Pb 12.989532450534144 10.163889120837915 7.54031536873043
Pb 13.028964060481584 7.036482673840841 6.701825751052492
Pb 11.780345738987329 4.169965249864547 11.67425993118846
Pb 12.051984533421223 9.234936870553273 4.293503147805251
Pb 11.07554023910773 2.6575047325627996 8.718207219269486
Pb 12.324213921694982 10.004279959405155 10.762510087726708
Pb 11.132319014766667 12.468266497136165 5.327627778837007
Pb 11.108173247353434 11.595298262335719 2.1783057934923944
Pb 9.070867619149235 4.942188424514879 7.591632333886022
Pb 11.335997802172226 6.830602208618675 9.671944358086872
Pb 10.685240351944769 9.854080160738546 13.762742192237198
Pb 8.652069273689063 3.58290740409785 10.775788992238159
Pb 9.778299539213888 6.8115887890432765 4.422582565640645
Pb 10.102567905499255 8.529845678685431 7.189432665224918
Pb 10.066530607547708 11.840848160419688 8.511016347199309
Pb 7.774369547676929 8.785219602372743 14.497228619467638
Pb 9.927656429328868 8.5356851816309 1.6730924159741096
Pb 8.736785533265204 13.591447311871155 3.207913421900182
Pb 9.741508502085068 6.678348254372215 12.637183942135284
Pb 8.811101282205856 10.340849370765037 4.513503881104197
Pb 10.209671289438557 12.491035604548006 11.805840662757046
Pb 8.173027815837624 1.7874401176548267 7.895220252133177
Pb 7.123307471444051 10.270954777608774 7.833291012188181
Pb 8.012028929581659 11.108504764844241 1.2089179483978716
Pb 8.720972411689345 9.611561482608181 10.999221167170205
Pb 7.427891770263293 11.699253472305484 13.207835279460468
Pb 7.450645845984814 6.667237553740755 9.94770004448261
Pb 6.728156168001827 5.945297060124395 13.278221918567386
Pb 7.348543976090455 12.782326819832631 10.16858515990085
Pb 6.80328204887718 8.37254123305564 2.811813652351095
Pb 6.753021526864921 3.898374669805256 5.638639865679601
Pb 7.80068284452523 13.19191841528947 6.35885018758318
Pb 6.956770958469678 7.3534492426077085 6.05421411420093
Pb 4.346803128872846 7.37857881709578 8.142184900547951
Pb 5.529060123827139 8.74658510552237 12.099005291015702
Pb 5.883561687948838 3.7363792081578575 8.955475702897264
Pb 4.538922315960618 11.946321274699045 6.6327381494771265
Pb 4.478777271051839 5.9762386334378865 4.2760766100885546
Pb 5.959117141976824 11.782420768760174 3.6740308607579264
Pb 4.6681662609161165 10.995181577485958 9.831461729608852
Pb 4.3335204127578955 5.707194248851303 11.158437519411171
Pb 2.119496568886001 9.835419470288212 7.491339622063673
Pb 3.499342140446159 4.191696298401122 6.741932934192051
Pb 4.1849829445117726 9.100299736454438 4.947926172265543
Pb 1.7071258089371848 5.391497565119269 9.225903058679783
Pb 2.4247495548668123 8.522424332567931 10.681177011818788
Pb 1.6624689292880748 6.852096018141486 6.053483050095254
Pb 14.820628328868793 7.927381233292479 8.789776502913172
