50
Energy = -165.56084725 eV
Pb 2.0996180780146996 3.335229580880262 6.549975179483395
Pb 3.064289343769342 4.958309080280206 3.9085874671601246
Pb 4.510038655513493 1.134990292539584 6.148974959374336
Pb 2.20730136468633 8.174543977495691 3.1687848455209764
Pb 0.5641198378344696 10.035990134977194 5.332200645857887
Pb 5.034063274766779 6.239604421346894 1.7347315699125307
Pb 1.4772612539362147 6.936799914305585 6.195644287488866
Pb 6.397670278627084 3.384952363300322 4.081762605699245
Pb 3.298302790957044 1.839194837787257 9.177741283024087
Pb 7.663125291868839 0.8582472262210867 5.7994799174840805
Pb 2.462855351001952 5.013277850717044 9.31943470643623
Pb 3.000593615569592 11.345833765360483 3.5574787043538416
Pb 5.191258154240091 4.123165307793118 7.43742102442741
Pb 5.514289931588031 9.308476986224903 2.66581535660428
Pb 6.442472010824432 1.3660933408300604 9.039357877403114
Pb 1.6107204850342884 9.464605597951595 8.383617308760977
Pb 2.4518790668723445 12.220399520520555 6.760913084950874
Pb 5.53488308540119 6.62142991898941 5.013535815794703
Pb 3.888179606054762 9.338419253342469 5.976400233090222
Pb 8.071292834350205 6.047271226285491 2.634121841747707
Pb 9.635539996779064 3.1275774145205375 4.337353172757089
Pb 9.213518999682313 2.9727446359436587 7.6381218896915755
Pb 4.502663025101844 7.393282144791611 8.609469011340938
Pb 8.472448655098544 5.6830967524252705 5.962569896019912
Pb 5.3079035635133565 4.0748348385584245 10.746925193526671
Pb 7.605562387746913 6.2110481547736125 9.258465401437405
Pb 9.026957754990974 9.127559199104642 1.9272001291045864
Pb 11.911187418129177 2.8858315701434645 9.603440639762207
Pb 4.468326162182757 10.925546109559008 9.289687433238122
Pb 8.686419147790623 3.4266221996455672 10.856418284963205
Pb 7.849839483426045 11.807092987009112 3.3581169712801477
Pb 7.356620940381752 9.662477632872665 8.42147069752001
Pb 5.824032614800417 12.051439027184962 6.089867962753832
Pb 7.14605041390143 13.050645581631464 8.892596544826642
Pb 8.221313489347724 6.073643921990081 12.548290192562273
Pb 12.505384522854477 3.8575697895747534 6.538414667730588
Pb 7.888084174658662 9.058108373398685 5.073991823973872
Pb 5.931904678721321 8.217347470176792 11.458168694642948
Pb 10.811863808463425 7.235667546988032 4.269057298103084
Pb 10.883087104060046 5.907786547996664 8.488713150029612
Pb 11.783366901031041 5.529877770396013 11.559974932264883
Pb 7.359626235530984 11.081944934642753 11.490803433238357
Pb 14.164624378317283 5.1593788542628145 9.152226240598331
Pb 9.94051469908779 11.456838898769492 9.61629819453564
Pb 10.878107479141583 10.536908486334381 4.150186215524447
Pb 9.273137133174508 12.266322395066542 6.426329069151022
Pb 9.587709497638372 8.363812614560274 10.895095813290004
Pb 13.372526696246437 7.084160403521333 6.677208455956834
Pb 10.475495278308674 9.074638190862219 7.21854539588271
Pb 12.901751417876593 8.107230742812051 9.778918642469835
