5
Energy = -12.50806286 eV
Pb 5.014160117654391 9.928190666967936 8.12415206316168
Pb 8.160250441327499 9.818988956203471 8.073473293955907
Pb 9.285678533791852 7.125325045471932 8.275182682635034
Pb 11.966566136694029 7.342246872362826 7.874334461736239
Pb 6.4372280615665565 7.1005122914436525 8.875838244894421
