5
Energy = -11.88003169 eV
Pb 8.311522983721687 7.751211570378686 9.855781612953244
Pb 10.215513650532902 5.649165408709755 9.882800598080749
Pb 7.527263160457115 9.06417833713046 7.086307400397777
Pb 6.382096707836664 9.964601792621266 9.648011600010635
Pb 8.297548851475451 8.567582402053416 4.411161238258596
