53
Energy = -175.5881564 eV
Pb 7.8590078139933235 13.502570616046189 5.85175499814992
Pb 6.855900271732651 9.509345693727518 2.0985999754961697
Pb 6.818709301987328 6.1099036105245395 11.683744804097564
Pb 4.440476923312352 1.8268833392391246 5.514452338353345
Pb 3.188675746284384 9.787044547502951 6.612796208948917
Pb 9.964404868100683 4.831039316639484 11.357698791349636
Pb 9.664147404512596 7.614048722401831 13.514225006473374
Pb 7.558286179465874 1.959439311442048 7.07530446964035
Pb 6.627195320793986 8.63715422587159 14.130244812054
Pb 5.339796557498321 11.334688044558865 13.017222365744125
Pb 7.552921500264593 9.549801266502987 11.056453411409237
Pb 11.898986681470761 10.376928649691619 8.107078203243443
Pb 4.349265796053419 8.419968317390738 11.756856837402381
Pb 2.088405053280627 4.154626793969366 6.001009668024554
Pb 12.119337092948793 6.720136463059774 4.216124968463165
Pb 10.230765902359735 1.7285510972324285 5.172461896116595
Pb 4.464468356974982 12.756595923311814 5.6735185652248585
Pb 9.089170245884182 4.863139416612111 5.4701615449635845
Pb 9.038216259604933 14.28293747076063 8.905442267027052
Pb 9.304897209915927 10.902937188358276 4.353704640343385
Pb 4.507307512686777 7.23140333634582 1.8326950417849648
Pb 6.387633648685149 3.2571711787973077 9.848871082164626
Pb 3.5579630492567613 2.5093878820812727 8.453871330661302
Pb 7.191129586212025 2.4940051763419038 3.8359653629836994
Pb 10.45869089857988 3.238614950109903 8.18256648449906
Pb 9.644446280935142 8.203417466271809 6.520506176181924
Pb 3.918622020489099 5.358242427397148 10.247981816319438
Pb 5.320986583568716 4.820545722197442 6.945194546562112
Pb 6.280493810956412 7.111464929280318 4.614465167219611
Pb 10.566100489851756 12.0163315025204 10.724066366299763
Pb 13.703978790899551 8.684539462187782 10.281866927552613
Pb 5.625481302300503 7.878792612823005 8.71574260919477
Pb 12.712144563903717 7.3031337807016925 7.2636237623987565
Pb 12.502386556043513 3.9214972236040415 5.709882465703025
Pb 8.376650103366362 5.722194587683329 8.61066279698815
Pb 10.522950709287361 7.998309513711812 10.197020509016367
Pb 7.283143353995663 5.269003918578444 2.0780146652226597
Pb 6.44671168325821 10.14647243634495 5.702158657430195
Pb 12.56520834049513 6.613062260374723 12.546840989289265
Pb 5.950073301176627 13.766522341325846 8.465028300332248
Pb 9.303646788879606 7.565507463283543 3.139013764992495
Pb 8.912732539897853 11.120489066732791 13.645992278424579
Pb 8.556577495251409 11.088109140544084 8.126157098280101
Pb 12.770573467223674 5.290819852588145 9.636761329179691
Pb 2.633917228868244 7.152302495351593 4.609582248684665
Pb 4.354966614762566 4.449315544999653 3.454243727287358
Pb 6.462959346834987 12.446334561352973 3.1507195097880163
Pb 2.483596716722165 6.859776931750044 7.879860693676388
Pb 7.476964744411294 13.05325595032903 11.42153756406342
Pb 4.709847245455139 11.066546722766711 9.791628443979796
Pb 3.884237747175071 10.215578260966556 3.4026704769557594
Pb 11.955977348635248 9.798518858277186 12.88778978719892
Pb 10.680719482291641 4.0878484035237115 2.861773994226534
