53
Energy = -176.09644346 eV
Pb 10.764242520283734 6.708780662159861 10.88917696469505
Pb 10.95100327409608 10.938557703868568 8.767376550787212
Pb 9.331738991771207 10.935430211832267 11.66245322932023
Pb 8.047852462352413 7.638169645543054 12.532807914492203
Pb 11.926699264598959 7.144113924548918 7.906362395608628
Pb 12.983693837912533 8.420860453893248 5.168173369059351
Pb 11.656732905914954 3.8718723155162067 8.08658403282277
Pb 10.084783671942102 13.807206172234956 9.989434102647557
Pb 8.824543644194728 4.111930231234058 10.887066680583663
Pb 9.849534187517655 9.497898768675881 5.850935623396061
Pb 13.217095405069784 4.952907779027466 5.163456707574136
Pb 7.200964828242887 13.44668596007609 11.601044292441271
Pb 8.665190935370537 8.675838726071936 9.257804592453711
Pb 6.055553109927562 9.987356737678514 11.077223734837848
Pb 6.172576722201792 4.598274677819908 12.845385115177478
Pb 4.7630352634144435 7.369709019336221 12.898760593976872
Pb 8.78809511396316 2.161180795376389 8.086544803310789
Pb 6.188105656828176 6.2911395796732545 9.932493400745534
Pb 13.076286488856006 6.775545848504539 2.334540370100171
Pb 10.256425648666506 6.333239474138395 4.3995976847943465
Pb 10.633431410144393 2.549717441134582 5.206315358011358
Pb 9.027166361060269 5.678598017705292 8.035715208137733
Pb 7.476093470461445 15.198161860453244 8.783708168030165
Pb 7.557744339279678 11.701485044401132 8.728270415894647
Pb 6.031411409330134 13.385286163939217 6.414051935701509
Pb 11.582505342108641 3.9614198873072954 2.3637176336017625
Pb 11.155992049200245 9.32953698454532 2.6567816222238765
Pb 5.936095234479018 2.7254357215688017 10.09008046507465
Pb 7.877361348295883 0.8437751273330003 4.979476564865616
Pb 9.393235680782958 13.393102084373659 6.75636162806146
Pb 9.983619638886378 6.594642625240162 1.1442531768921083
Pb 4.7673687047726565 13.469311501547297 9.428825295321424
Pb 7.125228863214417 7.595995175912945 5.914142122679022
Pb 4.6306979856616195 4.411968144921477 7.315632643209278
Pb 4.178747864243814 10.5163950372398 8.088705406079765
Pb 8.408971693117326 3.283510384384637 2.6628726034723202
Pb 3.361031991196915 4.766528165983236 11.054017661899133
Pb 3.3084366440117905 7.848849846801957 10.02801797171813
Pb 5.26009285899608 1.0523216112140197 6.924403806000676
Pb 7.496080052420308 4.133107931898925 5.678804058142634
Pb 5.578580269663547 10.351676031676105 5.106376068327314
Pb 8.039362778292755 8.65690527941997 2.963432294150219
Pb 3.8178449291302283 7.555297358290338 6.522149828405655
Pb 2.8872897814258196 2.222587475545734 8.873393692231613
Pb 5.187117800371018 2.486998656751535 3.9318017679454824
Pb 6.300342514759202 5.839722865180318 3.1181990907391532
Pb 1.0021979965118057 8.671575496487876 7.851326538062374
Pb 1.376819217722233 5.2641352410673745 7.229854616312461
Pb 2.2406188058774266 10.43786453255309 5.377037034535245
Pb 2.4260455426940726 2.282522489921101 5.705434207998405
Pb 3.723805564626224 8.298689663203483 3.338621997915436
Pb 2.8656680211205696 5.156983479725847 4.16170661732944
Pb 0.7968835578564022 7.5898050506711625 4.790041081267052
