55
Energy = -181.02115635 eV
Pb 4.484582754693416 8.718392733143233 9.012271724115456
Pb 11.56891175892712 12.60561920639566 11.896884560342272
Pb 14.52074860890306 12.319333044600326 9.898024731980538
Pb 9.543174524660701 14.91379336567926 12.917368345889747
Pb 8.080112404148458 13.137117439720916 5.300032248432155
Pb 5.057432762650654 13.810374485926754 9.64062596850986
Pb 14.922989499562336 12.321351006369323 6.496463108406832
Pb 10.970330160051645 7.970242051536617 9.541037529709987
Pb 9.529695293289429 7.857138654607028 14.390863924431693
Pb 13.297569422839786 10.161134149622447 4.748838907054363
Pb 7.791225421679022 4.682280568964394 7.996399963202625
Pb 6.705412501556233 7.741668808261514 16.07058940460068
Pb 5.089158544762796 8.789356310745456 5.79787941406156
Pb 16.59264902962987 7.619903336872944 8.132023063048988
Pb 10.348602846818848 4.721686629473506 13.868136562344704
Pb 7.589454660344039 8.094792005016265 8.256363448264706
Pb 12.10494416025281 10.34609259854207 14.351758493961915
Pb 6.02169963735084 11.049081603539358 11.367149464336356
Pb 5.6477787605484036 5.909944563233257 10.116041749995413
Pb 6.1732414501840935 8.02177109035256 12.749874536762675
Pb 10.968562366065306 4.457726923602424 9.83726377264602
Pb 13.937972658013642 9.585252942605663 8.001869838350364
Pb 7.147231697217619 5.1970536321741 14.08969308875722
Pb 5.1020737122786715 14.263755845730776 6.28183159795975
Pb 5.322200400366197 11.64893497030848 4.506977834240508
Pb 9.661531321595268 12.321108118177468 14.737326819354283
Pb 9.085517671782943 9.956286790693039 11.963339225033048
Pb 10.972209028722363 8.709909541800062 6.288922370305555
Pb 13.836976935585076 5.842036099828232 8.783616286078637
Pb 9.047938813581371 5.711682518459892 16.64271500669157
Pb 12.577775626665654 6.27197859137834 11.905904676973634
Pb 8.712510756740976 6.307945553383699 11.311172407759218
Pb 7.006811723743091 10.646774094139346 14.496368477643177
Pb 15.59333822582035 7.007813171818581 11.337746362618898
Pb 13.330706868768903 9.536692809365894 11.404661477736598
Pb 16.40068105448297 9.50593098586072 5.4578107289315385
Pb 17.26137909737936 10.979519026397126 8.19088448918945
Pb 17.014713662780615 13.40947734162419 11.856701315540613
Pb 8.150108552901466 9.939152888363846 5.141223728304564
Pb 15.918486805738077 14.542190063463787 14.605537505660758
Pb 14.05867205081702 14.81141891778834 12.072429264479666
Pb 12.76547880616594 13.749554878986425 14.89167997452841
Pb 7.692673335560728 6.566089359547487 5.31489060555148
Pb 14.103892747190107 7.151717099432015 5.677626596210323
Pb 4.932894719831231 5.918575341289791 7.0031841974477205
Pb 14.968430852155969 11.673423201392795 13.66942000989808
Pb 7.46994723541284 16.36441329476879 10.712981604544266
Pb 6.369642344814874 14.03528298172691 12.836474167782459
Pb 4.412874417040024 16.349050159907783 11.460362288319233
Pb 5.133317651843344 16.83248146522971 8.404104400927624
Pb 10.829862116451144 5.6550993765668744 6.908959965407523
Pb 8.470873286902084 13.057261731377363 10.341237585905471
Pb 6.479866222792656 11.421911361612567 7.695886787225834
Pb 16.675272774775298 10.001611168072529 11.192101946342795
Pb 7.904981694108059 15.136935539464895 7.785587885144991
