53
Energy = -175.87622028 eV
Pb 5.0745612501202935 2.9314230507227643 3.1524085912101754
Pb 3.7971932077925845 5.295163995990992 1.4715366503654734
Pb 2.5860824447727433 4.880963312546481 4.5069859702278325
Pb 7.007370919377453 4.872663718708879 1.4277710541674817
Pb 7.866012306156653 1.8115051729207494 7.663862544078717
Pb 8.20222575085618 3.7021400546199064 4.508433083425595
Pb 5.197690127932216 3.2513469388189686 6.356377761845616
Pb 11.291925191704898 5.115723246119793 4.667770206099553
Pb 10.533671011075493 3.4844903768170084 7.619789604505832
Pb 8.865217640109499 2.520763946157903 10.625338582122616
Pb 5.697431893107231 6.115161719941481 4.428187522759909
Pb 5.858789434505526 8.038658353556125 1.6247120333946978
Pb 2.8892713136143433 8.014828775281636 2.9482566755568285
Pb 5.602420403668996 3.379839333581906 9.756097102855097
Pb 1.6842172026474689 7.65997926479499 6.236385041299495
Pb 9.07895122097481 6.681785699480081 2.873359156722325
Pb 2.841781028416756 4.844617271432936 8.054931906564008
Pb 11.357460098773688 6.8567774684673815 7.463590970363165
Pb 11.14744679549108 8.737958762859257 4.4831127712553025
Pb 8.271757232544244 8.056822248023929 6.052681712452331
Pb 9.807486068491823 6.109135667070642 10.410310454204721
Pb 7.639522483567948 5.119492416733956 7.629969878183827
Pb 11.983339861251995 3.6741721619890013 10.497561298616137
Pb 4.5764651442190365 7.566154054102436 7.932803548284881
Pb 13.786688885552998 7.124427176330276 5.241763500563342
Pb 3.495046079713289 5.3414347309872126 11.420073522361625
Pb 14.464008460265985 7.632414737836705 8.25547940043326
Pb 8.20999451718331 9.882752125555388 3.265209527038841
Pb 1.7839150400898045 10.53672171058835 4.574307569550131
Pb 1.6267469715366596 7.473437661409236 9.519488636225582
Pb 6.6474004851740265 4.075006624193439 12.76287296481949
Pb 12.895336274368937 10.132480057047244 6.804616893825209
Pb 5.26399285402715 9.683241927954818 5.1026416893375375
Pb 9.156629741627937 11.309141350960363 6.397013446850836
Pb 6.875435886035646 9.930596686751269 8.510846884633839
Pb 4.413083869507156 11.244187992537997 2.431315066390279
Pb 10.100220939155356 4.188189651097688 13.068887764263213
Pb 13.077905523567559 6.7267052959206515 10.983237188790968
Pb 5.224413297170902 7.001495491334077 13.587014368944747
Pb 6.554679951504035 6.714728226912384 10.502164534599475
Pb 10.189761576811563 9.565692869441225 9.146683190557333
Pb 3.1759311780456865 10.478699807363181 7.688791586310954
Pb 13.375336379772993 10.123311841450505 10.21500180182009
Pb 3.7548150719697007 12.863055665983078 5.246993776113173
Pb 6.756668681801664 12.718229288742776 4.125798040394597
Pb 11.637649499669482 12.579020996883003 8.65886780724589
Pb 8.58579692121703 12.717855894651262 9.63810087212031
Pb 3.9906058128566544 8.691950650135883 11.152621109081078
Pb 8.38137923576286 6.873327203025521 13.480904909177553
Pb 10.982135301180325 8.713113410930623 12.394967475397246
Pb 6.139858881794853 12.808391976308787 7.408228649023227
Pb 7.955198473173494 10.09761544573205 11.611724924894531
Pb 10.879298636752722 11.831016392509301 11.71890308792333
