50
Energy = -164.68944366 eV
Pb 13.745106228455594 8.805361467214855 10.710219424657412
Pb 13.292401674002258 6.690625022873605 8.420639162641532
Pb 12.405017561306467 4.123914624138553 6.049365809108263
Pb 12.306707136884633 7.580400042251656 5.578049368573036
Pb 11.784692226269252 3.964909920635238 9.322292879871956
Pb 11.280048809777666 9.430777128305154 8.449618062970215
Pb 10.127391811799779 2.635799666826872 4.1688183460125625
Pb 11.680482866207882 10.006192057424025 12.830097689581951
Pb 11.79048107505996 11.823480373673686 5.768122326105378
Pb 12.678614845357409 11.805203618315684 10.278761522012386
Pb 10.14446912160947 5.785211368093688 4.050155160318279
Pb 10.078744910490412 2.107096704850446 7.422974010031812
Pb 11.03499884655898 6.907261080054503 10.940585562666792
Pb 9.936136591780464 6.130333206493097 7.70087051784965
Pb 10.307695925369 14.688037138466653 5.67144684893174
Pb 10.482541480697112 13.220380790745029 8.41941403839481
Pb 10.230820648697874 9.409703343901484 3.9106663712832814
Pb 9.399491380624085 11.507901318766931 11.072831367396784
Pb 7.536167633963487 3.997853735901589 5.918728154138588
Pb 7.998063685642247 0.6180526462374359 5.4382431604143955
Pb 8.138120423864255 3.766379106506419 9.474773298959256
Pb 8.699209891053064 10.99441759671551 6.5955475348241315
Pb 8.927988711154459 8.43324217907164 12.8545296655522
Pb 9.241280838404448 12.513735713682069 3.6383521020110856
Pb 8.121207376658695 8.753283084184842 9.553875259624974
Pb 7.118461558122807 13.848239067065137 5.671939340300802
Pb 7.13615836409851 5.830938027826957 2.8047374358278545
Pb 7.006352508728319 6.085340938853143 11.453328908945744
Pb 7.500941405420876 9.075099372924534 2.3055692297474897
Pb 6.272589959165047 1.470257685077711 8.115953941495858
Pb 7.641270207157544 7.75163117835719 5.356995464095786
Pb 5.135696006823464 1.7563714081265396 5.069445160152205
Pb 5.631366246181751 7.765198105467372 13.890140901241278
Pb 5.777320930474295 11.163564276819029 4.18766141135114
Pb 7.207385983318551 12.995132323828985 8.788119434430035
Pb 4.814727554264647 3.509226599820634 10.322086513687333
Pb 6.485322482202583 10.453154875528865 12.296942961609368
Pb 5.483539019336868 9.503141378558512 7.134789862260218
Pb 5.687080647586223 6.133981240351712 8.289240721113849
Pb 4.603357796518604 7.99744729665527 3.4702690742656253
Pb 3.82102919586793 5.513519158505449 12.680776395268415
Pb 4.48202996652454 4.834813001371055 4.472349565583371
Pb 4.456130604704078 8.21633395640547 10.844754208754743
Pb 2.577534955275505 5.851121104048934 9.568939242011004
Pb 2.831852629433872 6.927995786895196 6.355306941282387
Pb 3.4664302278943357 3.522165554685642 7.349316468465712
Pb 4.206547918340548 12.53434215589943 6.823743182522564
Pb 4.576279562853503 11.421491659753357 9.881342070135663
Pb 2.7507212164349317 10.12330605652644 5.157867474740685
Pb 2.437396165780459 9.560729573925954 8.277615979446114
