55
Energy = -182.72084812 eV
Pb 12.87169746273793 6.36745919143268 9.513861325341201
Pb 12.854901050920908 7.2190934671639315 6.314551005298875
Pb 13.959028914943028 9.370154479058202 8.741662919590825
Pb 12.75591408380327 12.17362249360486 7.462127839488841
Pb 13.174124714017944 8.602239089931581 11.964074767898081
Pb 12.62505981832235 10.188060694950288 4.8192936463401335
Pb 11.590110687537043 4.20436248737322 7.282694934736918
Pb 10.84327585062769 7.5159624317428495 3.518138220648598
Pb 11.598623028601954 5.704578429986757 12.451841393438245
Pb 11.917338825945274 11.339546141825972 10.56970783304674
Pb 8.947568271043838 4.390335577609448 3.514622802271262
Pb 9.44952027512317 5.295604150008778 9.552610667736609
Pb 10.72437386603718 10.3564806568496 13.398078911901061
Pb 10.784913314351924 9.574070715368462 7.693795862284064
Pb 9.419113335713849 6.533378036740858 6.448651508710987
Pb 10.364917274997145 12.531463480852548 5.187181806996517
Pb 7.699408999014453 3.676002783997339 6.558902682877902
Pb 10.23566024737227 10.51220509834041 2.5148013708756385
Pb 9.55110664854706 7.425868200771027 14.121077380969359
Pb 8.971479288639799 3.1875055827398104 12.291995119937207
Pb 9.772306123168443 13.150073300812013 8.534098557685997
Pb 9.891671530684501 8.43141707802311 10.864862030266163
Pb 11.76680088754592 3.289097085339378 10.452518338111576
Pb 8.004754422080362 6.910754100749107 1.5053995715963864
Pb 7.518565475062995 4.8842935685205395 14.701170958066946
Pb 7.005084500623682 6.051094068526365 11.72633393006883
Pb 8.39056364593909 11.847447512969307 11.305689243469699
Pb 6.256475164953729 6.004588272687553 8.35329457473412
Pb 6.290559963675285 4.190815278905398 1.3052211539404162
Pb 7.175268738653733 9.320895981621568 13.025518682753708
Pb 7.849841437273891 10.831685798595602 6.934024517231538
Pb 8.066629198262254 8.853463637990043 4.306296360256517
Pb 6.76678126703201 2.8790088201204656 9.83417012410943
Pb 4.486048566255744 5.644530825474447 13.712841918781873
Pb 5.72549931712493 2.8163598277868225 12.862267951471631
Pb 7.372219293268297 13.990540114437099 6.342397283040617
Pb 6.700503232461925 9.32198063090885 9.731694580786963
Pb 7.44914694621347 12.033555122924158 3.6730440771822335
Pb 6.178072876749447 5.940759559252186 4.364817446348078
Pb 6.37625656433305 9.682691062503823 1.6539530839268526
Pb 4.086498525799709 4.5794023692155195 10.674684722186717
Pb 6.05406013324296 12.85946298714307 9.064573316352732
Pb 4.425655103924566 6.948945683915742 1.6802526554787942
Pb 4.991517201049 11.43617009296138 11.767345754400276
Pb 5.196302451388414 8.748056367401176 6.422463205609187
Pb 6.11547526120284 2.459975736523092 4.003730061452866
Pb 4.168855722076487 8.235816489760989 11.499488551137192
Pb 4.295928081594347 4.060669231151965 6.330522172244717
Pb 4.589037249080802 12.017098026530014 6.067370126003372
Pb 3.8017763581145 9.782496320811418 3.663733385956892
Pb 2.8072512876420275 6.800499390362853 4.828171593458796
Pb 3.4070296253576715 10.743636333530612 8.98079578918812
Pb 3.110080348668006 7.274365481761395 8.368785784960933
Pb 1.9586321711301145 9.62207085399482 6.402888560055454
Pb 3.5189104682488748 4.096484894620153 3.0441030354762773
