50
Energy = -165.32244491 eV
Pb 1.9143020501248482 5.948637409990518 6.001540513305133
Pb 3.740095722259116 8.620205678520202 7.074121104346717
Pb 6.5095374775063055 9.749744660662573 5.000925484981361
Pb 5.12951873472373 12.332300529384298 6.681785879983161
Pb 1.0358246789498322 3.962927441372398 8.44103530691454
Pb 2.838270715410579 2.6838058352098852 6.094252788543499
Pb 6.423920046821411 15.310604491435807 6.672672061800705
Pb 4.740081015790928 6.86470403127552 4.36750306273466
Pb 4.44941468155723 5.056053195266144 8.015023734425808
Pb 6.294348446511501 13.5701518648531 9.584532107457683
Pb 7.578050095682359 13.056617043098575 4.580639062218409
Pb 3.2881309036736925 1.8781920879827492 9.276200415327207
Pb 1.7261221780071863 7.014657715808932 9.139867601716306
Pb 5.446413477188222 3.7019519982491973 4.439636924806103
Pb 4.8710423739301545 10.663163471447424 9.411820206830724
Pb 8.71230431992224 10.097983392658435 2.6226161338744602
Pb 7.003192674406026 8.601673194798158 7.976785401945945
Pb 8.444692163991183 11.667019323295971 7.416933463723451
Pb 7.5162286390735025 7.145359348267473 2.811054555716999
Pb 3.0296578102696 4.59336245126281 11.126126837408345
Pb 8.17841589742807 16.102917261161963 9.148268428104119
Pb 10.787524160568353 11.814450958482507 4.774474810077001
Pb 5.981745790516542 1.9360041732405346 7.219303142850738
Pb 9.687959142571058 14.651156443330445 6.691048864446005
Pb 7.527569155728657 5.713046058109633 6.04781196815643
Pb 11.780442078875257 9.350128231218127 2.8850013264541916
Pb 8.531348988137486 2.675935254210322 5.224291128621931
Pb 4.640422617206742 7.586062993424397 10.563264193498659
Pb 9.761233343656142 8.20480658154199 5.210762661762016
Pb 9.682981920477564 13.43794309367053 9.93457789874323
Pb 13.215435223221784 9.636797918123657 5.77474784028006
Pb 9.779179018775489 5.1159356000541 3.4759691051285353
Pb 6.174649160872657 2.801921705890238 10.508829983323071
Pb 11.947812769626932 12.091900101681727 7.820193369061735
Pb 8.277482051051402 10.318229630328625 10.472063939683371
Pb 5.943451962619547 5.070640196946547 12.799629943516925
Pb 7.815828954697992 6.053441686716493 9.976920982910482
Pb 10.847835538214248 8.645526491514 8.444011613813325
Pb 8.885812384234193 3.034163526876452 8.57010854998619
Pb 12.580739845340023 6.5060828972249345 4.3511410836014015
Pb 11.05465529951325 4.53855792801501 6.488432800629229
Pb 7.238623229198294 8.065810003324433 12.701064159310734
Pb 9.040473280424967 3.7596399117686032 12.063075024679712
Pb 11.647115979259704 10.57371288154327 10.913240606331257
Pb 14.060390833942789 9.838718106979602 8.861739571925737
Pb 10.2590071685271 7.279227706993673 12.081617028302425
Pb 13.481676572558605 6.695202843727512 7.676816933206879
Pb 11.162926318761436 5.18729120918559 9.710888668614993
Pb 8.584150730394889 5.717731048034823 14.47231939058244
Pb 13.232281319819974 7.558221333861112 10.883631276356299
