55
Energy = -179.69151158 eV
Pb 10.142400109090904 10.142400109090904 10.142400109090904
Pb 12.590554242141376 12.590554242141376 10.142400109090904
Pb 10.142400109090904 12.590554242141376 12.590554242141376
Pb 12.590554242141376 10.142400109090904 12.590554242141376
Pb 10.142400109090904 12.590554242141376 7.694243976040345
Pb 12.590554242141376 10.142400109090904 7.694243976040345
Pb 10.142400109090904 7.694243976040345 12.590554242141376
Pb 12.590554242141376 7.694243976040345 10.142400109090904
Pb 10.142400109090904 7.694243976040345 7.694243976040345
Pb 7.694243976040345 10.142400109090904 12.590554242141376
Pb 7.694243976040345 12.590554242141376 10.142400109090904
Pb 7.694243976040345 10.142400109090904 7.694243976040345
Pb 7.694243976040345 7.694243976040345 10.142400109090904
Pb 15.140400863098874 10.142400109090904 10.142400109090904
Pb 10.142400109090904 15.140400863098874 10.142400109090904
Pb 10.142400109090904 10.142400109090904 15.140400863098874
Pb 10.142400109090904 10.142400109090904 5.144401355082872
Pb 10.142400109090904 5.144401355082872 10.142400109090904
Pb 5.144401355082872 10.142400109090904 10.142400109090904
Pb 15.031226243510813 12.555630493681598 12.555630493681598
Pb 15.031226243510813 12.555630493681598 7.729169724500204
Pb 15.031226243510813 7.729169724500201 12.555630493681598
Pb 15.031226243510813 7.729169724500201 7.729169724500201
Pb 12.555630493681598 15.031226243510813 12.555630493681598
Pb 12.555630493681598 15.031226243510813 7.729169724500201
Pb 12.555630493681598 12.555630493681598 15.031226243510813
Pb 12.555630493681598 12.555630493681598 5.253573974671137
Pb 12.555630493681598 7.729169724500204 15.031226243510813
Pb 12.555630493681598 5.253573974671137 12.555630493681598
Pb 12.555630493681598 5.253573974671137 7.729169724500201
Pb 12.555630493681598 7.729169724500201 5.253573974671137
Pb 7.729169724500201 15.031226243510813 12.555630493681598
Pb 7.729169724500201 15.031226243510813 7.729169724500201
Pb 7.729169724500201 12.555630493681598 15.031226243510813
Pb 5.253573974671137 12.555630493681598 12.555630493681598
Pb 5.253573974671137 12.555630493681598 7.729169724500201
Pb 7.729169724500201 12.555630493681598 5.253573974671137
Pb 7.729169724500201 7.729169724500201 15.031226243510813
Pb 5.253573974671137 7.729169724500201 12.555630493681598
Pb 7.729169724500201 5.253573974671137 12.555630493681598
Pb 5.253573974671137 7.729169724500201 7.729169724500204
Pb 7.729169724500201 5.253573974671137 7.729169724500201
Pb 7.729169724500201 7.729169724500201 5.253573974671137
Pb 14.873742526568869 14.873742526568869 10.142400109090904
Pb 14.873742526568869 10.142400109090904 14.873742526568869
Pb 14.873742526568869 10.142400109090904 5.4110576916127915
Pb 14.873742526568869 5.4110576916127915 10.142400109090904
Pb 10.142400109090904 14.873742526568869 14.873742526568869
Pb 10.142400109090904 14.873742526568869 5.4110576916127915
Pb 10.142400109090904 5.4110576916127915 14.873742526568869
Pb 10.142400109090904 5.4110576916127915 5.4110576916127915
Pb 5.4110576916127915 14.873742526568869 10.142400109090904
Pb 5.4110576916127915 10.142400109090904 14.873742526568869
Pb 5.4110576916127915 10.142400109090904 5.4110576916127915
Pb 5.4110576916127915 5.4110576916127915 10.142400109090904
