5
Energy = -13.29098382 eV
Pb 6.500832475288357 7.309296637424244 9.550624074198444
Pb 9.642341246926101 7.765566640003955 5.368365936490232
Pb 7.70034024900691 6.115085465461195 6.957824823705749
Pb 8.607536459370879 9.023234873595937 7.9016553719410085
Pb 7.42764313976233 10.00288990004612 10.489218437060702
