55
Energy = -182.6263711 eV
Pb 8.673794274727546 1.2175329581626113 2.0007956739581823
Pb 10.251631078837624 7.2583716041663795 8.705095063429043
Pb 3.9501770531177662 4.419814682422076 8.115440436402748
Pb 0.27410816559441487 7.449168134083077 8.514661504935775
Pb 3.444326335671621 3.118099907885267 11.267592549812528
Pb 8.981014062875216 4.959507383587493 0.3446311549213005
Pb 10.122857394625393 4.069179577600619 6.881829058138406
Pb 5.867876680801899 5.533525120867451 11.502236801510803
Pb 5.339566738913433 8.708050491830047 10.556668311695125
Pb 3.472664809555396 3.5095179425839302 1.7568222667073945
Pb 8.095498669803968 9.6985839466021 2.984608860263588
Pb 4.064228045938623 11.326081076951457 8.27031842054006
Pb 5.422358241521951 9.268424431166768 13.155155286102524
Pb 3.5851196229029494 12.420795047023883 5.765793321477716
Pb 0.9911338726826292 2.911713476364757 3.859933766687019
Pb 8.848857575910834 4.741192229773559 10.26520008772622
Pb 0.8930899525394723 8.056145508012627 5.2925825941849
Pb 4.0026143319728 2.269985163070951 5.253099843409029
Pb 6.402280829078033 6.700598068666329 1.710607663068619
Pb 5.6078593762885225 0.9338370735525148 0.9372172683109018
Pb 10.201356604443648 7.170203058702 2.5275673880788383
Pb 1.0681941440095817 1.159475280664083 6.536059706139182
Pb 8.415438715902283 7.722810360154558 11.376497723485784
Pb 7.962966653585512 9.8273572364208 8.93988016007542
Pb 3.0978066052493096 10.620814840319783 5.196736151519802
Pb 1.0398275756142679 3.1931353011581582 9.188380523985195
Pb 6.65338343367631 3.5347427769842366 2.9763787205622974
Pb 6.409295790350527 12.814235471389155 3.7535951393170475
Pb 3.3787922262291126 8.295348322326523 2.5115099059021104
Pb 1.254284934578303 5.883165387137996 2.397224899882182
Pb 3.6840692271117743 6.389231409665847 12.9947165051746
Pb 6.876079929364919 3.374457581107746 6.746705196815787
Pb 2.655385876002983 6.272632154047492 10.555362824386773
Pb 3.0685489648000748 0.25362126064752205 2.8290827795166247
Pb 0.8629973684701943 10.46828704520001 7.5810291511251355
Pb 3.620536606010515 1.0338343275236863 8.579113652827036
Pb 6.93800852827054 6.759333930707074 8.302927005815528
Pb 9.075727273506917 0.9784793549136465 5.185065724853212
Pb 11.40150761152491 6.560537091001638 5.493005834642255
Pb 6.286591381738828 2.4678069494552703 10.007015156006839
Pb 8.1647098323986 5.930752994680717 4.933254826490878
Pb 8.96064263365429 1.5632891321055116 8.486809448369176
Pb 5.716768254407036 8.299259495210347 4.8438710602935755
Pb 5.247690949913266 10.969994370998803 2.7539839364212146
Pb 6.530029228550075 11.099790725121684 6.106769175490821
Pb 2.1858894063958028 9.568367658878309 10.33153846852048
Pb 3.4416147323139583 8.04619770023472 7.551741569870538
Pb 6.533150858005382 13.235917927956963 7.0141596385491995
Pb 10.261848844390427 3.8419481231599475 3.3637098333710655
Pb 6.612215257557092 6.761012156379657 11.502236801510804
Pb 0.9050170948881386 4.865574122735525 6.425081669812391
Pb 8.69516859605389 8.32279096242998 13.240802955905998
Pb 5.999194461345522 3.9342128002719634 12.934886504613125
Pb 3.5837464031563786 5.534384340231032 4.648096834783681
Pb 9.228460787952779 8.990161640873694 6.028389114698229
