50
Energy = -165.09452066 eV
Pb 4.4572696201065405 6.85654166381813 4.866112341231728
Pb 3.330317130428801 10.146498848940366 4.66655023815472
Pb 2.9957481425517263 13.08684135317402 5.5252490431567995
Pb 5.681296321008371 3.7496415500289157 4.658782445427799
Pb 3.309192229542207 4.152505996149769 6.768205999618561
Pb 6.585162782853497 6.069093656001358 2.412994206901841
Pb 6.133611621117823 9.28575467900493 2.955321633975243
Pb 5.988050634687584 12.237544225253968 4.230559037013307
Pb 3.615910528074506 7.656618637947043 7.8858269652435276
Pb 3.3234185698601855 10.902594921073641 7.905250938348055
Pb 9.299967581524244 8.043641795711956 2.2039644793757005
Pb 9.107566183710345 11.18068557466422 3.2378414932117785
Pb 9.516933600337735 4.764914063490024 3.071920219809863
Pb 6.113232921398255 5.209189185777561 8.038345799949568
Pb 5.644833550350828 1.8726733176854151 7.519079509243343
Pb 5.720126964736856 13.006384833839073 7.322654953437976
Pb 6.150667419491147 9.666198317722092 6.486089223171845
Pb 8.651851081824255 3.0523749177596655 5.707297551024977
Pb 3.5783611445102523 3.149789687660647 9.86150613295166
Pb 3.5195273882110905 6.2504301176176975 10.88505053562085
Pb 10.01002631205044 9.068280898765577 5.676549196392008
Pb 9.016829144657914 12.43908236961636 6.277201058319341
Pb 12.0231143158138 9.785525772159959 2.846989858125223
Pb 5.946172230658202 11.622505388971677 10.337574681967803
Pb 7.806092437079983 6.476871314512002 5.4648393465594625
Pb 3.7870527258454927 9.500215345542143 11.482871597617622
Pb 12.224790858327557 11.532583854554593 5.635109397630495
Pb 12.203854769134162 6.622540743659269 2.8476435193625727
Pb 11.133201743820418 5.6409636284053 5.870035051585794
Pb 11.500934635573184 12.506677636522737 8.621819329155691
Pb 8.274736169364838 3.0146439473714044 9.162134898051718
Pb 9.573036367822658 6.963993262824748 8.535530861506093
Pb 5.930582566233945 1.239285728337992 10.808826148674305
Pb 13.296921511025984 8.275881407735495 5.557471790057282
Pb 8.893759609128868 10.331071570560606 9.078171872279125
Pb 5.377239217160283 3.970832634053922 12.504016093728648
Pb 6.299729718443486 8.251451070383862 9.777868337004323
Pb 5.822319304337109 7.464948242212517 13.052021440447367
Pb 8.366658733617994 13.692854046099425 9.247305652054552
Pb 6.089309660364687 10.793377770296184 13.531371625428763
Pb 12.12535722015998 9.18718899814303 8.536559518829488
Pb 11.233987756030407 2.963269251294404 7.643615804287998
Pb 8.295109735287916 2.7188803626899567 12.382180208079337
Pb 11.34416903872183 10.72569555640001 11.425131257097659
Pb 11.248460773264949 7.218294772784046 11.341794104038188
Pb 12.800046652223363 5.944863179299748 8.629489214376344
Pb 8.652440011756063 9.144937807092944 12.42800166926344
Pb 8.617161992766952 12.386013143869834 12.186154160507552
Pb 8.121689372959551 5.849349599512134 11.302717821309662
Pb 11.03970419480572 3.9159395465770603 10.710565087991318
