53
Energy = -176.24566337 eV
Pb 9.421154902087402 11.13015727028935 12.31659831261656
Pb 4.47942232215292 6.44371754455816 13.41203325177372
Pb 3.870501059208952 9.39787579003232 11.81698227906117
Pb 11.705068365983749 8.955939524193493 10.566177886493511
Pb 6.344902475083708 11.847650597160213 11.539785306532446
Pb 10.014312220348758 7.9677244918010715 13.170726466695003
Pb 6.888680287773194 8.620346387486856 12.872229872813547
Pb 3.4317149696631857 12.176663409451384 10.053832396517404
Pb 8.82057530041554 13.870467597612798 10.553564184102184
Pb 11.46398988684583 12.213966617353886 9.697959622968083
Pb 7.218087818727323 4.846879734350475 12.369529872294528
Pb 11.199618020772203 5.525955928280551 11.36497372347564
Pb 2.2786561870579916 6.353373333246085 11.019453015192054
Pb 2.0075658934522416 9.374485150023451 8.747890927998926
Pb 13.559448913363461 8.913570362829805 7.575597461665901
Pb 4.0676066487793525 3.622479161860413 12.060195083159332
Pb 6.197383152823795 13.428442861334569 8.60448774403174
Pb 13.912468543700415 6.552976805572461 9.99228921149085
Pb 8.679019012617626 10.743834951508385 8.96502607486265
Pb 11.194110623831266 6.686239619833694 7.926787103183484
Pb 5.411001022885284 6.3998981786631886 10.192154567463014
Pb 5.495053991083304 9.820924911139736 8.94207940063867
Pb 9.627689279662825 13.56514115523828 7.358474101592767
Pb 8.650109588621376 7.560967390308582 10.135874072143116
Pb 3.7510704275537705 11.685635543659705 6.836336837224097
Pb 12.498084079771639 12.023834125984672 6.304817693662064
Pb 9.026005166436665 4.38675884109962 9.304590688079369
Pb 12.432935002323925 3.7858592817170154 8.677203851874163
Pb 9.881701820798844 12.226329674019398 4.3272519374226635
Pb 6.442272320545586 5.03352914492302 7.1494262472445484
Pb 10.503162240952186 9.518460505126328 6.191936545701937
Pb 14.426695251869793 5.775192453034756 6.9600363221414545
Pb 6.098521242882401 2.888254556598852 9.765955720647492
Pb 12.223903509243753 10.382982427301348 3.432206690942331
Pb 4.128013734329017 7.712850066709535 6.729943306495721
Pb 7.100966105992489 11.69304387984109 5.93101176869216
Pb 7.335748125193612 8.37259829471504 6.020651306779025
Pb 1.560528140610597 9.741318303261586 5.404734910183217
Pb 4.679373120684557 9.656693874979872 4.1396577254155105
Pb 9.843793423948643 2.601877004310087 6.509226418287359
Pb 9.338478558339636 5.537261418203985 5.098721422401227
Pb 3.3337762829053927 4.198200436263231 8.804966279175881
Pb 12.823714540680903 7.4334121336458185 4.466228739595649
Pb 1.09640978740996 6.7934778613700395 6.75222519484061
Pb 12.415692269333169 4.026208399556514 5.002450292053124
Pb 7.12632715064807 3.0268519015012973 4.572848164163704
Pb 9.50331988282048 8.487346788746015 3.2655311116115016
Pb 5.789601647403519 6.425151688528613 3.876523733350168
Pb 2.5218427288181955 7.189908599105904 3.7237397448757354
Pb 3.4222629124934367 4.657783950602265 5.556429945774548
Pb 8.05562842812459 4.922882782314965 2.0663009637803227
Pb 10.054696947557424 2.7063122140267373 3.209418243646713
Pb 11.213786779760627 5.647777648424242 2.253368837833488
