54
Energy = -178.39691666 eV
Pb 1.4649169322550566 8.125565473413705 4.338578998420766
Pb 2.224917864535737 5.191228599849969 5.566381853162143
Pb 2.572568379656272 10.542319231291408 6.064684590242211
Pb 3.745664262450875 10.128186729809766 2.817332964882939
Pb 3.676499431930517 6.655506031701429 2.44237564378011
Pb 2.1055441784257134 7.717811980246767 7.747680963330804
Pb 3.284521340468594 2.4415835571147255 7.185866376279327
Pb 1.7438169026619987 4.526491457822758 9.200030043168006
Pb 6.314235344490073 5.118651507858519 1.5957082010794355
Pb 4.832984611557497 3.8451409679436175 4.152578150613917
Pb 4.203613714698975 12.998225843603958 7.6972013869797715
Pb 4.643465096408343 7.673512205255699 5.390920268658477
Pb 2.1187530416407445 1.5664101140518627 10.180535878539118
Pb 4.223197959402835 12.899076188676984 4.457472758839969
Pb 6.497327310677459 8.428307831535417 1.7697407249519006
Pb 6.90978167313444 11.454319953826356 3.181386278306329
Pb 3.635078659166636 10.25882660321198 9.430211149045492
Pb 4.846068155315787 5.33854932423527 7.874218322032817
Pb 6.641087732423654 2.597374686654579 6.700805463267869
Pb 8.038176632727664 7.874050293232992 4.851326670910776
Pb 3.3828183418555597 6.9398016959385 10.679861572672381
Pb 6.083127223140931 10.458984581435287 6.723630667354242
Pb 8.145539869015318 3.9921677875737003 4.095349944421565
Pb 9.280487119658039 6.456237891029982 2.1275571040785173
Pb 5.09229191468412 2.3843421167029355 10.003671981234909
Pb 3.1236568513403924 3.9483468991893886 12.142892494907636
Pb 6.974037901162972 13.485558251556169 5.866184622960824
Pb 6.354886325854931 8.293484742936961 9.654301133360148
Pb 10.28675235857583 2.873559360040547 6.679449999661226
Pb 9.330681465428388 8.801062715640223 8.044889185502234
Pb 6.084694359414232 5.178200442750566 11.289240684912864
Pb 9.276416703289021 11.173691567894112 5.650296915453967
Pb 11.170198284971676 5.417505556254916 4.783336799752564
Pb 8.265518778239674 5.499282263232966 7.181665382711573
Pb 8.435952533306319 3.172232149640798 9.454183819183545
Pb 9.626232185951311 9.661303458365799 2.6432136695948474
Pb 9.27904981728968 11.95045887969394 9.183822650629809
Pb 6.291087516857859 12.506008875723614 10.150219951846903
Pb 5.386290401632538 10.275253077235556 12.207640874584948
Pb 11.822739620374923 6.4473895121845075 7.984181581098312
Pb 11.376925353877855 8.615209096948526 5.35535378400331
Pb 7.726976678416437 8.294970285261662 12.635399260086466
Pb 13.419219436464642 3.5936790321715955 6.624566145417393
Pb 11.942670052813652 3.5476757396222975 9.625456661278344
Pb 10.428567046943469 9.27172796570792 11.320141356146745
Pb 12.205249717632736 10.57131195918906 8.591503999041654
Pb 9.413749047226963 6.141681175803763 10.42218185027647
Pb 14.414608924486162 6.584246088138435 6.106089932005235
Pb 11.567203516548675 12.338147700060885 11.408978124345593
Pb 8.494246863373851 11.620895637236542 12.489420586809926
Pb 12.78383622698374 6.410489128626151 11.178192768053421
Pb 14.927290115363592 5.0803550676174085 9.082514745059438
Pb 14.579661381543424 8.246755508051274 8.955655839740105
Pb 13.48558893941892 9.787839135507866 11.638349023487278
