54
Energy = -178.91003926 eV
Pb 4.235829135581349 7.0587935822194945 11.62521024059876
Pb 5.4761929009875026 2.92888719847003 5.664038179385442
Pb 4.662899939615989 9.173841942931462 14.012422902722513
Pb 4.546877546459114 4.675586829611705 8.37407956651977
Pb 6.623230376459739 4.189883602626542 10.811745765707744
Pb 6.096966889993722 1.7501781468252178 8.627810105225505
Pb 3.747024146673411 7.969818224279301 8.665615526788388
Pb 7.03912872571236 6.781302964976087 13.22702922118305
Pb 5.543330863971323 6.514246672963576 5.574605718719813
Pb 7.6781387142141195 9.518355244065633 15.06313635875604
Pb 3.2660511384344604 10.234623363533734 11.322039438815315
Pb 8.181516762212983 3.897330386866437 3.9351225468084126
Pb 9.176810165776354 2.3814124280675126 9.519348912171852
Pb 9.64804969993641 5.191966049776785 11.693308331462239
Pb 7.03240361715447 7.313504867791487 9.633111050525434
Pb 3.11940351107783 8.90614696917684 5.634375411693665
Pb 5.128818040640691 4.590792304092454 2.890749806297224
Pb 10.201997374810519 7.304258904756315 14.266100139758136
Pb 7.400647069510745 6.916498504860341 2.730405517961923
Pb 3.5078997178704032 11.940989245735166 4.822724713442825
Pb 6.675749797474971 10.04426391624743 11.645998705586152
Pb 10.752231641430315 9.968798776677156 15.821661085753352
Pb 4.199505010888602 7.6630119293073875 2.768946523655896
Pb 7.826253788632137 4.662168871407773 7.44986585331398
Pb 2.5597389142495386 11.168432546689518 8.1511550816551
Pb 8.368893467126366 1.4640308043391808 6.365085631618667
Pb 8.10456885532366 8.546054028090925 6.49280898471962
Pb 11.015288603071882 3.5018779609716835 6.868886136083779
Pb 5.775759108667368 11.017072010257692 7.324807572884711
Pb 10.952430805907742 6.448988919461887 8.501240933550257
Pb 6.151752274982136 9.923580229575197 4.106872825901941
Pb 4.914333424067374 12.863837704631527 10.13436909769317
Pb 9.969487470432572 8.464810346854543 11.016149133618056
Pb 10.119898960567124 6.337167791034831 5.092197922761928
Pb 3.980613206129833 14.01201665757438 7.272260905077551
Pb 12.069261549301773 3.780641956298047 9.993550169197459
Pb 9.69213589644128 11.045792077198545 12.982385476402893
Pb 9.636870478995613 9.411682817116187 3.6401442270963953
Pb 12.745629286609558 6.753583902288549 11.341756720291507
Pb 9.174610807883166 10.831071967728734 8.716298739845138
Pb 11.613132910013679 9.257530865516648 6.677691644036304
Pb 12.54637504862674 9.482499084709211 13.178239683300225
Pb 6.271931933050148 13.488904869707424 4.922934165983728
Pb 8.207690639381148 12.994404365936974 10.769162483234805
Pb 9.050480315779025 11.904249999928222 5.542562333865107
Pb 13.399956318352874 6.230802179174533 6.09993667755165
Pb 7.278542047190808 14.065164044263287 7.961391166623972
Pb 14.104639536397324 8.30232624969495 8.623493153246363
Pb 12.163737523073815 10.839692562408304 10.016463419590991
Pb 12.600454998713808 8.039826289269875 3.520331608734208
Pb 12.596765183323795 11.411175757979022 4.538221698435286
Pb 14.1853356277945 11.424773425016033 7.43722490544924
Pb 11.320799253839384 12.987858771796803 7.559199468867715
Pb 14.937331900069706 9.090726448820842 5.448906662836816
