54
Energy = -179.3280796 eV
Pb 13.223614397945834 5.778252512051387 8.843383809608131
Pb 10.89227754846159 8.437437814751672 11.357090318129558
Pb 11.288210970829729 9.874761832822662 8.312645567054984
Pb 11.810597180707685 5.332402021393778 11.736301075932948
Pb 10.37790334917308 9.031460406274158 2.840916571089202
Pb 12.22084324135456 7.194941064752829 6.181969168280871
Pb 10.142788052163912 12.311757970249175 2.0307421556539946
Pb 9.841543992944805 11.541600641700068 10.619352304165075
Pb 12.545825488642341 3.551597264148997 6.499198516868303
Pb 10.961139954265674 11.320098808559665 5.121886235642741
Pb 12.031524561252441 5.073982030283163 3.7111151245381517
Pb 10.123395061660627 6.50763254041816 8.68497344485411
Pb 7.992470353580741 9.525383669763889 12.711883833239122
Pb 8.770415677249662 6.19810566094113 12.975602781328492
Pb 10.479503647289897 3.379800434788954 9.403674882789323
Pb 8.877387306486618 13.892092190308045 4.554688787668153
Pb 11.091958694195984 1.9432920265919793 4.0918363095849255
Pb 9.031471902184684 8.456143505909568 5.966972724759787
Pb 7.845035030255421 10.2220500895687 0.8305093489905808
Pb 7.761710177530253 7.252993319391403 2.521637910463667
Pb 9.664311140207172 3.0291106553497307 12.54619486358738
Pb 8.654003592881491 11.958712697185678 7.469496955399854
Pb 6.511244125325228 11.675827229846012 10.58240140707528
Pb 7.748722481265571 10.859892731100166 4.0593577666321226
Pb 9.408658456141731 4.587161651789884 5.8059328998174555
Pb 7.06019128719853 13.258238606249273 1.8641683173327583
Pb 9.209328928374383 4.145496148062698 2.5107494906424805
Pb 9.743602023339642 1.3372765476205424 6.976652276555006
Pb 8.144369163601615 9.012203540155136 9.319526992692841
Pb 5.570222415473316 10.735787619971376 7.4023112033401475
Pb 5.484501683116127 8.575358651438705 4.780758453446144
Pb 5.659321494620355 13.323364409990413 5.00016196813994
Pb 7.8101249278915725 1.899871857205097 4.40774225898049
Pb 7.232936868699041 4.936252158993665 10.158949302698376
Pb 6.358131697364401 4.875635576653644 4.35206570110887
Pb 4.582667506109589 7.056354178730374 2.05021220653027
Pb 4.835368724492668 10.485163910501777 13.070944583689338
Pb 6.147187213127561 6.414009463194608 7.231860429903629
Pb 5.541356187759564 7.267791210094877 13.826115585499442
Pb 7.767244987468823 1.6492258861983655 10.38987614548751
Pb 6.5330215714475015 3.7844293642766855 13.176168075264595
Pb 4.699087851651576 10.744937648255373 2.1742727849331587
Pb 6.6466922955887675 2.995418017692005 7.419962111377327
Pb 3.1584567301794273 11.40242430499087 5.070212642447224
Pb 5.183931557935261 7.924764056965152 10.609861317386093
Pb 3.364135238294795 6.092037266671301 5.186018984484098
Pb 2.315815037951492 8.729041018532756 3.6047423082407257
Pb 3.1901213497206182 10.411696077994673 10.156492708589813
Pb 4.789941887073578 2.659797373800353 10.648784827720982
Pb 2.4960872312633775 8.393220309359108 12.846624920484517
Pb 3.546896425753717 5.311481786919339 12.11557063796528
Pb 3.6400780013640404 4.9717395555984005 8.708160740670927
Pb 2.980713441613982 8.714809630008626 7.091204041005157
Pb 1.8209813309690388 7.347041089271259 9.948334193679871
