52
Energy = -172.14271765 eV
Pb 5.664485733619883 10.765537098024879 3.8117809793944533
Pb 8.034821366321475 10.076869701269237 1.4713664280319423
Pb 10.720417455724087 8.563149563630281 0.44673640418121746
Pb 5.526832310473315 7.935327012650556 2.2002762819628314
Pb 3.3290289623138696 9.290566349163866 6.3403072748416545
Pb 8.01252843511776 6.65038122779731 0.6640311060713203
Pb 10.955857883589209 10.709638394255956 2.9016597757355664
Pb 1.6046673159899154 11.50676242392148 7.934165745365805
Pb 4.2914681667438535 12.472642584001086 6.477619359448872
Pb 12.70881090659302 8.000256175679061 2.9511597105200567
Pb 6.4680578134140285 5.370698370288252 3.7701239060404363
Pb 6.28050923786721 8.112241870795392 5.543970513736859
Pb 8.562081368472802 10.621239336873654 5.251799945153277
Pb 9.231979844317129 7.67556295135771 3.5278954046796254
Pb 10.929957663448855 5.511911876959036 1.7040682517574768
Pb 5.123064013127055 7.551192230249892 8.69413878391364
Pb 3.9944816814816613 12.003365110481527 9.900382478976125
Pb 4.879476058986083 4.833834913629109 6.860812793994816
Pb 1.9752676732592256 6.53573653328322 7.38819221782215
Pb 11.323569102736787 9.075856427133461 6.005664592089983
Pb 9.299407582779285 3.761971448533385 4.156753206109853
Pb 6.0722253831718 14.095808521874085 8.532706194268936
Pb 11.946531237310248 12.126842773090205 7.0343561850849685
Pb 1.9811389625339852 3.3995818148346424 7.701024944618
Pb 7.684231403435936 2.4643869124809985 6.966594280483955
Pb 9.912039479209797 10.305793229237006 9.02571967829397
Pb 3.061773422685037 4.941201171050428 10.190114948349093
Pb 11.64407690833137 5.755070663627513 5.058272298155413
Pb 8.576408356329475 5.903561624260134 6.615257071864878
Pb 6.581314174233781 10.71157883032999 8.082811127375942
Pb 4.636105377815596 2.121096644721154 8.753349481799377
Pb 2.218766646922814 8.880846997286328 9.643473551178761
Pb 11.074609870423206 13.57618945106624 9.792093797626938
Pb 10.762633328027839 3.5625172563195475 7.388814000859477
Pb 7.160703644294772 4.258660734794556 9.707248148512136
Pb 8.013188185171618 12.538036321728566 10.689305403261342
Pb 13.027982901345382 10.869706162688802 9.800746438077601
Pb 3.9653165993967745 7.459669082749706 11.893460914751733
Pb 9.64345179878067 1.6738548620711946 9.6566330618873
Pb 11.573956713250919 6.708487233569207 8.40129597101237
Pb 8.899187213493331 13.225435743165407 7.345238815596643
Pb 8.597669379610933 7.213993373580673 10.216793160427844
Pb 5.107521729523603 3.0908216506112134 12.042638587488172
Pb 10.785047037349134 4.5485477462409225 10.726604255432585
Pb 6.788178338048553 0.7480110280294329 10.607026611286766
Pb 6.032362692946411 9.777573316112957 11.189050736290135
Pb 6.73162588016552 5.80499643637904 12.879893759482403
Pb 10.844063059364911 11.375028803190807 12.120617919180575
Pb 8.388569221387101 2.8736628664992905 12.574626267921237
Pb 11.669742290176147 8.227722861546402 11.344059520344775
Pb 8.69962844934129 9.093152196776963 12.900376443370542
Pb 9.857038130259268 6.16046796052061 13.328958208177928
