50
Energy = -165.7161589 eV
Pb 7.526599857457976 8.274126093902455 15.760986448088289
Pb 7.169224553683964 11.94500735913815 12.958558779161898
Pb 7.865909892649184 5.033422745396023 15.110127605283756
Pb 4.856929600173888 9.616443307847982 12.40382234944443
Pb 5.117348884582946 6.6046340927806 14.130216840943685
Pb 10.381251365003852 7.003494391696499 14.692559824019227
Pb 9.64980534754006 10.123252852430154 14.091185382452235
Pb 4.667253839323359 12.439661974762432 10.83368813273778
Pb 7.616299314985805 13.434722304846481 9.748251609560073
Pb 7.671160899495404 7.600232235001026 12.595905413900072
Pb 6.449532022248055 4.282904849981291 12.251390279446078
Pb 7.204269452591189 10.127526724681701 10.141898826131422
Pb 10.502686665282011 8.215351105490802 11.460649934165302
Pb 4.680026930441177 6.638832724009291 10.34625227292931
Pb 9.699689850631549 4.828370482409298 12.346482455850312
Pb 3.745434255808273 9.617466088473572 9.359266050047
Pb 10.032871358321568 11.743558745020072 11.196965330333052
Pb 10.633363287742956 4.321308151788898 8.79478203974266
Pb 5.3933668493025575 11.934227356565106 7.693177919996299
Pb 5.165420084075042 3.748503044038424 8.242440632498884
Pb 7.751811206366869 5.781774261214743 9.59575487936169
Pb 8.08601668087859 2.457941263373843 8.786356396149667
Pb 11.740161751813286 10.14722254341077 8.79394909867866
Pb 6.346442637291179 8.593954639900616 7.315240479460091
Pb 10.67776711356606 13.162085688912528 8.056143479914834
Pb 9.422125726470204 10.573877777823753 6.273268147326955
Pb 7.9609838388626635 13.520482467686621 6.313172819110309
Pb 7.748615472046209 9.198843286663895 2.118015585640132
Pb 3.7236119937634276 6.506775919290355 7.042056898746364
Pb 13.267531547175556 8.022295783015965 6.8967185327480625
Pb 9.945083584253231 7.544965565468881 7.744150458569519
Pb 7.881510214643111 4.944237144889156 6.3521484756972235
Pb 3.544928505511735 9.440803657251697 5.530010255955966
Pb 9.823274935901123 2.405216969683717 5.84005971096927
Pb 6.609362872917678 1.777936264173407 6.002104749710294
Pb 9.621153424647645 7.544868117806764 4.391326606075631
Pb 6.1669461199532245 7.183886682707284 4.375440140705735
Pb 12.797473793830658 10.989039513110935 5.650477638059197
Pb 6.3902823179242345 10.698538687758015 4.60145834919322
Pb 10.64971705153531 13.218372928914182 4.700131915955814
Pb 11.838984563711685 5.347001202839143 6.004714007135259
Pb 4.381851737362441 3.952088563127668 4.798829319904091
Pb 2.7375685975543766 6.632081426237044 3.8385033983370422
Pb 12.75357312999987 8.036943358174431 3.7200987661913665
Pb 4.3341057759275845 8.974688673859323 2.3633004094334997
Pb 10.76409052678739 10.40787181885845 3.123221482119723
Pb 10.535695891970448 4.5104611800879635 3.202970854859186
Pb 7.347076483354507 3.402894748356115 3.2389223878114115
Pb 8.287980215346266 6.076377476473958 1.5533242257555888
Pb 5.002204475496039 5.579802256870578 1.7858989018955416
