50
Energy = -165.06049738 eV
Pb 12.120408731475408 7.181335478682358 3.9346522261280574
Pb 13.842004613233252 8.172673097741997 10.06774187194297
Pb 12.145347004410558 8.473837173469747 7.00389077378644
Pb 14.38235660281368 6.157502997641882 12.40833560533006
Pb 10.71323899226323 10.075132045868678 4.40950442800402
Pb 11.45132314799922 5.155992418023421 6.479187844284231
Pb 11.282232127414654 10.242393248089371 10.136839574512722
Pb 13.396344100275563 4.9120488970313705 9.635823204952159
Pb 9.355127331291333 7.758628763827266 2.359782364510832
Pb 9.832111144677286 11.321689012496119 7.39905555464476
Pb 9.84118171042282 4.684046411655504 3.6850822761036124
Pb 11.916626503217975 8.17907481237043 12.834107744581617
Pb 9.01035680211101 1.7773321699616444 6.083537446240224
Pb 8.738101959859867 13.189975925879354 4.636828833467242
Pb 9.157949635818857 7.450374840436645 5.730493506486362
Pb 10.728642286321369 6.892449173555289 9.637768440244136
Pb 9.157628178345924 10.252448892916728 12.583499956509156
Pb 11.3845960284597 4.958986486479175 12.255781081249088
Pb 8.682452151093106 7.016132734562224 12.47711245907129
Pb 8.012790375901035 10.731482908867198 2.6028802790902104
Pb 8.106935376563827 12.541587333439244 10.304794303719712
Pb 8.135547877323457 9.182761366563744 9.597632544313269
Pb 7.488708088573195 4.507759859142256 6.444015836223906
Pb 6.339062908702065 15.460178437534166 4.812370807943513
Pb 10.150012996735162 3.617579920211752 9.049828869212222
Pb 8.37928107141318 3.500423408291795 11.758151779326516
Pb 6.043821423794283 13.34126099096516 2.623789493749475
Pb 6.958282251669113 10.546501330238039 6.177994871482104
Pb 7.0424707557830875 2.77086103431549 3.6451834615179872
Pb 7.192537110252961 13.773266224447735 7.407659859405998
Pb 6.687818551439434 6.144335786333999 3.374702807432831
Pb 6.006090578593651 10.563143262319802 11.81612720158673
Pb 5.69024774943785 7.183267434826072 6.520083337784163
Pb 5.319727648690645 6.817140666098657 12.169371804398983
Pb 7.12266004060621 2.022349908757192 9.058281794411966
Pb 7.383326046280184 5.786864624202137 9.611493162372318
Pb 4.985926710220458 11.8315605503566 8.945747694738397
Pb 5.593278217953583 1.6434235650127345 6.308962034046374
Pb 4.667890561250241 8.429493709123967 9.400695612228828
Pb 5.014871617752647 10.363455064553808 3.5847075842914036
Pb 4.50713445253942 12.960197618108399 5.588724803164848
Pb 4.343633440373973 4.293879949196738 4.846066640604806
Pb 5.145590070281561 3.777408008112135 11.16638135243698
Pb 3.349185711643108 7.701117213775885 4.370035854978517
Pb 2.979113328236791 9.120124425822187 12.145658122388333
Pb 4.2512981464826805 4.2617076829917 8.100730544417798
Pb 3.306760784689732 9.990735917177497 6.769293795986078
Pb 2.403125684345622 6.265027813870387 10.677372848666023
Pb 2.2443044681753257 6.779070332860046 7.397970405239584
Pb 1.4138800706585761 9.234227048452121 9.376229106943745
