51
Energy = -169.22708958 eV
Pb 4.7623851077168045 4.156106367825553 11.861776385706744
Pb 2.9971898721790566 3.4773380342066154 9.286563679467417
Pb 2.5806077471819626 6.471187518219242 10.782664079798261
Pb 4.478595745219868 7.20963914962822 13.745498157134595
Pb 6.199467395410287 2.7626220861890105 8.991232638403384
Pb 6.989656118708563 4.792812000397487 14.062841808022494
Pb 1.9451611052885875 5.902800182085412 7.381726973432389
Pb 7.531172262302834 7.686566883277641 15.16394558114225
Pb 8.126195387444909 3.8149115928592816 11.263020583522955
Pb 5.262678929295254 6.0611802635011625 9.001654246006316
Pb 4.16425689080113 9.667159134453684 11.441816053383736
Pb 4.594487773202107 4.088912558676105 6.332454845593424
Pb 5.973923010438562 10.24090756863003 14.054378110922649
Pb 2.330027265467865 5.513567985037494 4.100260722941354
Pb 3.009054854949627 8.888151745382864 8.494826687512905
Pb 6.921803418008689 7.8130204391830365 11.685700812548639
Pb 12.598251150674278 6.173917852673345 9.713928045843513
Pb 8.188835154249752 3.6898045836307127 6.367345478446586
Pb 10.731780605364 3.5595283602512304 8.40955867712991
Pb 9.693085763229451 6.359706481918569 12.588581999552895
Pb 8.903965165616443 6.200124094301784 9.086837986306445
Pb 1.808308552424981 8.468488492724811 5.303458305291209
Pb 6.270223781326157 9.465879239172063 8.578214036419126
Pb 9.143002277092833 9.726693070700588 13.249537486318934
Pb 5.37426325063051 5.147971915462624 3.143381425262876
Pb 13.764542636198406 3.9012871973724237 7.4097627976757146
Pb 10.616003624943572 8.9148203867406 10.361715447011614
Pb 8.238260588304646 6.880039617036804 5.39234945405883
Pb 11.509859226138195 6.4257147138760935 6.607935335094387
Pb 4.876981225615263 7.380780721435067 5.8173101293932525
Pb 8.569008424377941 4.408691011927708 3.1975509772553057
Pb 3.8784941540409776 8.066645129438854 2.6676480259481195
Pb 9.65262105728847 9.211548344113309 7.254840950185051
Pb 7.190879438108551 11.20956115108643 11.161798968476107
Pb 11.388611820890596 3.454803952559573 5.0585315590415325
Pb 3.7070501158099125 11.156536340729422 4.6825684268129395
Pb 5.059012201833904 12.27791937866343 7.400395101419237
Pb 12.999036506355749 9.391171310305591 8.20343350604751
Pb 14.855900617040517 6.918660926406992 7.2644713970607695
Pb 6.815822055468062 10.317314741828012 5.2811063901799
Pb 10.304652078447347 11.858663054583287 8.780060397763316
Pb 7.21759169331396 7.66525406234553 2.473038007509314
Pb 14.053985215217583 5.439663775420947 4.505140032209986
Pb 11.204295664927193 6.325093136462638 3.1851540537751037
Pb 13.302002902776284 8.770432997705564 4.908860653312963
Pb 10.094441174730441 9.316252167022819 3.811191455342853
Pb 5.878612425410663 11.043376879761968 2.2844450130612635
Pb 5.858268907170471 13.581545706132776 4.506584842653013
Pb 8.166654857316697 13.016500526823227 6.655581177721932
Pb 11.46362857344261 11.520969700956165 5.774762980992317
Pb 8.686517256240167 12.299947596856487 3.49828011461766
