50
Energy = -165.75373913 eV
Pb 7.054657912184423 4.634801884352619 4.492206851136352
Pb 4.5223769649309125 4.909054933598784 2.1660164271797395
Pb 9.468957851894885 5.597803651904097 2.208981260475789
Pb 6.577374421157381 3.2673591343173065 7.488624927230904
Pb 1.6435628701095626 5.717687616706511 3.363258750871375
Pb 9.590189323927772 2.2192713601381766 7.033703623435258
Pb 3.6035783355507096 3.8922770634183865 5.13175145411458
Pb 3.2070151564806393 8.000969623784465 1.7191481772201176
Pb 10.517261215805272 5.163348321972017 5.358525146875337
Pb 12.491748751259413 3.254136027280761 7.428198581690036
Pb 6.301727461757869 8.880358552544173 2.0804519338606693
Pb 8.429939759295593 7.819170754677257 4.43740487616574
Pb 6.715792989187987 6.555077293707594 7.207730708438078
Pb 11.67551102153341 7.587465458979313 3.331549579402213
Pb 4.5929913818325945 7.028543153756801 4.60593465396879
Pb 7.721237499656867 2.8082285098807396 10.443974949613105
Pb 1.9251062169428008 8.90571448901119 4.727925563319378
Pb 9.420482488858639 8.776829758846993 1.3240898684673548
Pb 10.966785138305882 2.2365381375189113 10.072325221967208
Pb 3.9963601366665507 5.014801049584993 8.624467314236673
Pb 13.033883057175352 6.392007877785893 7.217427789627949
Pb 1.6726186389442845 6.185677920959119 6.575152731364884
Pb 9.755081720029496 5.103683690987649 8.683210743554282
Pb 4.189705504492082 11.386472677876876 2.900836172482069
Pb 12.845771550580567 5.119924544531658 10.33166182246172
Pb 10.850617546869243 8.641579624675227 6.572499163077706
Pb 10.477668196743867 10.569691651244526 3.8796119266657194
Pb 6.014703004967871 10.125454217017921 5.345769302115044
Pb 10.02939433441839 4.513817284656573 12.153966275953517
Pb 7.452708883201904 11.959961584290804 2.9091889426418183
Pb 4.022417000141552 8.411724261196307 7.717754411428972
Pb 6.561697469926635 6.213445354361152 10.502277809850597
Pb 3.163408209895497 11.637687150726672 6.096968498948967
Pb 3.986299759388554 4.745218215777035 11.8816362505942
Pb 3.386706775035241 7.649382977812487 10.877593339351726
Pb 7.954068863884486 9.604067002273919 8.100727543306045
Pb 11.864133895167797 7.224081167447321 12.82243810934664
Pb 5.534496131525843 13.60140993693006 5.004349823024462
Pb 6.8361065934824 4.364396446331239 13.2589104789772
Pb 12.734757039911985 8.417252432467523 9.959494821889733
Pb 9.364198438910137 8.181097151731736 10.783025982983059
Pb 8.417589837845792 12.341976068569805 6.027491392855995
Pb 10.932186575574951 10.938136232247784 8.947668121656093
Pb 5.752586694872864 12.176936022877637 7.991448936034652
Pb 5.694513746521166 9.975943260214173 10.79359122814175
Pb 8.718061974936251 6.987132181062954 14.0384965358636
Pb 5.48114330987659 7.520567830077039 13.380912204105996
Pb 8.522228334358973 11.68020404226639 10.808812896396384
Pb 11.095911383387776 10.391311262092017 12.350807296431903
Pb 7.8354243747746946 9.988808624435164 13.42711907036319
