54
Energy = -179.63812861 eV
Pb 3.509849413931107 4.489076015031773 12.095493039597002
Pb 4.763347495028286 4.295556851658033 8.813947889785384
Pb 6.453203475199923 2.935463194044187 12.234555307701886
Pb 1.7082167275129774 4.948411574651977 7.818312161668176
Pb 4.113827163041975 5.70393599363747 5.631559368221529
Pb 5.600600733354817 5.080145688531486 14.593277416477825
Pb 7.788218291469801 4.917331574910236 7.208263753452488
Pb 3.934383297222226 7.550574755683132 13.246947842539315
Pb 7.541723553538704 4.208031522494917 0.9734332673965435
Pb 6.252548179264143 6.037102681839219 11.346059411227923
Pb 1.062115201872084 7.307156500906365 5.59844085562383
Pb 9.17248171133269 4.440400023903301 10.195564390294743
Pb 9.289547926716793 11.356492351694996 10.634852329289423
Pb 8.677346504514786 5.057311583082179 13.446882519098693
Pb 10.601589804602995 6.791297119549243 7.869046657102206
Pb 5.865607270291336 9.457576717892234 11.212495689506806
Pb 2.366026068973731 6.382421631795668 2.6164824148411028
Pb 9.713592329130064 6.621338822111271 1.8275008011589366
Pb 7.204564857709756 7.9398414310491665 13.876631905630978
Pb 13.666399418685087 6.121248225137666 7.2834946776267655
Pb 6.3085124543330275 6.339572685800076 3.048119781582489
Pb 1.0758355282053846 4.147729495282768 4.693695468000277
Pb 12.40630677583678 4.48862568269809 9.77872322430776
Pb 2.839008293453004 9.642408797594422 4.039870671482306
Pb 3.1964153061398046 2.4503038013528666 6.324059449026823
Pb 5.907905508112976 11.334725909763778 8.237638251932296
Pb 3.330921395357575 7.236410805032341 9.926816879077762
Pb 10.792211899789404 1.7188671079281501 9.238406770122214
Pb 3.9458545065356896 12.203181238316898 5.857992031632922
Pb 6.137237630791823 7.830757413578452 8.314873756767051
Pb 7.495183666205549 1.9756310469415101 8.939095775856709
Pb 5.902594792369312 9.414434366218758 5.321201427697375
Pb 4.57501232636326 5.391274256245691 0.3099268890235026
Pb 3.872273314546353 3.4767762533618596 3.1410795630633115
Pb 3.1726872456137842 9.405901513502018 7.305786290988087
Pb 5.289176841234283 11.459198933365865 2.7999438518242568
Pb 8.671894814903633 13.312472034414572 8.075655343564542
Pb 8.732311298231084 7.536309509074153 5.01575119805079
Pb 11.893160799918016 3.525497865900157 6.681143697258975
Pb 11.764167079330015 9.329569174541408 9.837295951666329
Pb 9.168242488268715 9.983885260933326 7.624425484923547
Pb 4.558766178144975 8.592428323330246 1.2193531310393937
Pb 7.134104753594618 12.522692575136197 5.28733279612556
Pb 8.772166284812135 7.955861994617133 10.701936492641066
Pb 6.317696232554293 2.7311923141939323 5.401165016949795
Pb 11.681767955994879 12.297544520788112 8.548270375895866
Pb 9.345087518823883 1.6859178851363545 6.350265040751754
Pb 7.2280298950236475 7.191491231027906 14.593277416477825
Pb 9.139241587843491 4.345977613300716 4.126163106843641
Pb 7.911716458576702 9.42339240710895 2.1419815131495503
Pb 11.06222460418114 9.358709978660752 3.6485569310854373
Pb 11.870564875966698 6.3927134100276755 4.652118545910798
Pb 10.510451570488913 12.111361583172567 5.504257078050845
Pb 12.516509667006193 9.645713047038338 6.677764632253545
