5
Energy = -11.57045384 eV
Pb 10.50254684687367 10.270445117263282 9.131301226776234
Pb 7.605889899204073 6.0518940532510985 7.207864707383621
Pb 8.186011253457965 8.585965724489869 8.330977300537032
Pb 7.967339683623454 11.497401847856976 7.793364441848702
Pb 6.090495457218991 3.7849182843559452 8.032703688882842
