50
Energy = -165.80789972 eV
Pb 12.959865690880601 2.811948210533951 6.451916284710238
Pb 10.692430267035327 0.6779146811872778 6.963722439193944
Pb 11.51554132773109 2.8069877964112364 9.528201199588624
Pb 13.601345231585874 5.541620712308957 8.145387907600274
Pb 10.41225438179581 2.763148458668226 4.245741079400233
Pb 11.441331804070117 6.2998811220210245 10.635102755455376
Pb 12.506502358373593 5.646655823664138 4.831206542747143
Pb 8.47732116312076 1.527401695873268 9.14449835722631
Pb 9.818062409220323 4.099077502069172 7.1085933805205705
Pb 7.747139507186253 1.449883789347583 5.978808668634567
Pb 8.62682283639701 4.574374377707917 10.417228807545126
Pb 13.498219021495846 8.586006501557247 9.383261204727175
Pb 13.98714122608672 8.27776255333492 6.222152530577476
Pb 10.823320154219546 7.429709784694347 7.465494727840825
Pb 9.538876879406306 6.33126749405131 3.5377565033700655
Pb 4.011398453391333 3.9062569498563 10.614777620648146
Pb 7.153869057612151 4.2548394246478125 4.65255989099305
Pb 5.755507391887498 5.508474806526696 12.85786177941057
Pb 6.542966485894163 4.060982918605628 7.928703116941947
Pb 10.517616783943133 9.522503529504167 10.211868584347892
Pb 11.315301901468791 8.98920639835285 4.367873577956633
Pb 8.074225620839249 7.584999562514793 11.8853941008604
Pb 7.621219416040835 7.158424253284787 6.021997221854748
Pb 11.923697888829603 10.558859863931842 7.309273123463984
Pb 3.221650747811513 3.5363998536777657 7.323666439392769
Pb 5.154862445302355 6.9001064390963185 9.943462907755924
Pb 9.759404782919352 11.912022284426202 3.4959543857812494
Pb 7.563154610445036 10.706823665746668 11.911888280362483
Pb 7.581448503784569 8.957803000874756 8.950990246264405
Pb 4.958945545501529 8.707802386967304 12.73085395197376
Pb 5.605253555440788 6.954062689863837 3.345619338347848
Pb 2.644388030626074 6.369329492709946 12.265046963391095
Pb 3.3091913127668904 4.637136038497369 4.192949937527578
Pb 8.21577219812313 12.353167161854378 8.973244811690288
Pb 7.9064996974301085 9.321871902387905 2.9920938408159166
Pb 4.360972720647016 6.5283749682144085 6.600989907508333
Pb 1.6129477875998857 5.848061565339391 9.25934031195887
Pb 8.700153576889385 10.473321770639108 6.204314437098311
Pb 0.9155077973801292 5.61224934989125 6.090859610588025
Pb 8.709306436446559 13.688348232254027 6.016692016674442
Pb 5.253880192547962 11.296707059941369 9.80335797355543
Pb 2.5952572373054767 9.024576241843638 10.34329248597266
Pb 5.031547012281392 9.777109545169978 5.996473008926917
Pb 4.614627928520139 10.066501254323436 2.6882671658079333
Pb 2.490975864029403 7.843820448793581 4.097051938352805
Pb 6.615078670764074 12.526392163211133 3.7775847799408577
Pb 1.7425790585608447 8.671170654434503 7.141138654611892
Pb 5.594092769814454 13.423602730989014 7.020595800481014
Pb 2.880375080679596 11.699194043947193 7.739205205606981
Pb 3.490181089459345 12.349280312302973 4.6475251075453885
