52
Energy = -172.04507428 eV
Pb 10.705515161685259 12.17077762997442 12.404986816814537
Pb 11.934785573386623 10.963344341717397 9.405228184607122
Pb 8.262865254477697 14.30940097899133 11.961391751322944
Pb 8.743735875972378 13.002434348175267 14.826137062518342
Pb 8.685331312282887 14.260063831731431 6.338355382937632
Pb 7.109317450957721 15.211325628974404 8.84170771767956
Pb 12.998635477312353 7.952026636035951 8.992055962974622
Pb 13.225435232026006 10.006050566461054 6.438461644981046
Pb 8.991895628308301 12.402080576631922 9.363813073076198
Pb 10.440723035445783 11.64814319187114 5.370652171030007
Pb 10.36203061095829 8.810185444684478 11.60931564011583
Pb 11.12116847736581 8.344117701999206 4.493911640080546
Pb 13.869078335409478 6.874416199818677 5.99847568027827
Pb 7.515105267976898 9.130857646511192 9.740605329868437
Pb 13.475204589742594 4.721078366305544 8.502973005153583
Pb 10.087493121514605 9.102348087419625 7.564410111276995
Pb 8.433826659616736 10.326478778413748 3.0547856437820564
Pb 7.048115019622807 13.144357518196653 3.7786789999124557
Pb 7.195257351652891 11.316872369648253 12.524662655302027
Pb 9.41808836515814 9.992269257746461 14.590033994720581
Pb 5.792352705975842 12.122250369300538 9.258611569860884
Pb 5.443529169046877 13.745789900871582 6.4538280394712855
Pb 12.12754938270259 5.546363138816653 11.537890684771765
Pb 11.940418054352326 5.114838982411589 4.122819840994169
Pb 7.416550043892689 11.016891812907781 6.414181438890574
Pb 10.646578549686962 5.858538612060748 7.1881012899742895
Pb 2.688565461348469 10.850726302161783 8.26477700000764
Pb 10.157868810822462 3.364476509578182 12.966986850662725
Pb 8.97320015674793 5.6810726012277 10.662903557452015
Pb 5.130324559658653 10.216332194929164 4.203125293819636
Pb 9.826573970003043 6.4363510512080095 13.95603260873427
Pb 11.59875608177748 2.8529557621770243 6.458310030911722
Pb 9.50498266441366 6.453195902828596 2.340728673526682
Pb 7.514454951654079 7.5311534631830455 4.846019658840278
Pb 7.183052538621211 7.991335540202227 12.957202303585602
Pb 7.147083157403109 6.169711798809183 7.782895191710064
Pb 4.322426527396266 9.779518745227401 10.95118050783692
Pb 4.903982617046285 8.710756182748558 7.401468891118748
Pb 6.16135414763472 8.338873087231851 1.8601747570365241
Pb 11.08998958587976 2.800042305313205 9.82061893409067
Pb 7.976226231111463 2.316016648545101 10.841553226936579
Pb 1.8502087488298542 8.363360443817887 6.332561027989172
Pb 8.932548842312952 3.9266573278921824 4.491556310950143
Pb 5.206147313881155 6.568899771934001 10.4688799222004
Pb 2.1698660876952593 7.902854074893473 9.524788782097204
Pb 7.108533264288355 4.589216203364244 13.014233246767722
Pb 4.159630824717171 6.955940059078331 4.297319523036646
Pb 8.492374559159138 2.8042107101911773 7.647331732635258
Pb 6.5145551957882635 5.212972133065218 2.620961103131754
Pb 5.705689321873984 4.113369432515113 5.602296789945604
Pb 3.378494934807284 5.688932648040281 7.444998644640686
Pb 5.539501699796207 3.5868416368576312 8.949631624486651
