55
Energy = -182.35809299 eV
Pb 1.4262324132084494 3.6582510856323647 9.527095335190072
Pb 9.103743744304225 6.821972130137198 4.721861138654905
Pb 8.226608801478946 2.327646452208815 9.119266126097749
Pb 4.200053406376958 5.317323191725433 2.149823549017382
Pb 9.64352112107922 7.187361485503814 8.444227736377977
Pb 7.697346698946756 8.970799111933628 13.20777696155644
Pb 3.3541609771413494 4.740935408447767 7.041509728704571
Pb 0.9608443965620667 5.058719194237236 4.143442171403341
Pb 6.457746157205813 7.792191677529136 2.82029870597365
Pb 7.409461082616486 5.278886829456146 11.559142229672378
Pb 4.183691041012181 5.822323393630329 10.763165224571358
Pb 6.607064279905288 8.006268739218847 6.592505050264769
Pb 2.8598986398474318 10.138663798255042 2.810630139007114
Pb 0.19980239506687958 8.254422422758257 4.766917885104476
Pb 6.712008115077548 8.141254986823467 9.906951318940395
Pb 2.3911478140820064 10.47151677684741 6.100232257475754
Pb 6.693496887571472 5.901935181820535 0.07860145955396082
Pb 11.9048327969693 5.298637297960259 3.887415006981789
Pb 9.030032283875695 3.4972916596486803 3.6591461090713797
Pb 6.132803519310036 4.793003237645583 4.772076605032695
Pb 13.517176655988248 6.409250404806796 6.812464969128251
Pb 10.009622389830316 4.25103088313515 6.816079239419751
Pb 6.507780159665689 5.057706262480992 8.262984282414829
Pb 1.6105923748384778 7.284026585253613 1.9168390700807738
Pb 10.615420739106435 4.34829946484815 10.445259383282592
Pb 5.975334821881899 10.915583219984315 1.641984649081231
Pb 1.0330747555996198 6.847334380157467 10.187571076436772
Pb 9.110391289362727 9.771325119278956 2.609981587354685
Pb 5.429496432923386 10.481197091720185 4.865849374120484
Pb 3.59749728673746 9.114956486340546 11.538401073442001
Pb 9.28005611612726 9.950520538178353 6.216090953246696
Pb 6.921048839808189 11.073271272651144 8.220132312402857
Pb 6.278816274816312 7.984169531511292 13.092763220811205
Pb 3.3451670631483172 2.7026541776607305 4.413721774812164
Pb 12.988101179411588 3.1002048678125567 5.9530721621259595
Pb 12.566682586313998 6.944818032791206 10.011835073121784
Pb 4.528109422195917 2.6027195078165706 9.725033368998451
Pb 13.521163072526553 4.008927890894361 9.026696400524148
Pb 9.518579576924953 7.672080752583878 11.808479451832572
Pb 4.432885864567002 8.28473862398726 0.19595720927406962
Pb 11.938766565129807 8.433243506829003 4.6671430890849015
Pb 0.2877007358592143 8.950897137867058 8.016235741831451
Pb 3.4434184273293753 7.408347283491766 4.798067021398232
Pb 2.4569184532353012 1.5524734473326867 7.342789432069697
Pb 3.907016286568226 11.307589838984319 9.302692145338701
Pb 3.5011131517190526 8.182710120295974 8.33595381919866
Pb 0.05438172980021967 5.715780316722749 7.220365014637448
Pb 6.469363417700962 10.96279347244029 11.495539728381933
Pb 8.949909001772271 1.2314652596242102 6.079528029543536
Pb 6.353704330277363 1.654131920977471 3.7366708691981576
Pb 9.625127211380555 10.24814900305031 9.924973108659666
Pb 11.40727215228407 1.679537556375171 8.370804961820836
Pb 5.718117190895037 1.974525067424202 6.8301846877811405
Pb 12.143621070603238 9.326347727320998 7.763978395917489
Pb 9.453711056354303 6.779423440271841 1.4402081816216272
