54
Energy = -178.99572761 eV
Pb 10.94869196463859 11.441431805045765 2.30292009346451
Pb 7.8261374539570285 11.35613210815767 1.554847270396423
Pb 8.738757108475658 13.216499071327709 4.13681665777672
Pb 11.631142251946287 11.764246188136553 5.4700156001788836
Pb 9.548182465953028 8.561171162607888 1.1845370934501043
Pb 9.69037806554058 13.881770401283891 7.180478238359633
Pb 12.005127588333313 8.654542652742586 3.5952276784700414
Pb 5.522072971235198 11.753589897674177 3.995320746799653
Pb 6.480913528811131 13.46033092565593 6.649416934365911
Pb 8.890715460594208 9.621901768185566 4.336669058412386
Pb 6.120957284067726 8.71825743630766 2.21388582919909
Pb 12.20962620509045 12.739721439555108 8.676776695724481
Pb 9.920408405315268 10.248782526871986 7.7316794249107685
Pb 11.340995445073796 7.459320433025312 6.654972023766996
Pb 13.177620947674791 9.577844039447841 8.464784191349361
Pb 10.0007906010827 6.118419341847583 3.5229691852586495
Pb 8.785216048678967 12.321686351170747 9.898551310487468
Pb 3.49477864409861 11.473510316401395 6.933373145650085
Pb 5.491965018327008 11.884131620280863 9.35541593429426
Pb 7.466731519507785 5.858540014033211 1.5352134790011116
Pb 3.9893036741677763 8.782611729935144 4.855624793406135
Pb 6.489259454835534 10.088800983855387 6.790087497204526
Pb 11.838071727263733 11.020442143838675 11.396141064837805
Pb 4.5372265657930315 5.523652487082636 3.3640969532827354
Pb 7.097287060457351 6.701206658856193 4.888459490820289
Pb 14.006784947657495 8.423992414176046 11.42358820747038
Pb 8.452256454550112 6.906434756418944 7.922346348537912
Pb 8.909917809798614 9.919343039988782 12.655325352037435
Pb 11.676648786160008 8.625486726052115 13.74234452223363
Pb 3.7947016683417636 8.923018973758584 10.232218431542517
Pb 7.188488883293174 9.126218884276833 9.999127981410806
Pb 7.141848384456992 3.5352847801202603 3.810059042470225
Pb 4.945706218334425 7.164202266670136 7.608127993175626
Pb 10.630701185100017 8.096840988832245 10.41896768856971
Pb 9.21611408162233 4.002384816974662 6.289915198405693
Pb 13.080744196748858 6.131379510237912 9.281056014670249
Pb 9.838582815160356 4.8728510416573245 10.072592981036737
Pb 5.730319604147273 8.221119672601075 13.02642325363754
Pb 8.870253820597375 6.5040206649987065 12.875626228748095
Pb 4.216637297172278 2.6167947785668884 5.059752109669447
Pb 2.5643545350364727 5.516690417910042 6.134424941919849
Pb 6.071614215768972 4.012641948173376 7.506755664484896
Pb 1.9369175320315979 8.526241748204434 7.364828760373214
Pb 5.820250139193913 5.996997567186506 10.588941042225768
Pb 6.976500383273708 1.1906555059195227 6.08249948247722
Pb 12.13365655037521 5.76937052766857 12.324225500621777
Pb 8.531158166863634 1.9698638562771553 8.764562652046406
Pb 5.695784697307308 5.11660625701689 13.82414795402021
Pb 2.9664276680232935 2.867888052764609 8.095067285944651
Pb 3.0183137556300976 6.573360033040698 12.605363538048536
Pb 2.304585966534167 5.813083567568614 9.519772076932576
Pb 7.227096133929075 3.099826213652388 11.663417918738467
Pb 5.496818324061516 1.3596364478378882 9.489814513506053
Pb 3.842147592048238 3.4820450062542867 11.548662511670054
