50
Energy = -165.52894352 eV
Pb 13.464077903928867 6.152210469538279 2.9999515482155594
Pb 10.532807387400508 4.9452888928754914 2.3732168043037114
Pb 12.46853322759064 3.6967599839552405 4.762247846694346
Pb 11.155947486189394 8.46577163502912 2.217486585916917
Pb 13.985160274158101 6.176021731870776 6.189142848232267
Pb 13.315428907063236 9.080090990685333 4.64428623937532
Pb 8.774441388810354 1.6650488707550553 9.611714725992456
Pb 12.125399351213776 8.495272057348632 7.73863592133619
Pb 11.991828897518818 11.541301094597225 6.607741479169119
Pb 10.814613306008935 6.451075710121348 5.282612913532201
Pb 11.349895949949998 11.597859209243213 3.3935304883249056
Pb 9.884477161065645 4.6546672761960695 10.37114201312742
Pb 10.146802930091082 3.5141290142311923 7.228553791786958
Pb 8.07542087425445 7.267229861318222 2.901098819870858
Pb 8.029726583769174 4.403094852245566 4.68623481354328
Pb 5.4043305760509845 1.5148304020555694 9.35851830032632
Pb 7.35884792621029 1.5401107079535352 6.616854927710603
Pb 7.000991325164604 3.386832357627003 11.60826284033819
Pb 8.327185478244154 10.671528348641797 2.796381036350423
Pb 9.568536627418098 9.4304510333252 5.608992713839735
Pb 9.024319464172391 7.643590733741557 8.63243902836102
Pb 9.413362683104177 9.151148778014145 11.583068434162591
Pb 9.099701202104795 12.600692584568383 5.459506184360724
Pb 7.291112663755217 4.560556114100287 8.449300362025587
Pb 9.421171647680024 11.240508886230511 8.9416975223523
Pb 4.0590039919291465 0.7587925759300321 6.411211035374661
Pb 4.664558905559528 4.431119735568846 6.546553795957013
Pb 5.412639536520542 2.3069399873311713 3.92757567280184
Pb 6.522040460133115 9.664415050407653 9.844233913659167
Pb 5.432061070963251 8.996693277001082 3.6224137832939673
Pb 8.108042257151176 12.09952082672328 11.869498285410677
Pb 7.1054490116882905 6.675906904037659 11.275225069702037
Pb 6.558638315820528 10.716865782160738 6.5881931292365055
Pb 6.648385513305201 7.242870027366787 6.036111515700277
Pb 5.175897365251028 5.490265382090826 3.136042858387311
Pb 6.531054945431611 12.922184260968058 9.158840276465826
Pb 6.607085976713488 9.592069408182395 13.272580757583155
Pb 4.322406791996806 4.8388967158000025 9.94297953179593
Pb 2.295952233307027 2.710740364526274 8.306651173384054
Pb 2.3535514955882384 3.062865498513655 4.924123146459632
Pb 3.9684985206536143 7.872525961920288 8.141819360552914
Pb 4.629639110970104 11.766618488628172 11.667270795197886
Pb 1.3297937644590476 5.631258536491412 7.247636758810259
Pb 3.2086858005846093 10.10388438466394 5.686210161850401
Pb 4.1264414609658475 8.175311155121483 11.75946254847991
Pb 2.8462359016084293 6.9390550531365385 4.802902490713381
Pb 3.5206073573248298 11.661884528919238 8.427029626897411
Pb 1.3717510005718248 7.081129969113236 10.169257494334849
Pb 0.9213510861014774 9.088443444068346 7.729876115988346
Pb 1.7721696206184092 10.193405304942962 10.743388534550043
