50
Energy = -165.24750415 eV
Pb 8.617433964008839 4.552500000769758 13.28227881159687
Pb 8.38990699676653 2.5744869101942505 10.77237289667001
Pb 5.574924217524925 3.3703763785985017 12.624559197837854
Pb 10.134381003082147 5.500582482821926 10.512378542652426
Pb 13.283094389533135 8.750957379360667 7.308497213496838
Pb 6.035335819327022 6.343591713819428 13.945080840619525
Pb 8.757595389125434 7.748611634568441 12.604464826069256
Pb 8.74319971448375 4.158410847321931 7.737479520179007
Pb 11.200064217416415 9.224541515622255 9.954009472693615
Pb 12.567277270870841 6.1127118802273825 5.594492694749858
Pb 6.869177781757546 1.8622584443069086 5.8894932216430975
Pb 6.683132300473558 5.615192843244876 10.536580627042756
Pb 8.614238239991016 3.267612707933841 3.109791409609185
Pb 5.906357879193652 2.563463480464227 8.811060936364152
Pb 10.875402135466897 10.993472737128371 7.143789767069442
Pb 8.902835663174436 11.596920456446899 9.909958818738804
Pb 3.206698798699281 3.593215131371157 10.079570013694736
Pb 11.645494677171028 8.972910165096993 4.455732574071854
Pb 10.359907490856553 7.304130055179095 7.486680984224392
Pb 6.906944914349835 6.770855377233754 6.989981696290503
Pb 9.622304218950482 5.649157287802704 1.081416178698848
Pb 5.736145044858614 9.037057027375077 12.044278025667001
Pb 7.95660376638464 8.5884626162343 9.485710163342771
Pb 3.6745788428190664 2.0896398322350884 5.317154829729499
Pb 4.45560464805748 7.87803220302154 9.033356213101944
Pb 7.59285341640054 11.84012753870085 6.992880259042969
Pb 3.8051487875475547 5.035508682151964 7.030339134205614
Pb 1.3615572749755753 6.0580587907206445 9.032552482543208
Pb 8.517787323234556 9.237810830737576 5.307387959604891
Pb 1.197910674824066 3.0166526169162493 7.446016028800636
Pb 5.837906626265156 1.6252541025860212 2.7620875884834675
Pb 5.243370666042638 9.539039653381725 6.128999250617631
Pb 9.58108725152512 6.290612458879559 4.303388588584601
Pb 5.864684162353975 4.622700178873302 4.37494681795571
Pb 3.512325555887146 6.373926531284252 11.873416264726977
Pb 5.609339114105884 10.92032062797168 9.36117184812643
Pb 6.595268682440602 7.401654447924774 2.488261697964401
Pb 2.1894412464777186 8.090740946213279 6.644179027834428
Pb 6.760657753254881 10.758244738110168 3.01994017244495
Pb 3.21239422039348 6.666912824027556 3.8874760196905913
Pb 6.550378081234502 4.323062595948288 0.8112249723894208
Pb 9.20378054704647 8.996075550609444 1.4623422000826438
Pb 0.30361713789804623 5.608728121888325 5.753521167945825
Pb 0.731620097004516 2.773853417604782 4.169719942654455
Pb 3.8933143892139066 9.364816714923908 2.274750721201051
Pb 7.574102625846955 7.113104300479263 13.945080840619521
Pb 3.358985957055037 3.6481040257261172 2.268550563574275
Pb 6.185139981583783 9.779679033911131 0.01926330425299628
Pb 0.694189535085317 5.42674131608349 2.4751481010548377
Pb 4.427978157255421 6.9856361908255264 0.06772031446428216
