55
Energy = -181.97328147 eV
Pb 5.649507795077903 4.084915307435749 8.030062852729369
Pb 8.49138708035988 2.5666867450221353 8.823286422209693
Pb 13.830862512660222 5.500909410263444 7.090660591497492
Pb 11.038036612104747 18.036224657267777 13.52359935732297
Pb 8.276358540856707 8.33038045361802 12.436428720048678
Pb 7.771800159289167 10.238810762052264 15.188200378822017
Pb 12.30093145857501 13.06051774956468 12.499212233462954
Pb 13.101126128675569 15.785048316481147 14.181144883060329
Pb 11.111780090908978 3.7017825138573093 6.982365563647535
Pb 9.134056837576644 12.12495793434008 12.919055713704068
Pb 15.650118750517425 9.989088018542692 9.520731018291372
Pb 8.89244821552839 13.125662830351194 4.5341977655760015
Pb 11.422553229884532 6.837070135197176 16.450902840542152
Pb 11.029070203998605 11.732869007584476 6.896285290078766
Pb 5.141232969992033 7.092258799773487 9.526407219212183
Pb 9.782710848718299 14.052350122125356 10.190566549880417
Pb 11.06245654390445 8.997494192227126 4.79041441828595
Pb 6.3021116043804195 7.024047491007314 6.291025010582713
Pb 13.24009396689323 12.152625371961575 9.279114976894213
Pb 10.900061817178258 7.383369093423661 10.43527622934209
Pb 8.865294120879295 3.3267701808032597 12.23263032174036
Pb 4.391336015229992 13.866331914453935 7.240661701679703
Pb 16.02684561605436 7.877668785764453 7.209063791731555
Pb 10.595590032098254 6.094807833227602 13.453983961788019
Pb 4.868193674835405 10.57587982508989 7.2551514742640055
Pb 10.007147363896319 15.100854718578145 13.779184256112705
Pb 6.386877363648732 5.53133292615831 12.730606592801827
Pb 8.0386873564061 5.5962624293439065 9.91704790036208
Pb 10.856067684213397 9.276074262365633 14.382494116167555
Pb 6.0711136555754015 2.619670140352607 11.068212895764068
Pb 9.810837580304096 9.323682833828347 17.418030776011683
Pb 12.170883890440315 16.13630009962085 11.0991739924445
Pb 14.069745555367259 7.856850074764992 4.719243203073155
Pb 14.57761863959136 10.836527844093778 6.414154176605149
Pb 11.243322205981306 4.211876057884079 10.13186164629463
Pb 14.408906379415285 6.934816420110841 10.095921715816523
Pb 7.89320230481571 9.894994459594455 5.540633437034543
Pb 9.667201881664468 7.0623318451045405 7.085771932391669
Pb 6.7387026484332 15.382645858888568 5.45221667195887
Pb 5.690052288856122 12.363835178704898 4.637257246996621
Pb 8.30766183885373 7.098565531840933 15.54252240667168
Pb 8.221896557474697 4.429367054202992 5.702396883475364
Pb 11.467099104857487 5.650486102922158 4.481279637639657
Pb 7.68763285105482 12.618150177514647 7.469486080023444
Pb 9.020458489467869 17.120160177893304 11.209999521708855
Pb 13.074401573546124 9.662215218455438 11.544255909587719
Pb 10.334616270959256 10.718064011894553 10.016080699110217
Pb 7.159506300101637 14.485052057945168 12.080698093790536
Pb 8.58537841363667 7.111252908688423 3.8444231093944303
Pb 9.65916568318668 15.230032480990031 6.959350977784696
Pb 6.85074707615376 15.579025163859367 8.756725721250437
Pb 12.726633498546601 8.72718017356045 7.933031432772486
Pb 7.48270670641 9.26486389034508 8.832102544035585
Pb 5.632430910101866 12.4537769456759 9.893544108943077
Pb 3.7759539622688227 4.657846364786885 10.774483888988613
