51
Energy = -169.09447731 eV
Pb 13.468231685925016 8.198967227303598 6.367829071722037
Pb 11.825430849491267 10.224620801451767 4.306163353082824
Pb 10.380170796835051 8.572216949076827 1.8257547983861173
Pb 14.225605508477221 4.985857952494909 5.502040748521767
Pb 12.345404568915669 6.704478130218852 3.554413324490678
Pb 14.052827985678936 5.39001216255381 8.609280288546811
Pb 8.451121159316367 10.688601938583624 3.06669936629049
Pb 12.310177438330284 7.976200839038951 9.539568633867358
Pb 10.886388884742534 10.245704346062498 7.746301222742439
Pb 9.592706503418379 12.347044778286245 5.723646707135283
Pb 9.375287389098425 5.510458400563752 2.704612811728853
Pb 9.29559999091559 7.9965223652058475 4.908499178909754
Pb 11.101007605196392 5.867986400357169 6.813650413771715
Pb 10.041772864664354 10.824564447371584 11.226187968377333
Pb 11.615093144523637 3.3855945217846357 4.233737722431971
Pb 6.864439532224184 7.910301041136387 1.8943826700989375
Pb 12.305246790007834 2.874081551197243 7.706414084155725
Pb 11.072440960523044 5.013752456889439 10.091443647110527
Pb 7.261519278723706 10.182130755569501 6.813166580232015
Pb 9.48776039296865 7.642525494217061 12.237226990802037
Pb 8.313059309196888 4.135081438443687 5.408521401924993
Pb 8.493966815311152 12.47158628431395 8.899063300493896
Pb 8.346376985587604 10.191140281442555 13.90273518069249
Pb 6.566691564683041 12.695984388524657 4.719546249121371
Pb 7.183101332543403 12.566299242244012 12.03056734677977
Pb 6.894336626559475 9.59070122749854 10.815253934892631
Pb 5.3423917828305 12.163290644442421 8.779344656956773
Pb 9.94279279709245 1.433117343534611 6.174087408809399
Pb 9.06575232406503 7.617793032525738 8.959312428199746
Pb 3.869971452380728 11.574645331299603 5.979956740703373
Pb 8.860234007849376 3.1200619854683853 8.61663697824407
Pb 5.614087769543273 4.958933433478095 2.5636340765587184
Pb 5.136456093922983 10.477021066514125 13.640681384743264
Pb 7.579465225512861 4.968958441483488 11.157204908216139
Pb 6.610512421276624 5.677740351653257 7.970100418756806
Pb 4.863465608825295 10.344381986104851 3.046194623205246
Pb 5.581953298637481 7.220514245670006 4.959532556167866
Pb 6.485800134556102 7.426166950350119 13.755397929905175
Pb 4.3502322787097665 8.95693650782136 7.9678000906910516
Pb 3.3803420186458344 10.573896194159795 10.896556893918623
Pb 3.5987327695574245 7.467004513311155 2.0287470989697822
Pb 5.18922226393872 3.7314683693592956 5.5719710403928016
Pb 4.888262459915393 6.904574313334432 10.595753470470964
Pb 4.65002088497817 4.734872473610034 13.07206826803026
Pb 4.782353971023848 3.5491272870880093 10.02078125483603
Pb 2.771629137928139 5.420499691260855 4.306754178230178
Pb 2.6095932453930812 8.670079159050228 4.95549424355602
Pb 3.236445640324174 5.654406997237 7.847745567384955
Pb 2.937213890041486 7.71564133347753 13.050633935336299
Pb 1.757874862773297 7.958491161419775 9.958074196413358
Pb 2.0936288523553364 4.976480414061979 11.13430138652978
