53
Energy = -175.37085033 eV
Pb 12.065011329683424 5.588008635840086 6.6201997602474565
Pb 10.841526109984628 7.85871591957219 4.603647511906284
Pb 8.169191860379346 7.6544486367776905 1.8361146514146878
Pb 13.988181654868143 6.4457637036699476 9.133825141232732
Pb 13.518940690723415 8.67175992061728 6.599765450813541
Pb 7.312779752793734 5.660069195776772 4.5017923152402455
Pb 10.412000966435047 10.002015955150867 2.036639315102281
Pb 9.47699821084358 1.7797929117538505 9.516162053644642
Pb 8.75658932595664 3.7299484359257686 6.94023005829345
Pb 13.599594836277832 11.965652510428429 7.3983674095968395
Pb 7.707952797328119 2.0253507433626172 12.045598174812525
Pb 12.188953151149429 3.5425663954072912 9.069228325363834
Pb 12.052030989984605 11.107407477460425 4.635515492306662
Pb 5.67155939665662 2.894185007579667 5.626560796215105
Pb 8.790466241045895 7.099805111447221 7.133526571264434
Pb 6.259459197106268 2.0057804897528126 8.789278537294065
Pb 13.071270447439916 9.688943300234104 9.663812807359989
Pb 13.079460287752905 4.910148012335698 11.835048324867822
Pb 5.258979040460264 8.725183799538078 2.6407854570500544
Pb 7.404871229506906 10.75694302812953 1.13204885896183
Pb 8.0381645081255 9.771937738300755 4.389524708742919
Pb 10.7466623667161 6.578500405175012 9.790795427655349
Pb 10.541704908310738 10.148829646137509 7.484615863539453
Pb 5.481881316130678 5.31898290324573 7.79655730427029
Pb 10.760833961307513 13.335250972293354 6.67677908775641
Pb 9.085706753272833 12.731823906355771 3.2966697646640073
Pb 12.216956128950319 8.061328542139865 12.31397472023516
Pb 4.030307697305164 5.455248149178457 4.527406234297545
Pb 7.735587100524258 4.785783884732654 10.175935160685011
Pb 11.593160290816748 12.657542792388291 9.890719263452187
Pb 2.85303093823906 3.638317529198646 7.132076106515083
Pb 5.592494773780525 12.10804891370414 3.4290640825758882
Pb 7.1589875935421485 10.592053746125176 7.716973423004607
Pb 7.335604103509299 13.550545966492034 6.076121632669006
Pb 5.496336524371455 8.11517748775189 6.039121651248341
Pb 10.149295999047942 3.9619234445473857 12.226767268562497
Pb 4.838505833511041 3.4433368741761563 11.2584941545005
Pb 9.480427469915329 9.641163456576162 10.783319234353707
Pb 3.171247758765656 9.975253996795631 4.66946237315747
Pb 6.6395350031662606 8.090016320509775 10.085334175082798
Pb 8.589488714561812 6.948794939135878 12.935873991142051
Pb 9.98568427315953 9.750371137448019 14.043218307384283
Pb 2.2967807181941273 6.983238173822244 6.741878447081316
Pb 4.461126175698959 12.292258917757973 6.443934557683477
Pb 8.443233809637606 13.222018412028861 9.190457473121672
Pb 6.055712928162291 11.383537436375242 10.745027021829111
Pb 2.7085260590262363 5.525806741925122 9.875042839893943
Pb 8.950804543982532 12.296135605439954 12.42256824552158
Pb 5.368692767936531 6.302047056182707 12.637131104615374
Pb 3.892663630813809 9.737609967497756 8.366600651324562
Pb 6.840624823206934 9.648194563326268 13.279368019983625
Pb 3.725369008653936 8.757599858560253 11.557820698158455
Pb 1.306498726539929 8.262820455174838 9.500712318075287
