54
Energy = -179.22729094 eV
Pb 12.971266103563808 9.867568835208871 9.117813303259743
Pb 8.006301266387688 14.379471856389323 9.402810812157814
Pb 3.6794236642303795 12.151974792159656 6.413424057851265
Pb 12.184321156397148 9.3424025399428 3.037265063421866
Pb 5.845865360165875 0.6728051739825923 10.05984882477902
Pb 1.0136639911066565 8.539106519239976 10.770620431581856
Pb 9.865279234607419 8.748588830009608 9.204546344027017
Pb 3.5940851291960056 2.394722372014819 5.173138371410399
Pb 3.505854470557075 10.497295411275188 11.227103968822385
Pb 7.760251007630856 7.6000275138780555 4.585991296531289
Pb 6.115058855290376 4.654336915816766 5.3431608726874344
Pb 5.728743502744398 3.7869723507554616 11.150306826956207
Pb 7.637372607217129 3.232386593756249 8.150273608010231
Pb 13.640901307745919 8.992971430975556 5.983010403686674
Pb 8.993659410778704 8.490415391206652 12.347336384388655
Pb 9.290381711494785 6.081752857446717 7.180752272465672
Pb 3.6051435762276824 8.722899096770767 8.480753093839363
Pb 6.6917924653958725 5.616351378656581 1.988855868869907
Pb 8.482084527036147 11.633976463876222 11.253859059822469
Pb 6.127724525376709 10.119418144176903 6.427623107336893
Pb 8.925817002259324 11.522034910887692 7.752348107832977
Pb 12.249564035362715 12.076827820834433 6.512519121251435
Pb 8.575521155550792 2.1431257616711217 11.054999266101175
Pb 11.279506328210768 12.94998503918482 9.660240495363032
Pb 8.632777963630062 0.17587698337452903 8.41356663161379
Pb 8.605026903657954 1.4332478014434156 5.361147208672557
Pb 11.091366289400288 3.426749918635292 6.355077902690868
Pb 8.55949090422322 5.633060190604004 10.734243536877262
Pb 5.555360061858142 5.956005606508676 8.694463270328557
Pb 5.60440214199929 12.066915355915881 9.13316823440844
Pb 11.853993444309586 7.321260201648722 11.261963177656499
Pb 10.08324226062829 6.970183437826991 2.1191696813679077
Pb 10.415108727406102 9.244190783085166 5.722381158136092
Pb 6.246663137237607 2.411908825310661 3.017203912315321
Pb 11.504343671165634 10.540600368411669 11.996726605008808
Pb 12.444151691083583 6.627648032412746 7.970132241788251
Pb 6.556504330497496 9.067523648407452 9.932874180973961
Pb 5.7823951142781835 0.5175265936944105 6.795459173022412
Pb 3.183817182310455 5.789054488599508 6.2252296472937365
Pb 3.9558027319461773 2.8789866359496488 8.409031507945521
Pb 9.041354092440537 9.927505969511346 2.5951066860977474
Pb 1.3935645978332742 11.07144801880276 8.64115511299654
Pb 0.5049687158183768 7.860717293274439 7.657296693104699
Pb 2.3949712029875037 9.43011212967708 5.5446090206571474
Pb 6.905205026035447 13.590149473951483 6.289744419975416
Pb 4.682077770121652 7.578347749392282 3.7031205086743464
Pb 10.935089636072746 3.940765443531206 9.528824700985142
Pb 10.078781047586375 14.59878840704974 7.028252950473423
Pb 4.0327057299292814 7.264801800715755 11.614280870205043
Pb 12.221770618328934 6.310068387740012 4.552502741273597
Pb 3.7548851063600166 4.59968250924566 2.9357165524016264
Pb 9.161070090928286 4.4693333329338305 3.9680227216655766
Pb 2.122705691509906 5.72799926594716 9.5742022695576
Pb 9.672400549395604 12.467714946289762 4.580714699623145
