53
Energy = -175.70884597 eV
Pb 4.544834308204632 1.850909959133567 2.6372331577774673
Pb 5.116799359238525 0.33751799380936953 5.407884024426768
Pb 7.6201527134197615 1.6317544403082653 3.7944928005600804
Pb 2.4794248602113846 2.4878017796433185 5.110618413585519
Pb 5.368947613150225 7.083529777705689 1.0701685557829543
Pb 6.726019847263605 4.213933691228573 1.888574757688276
Pb 8.33834115281137 8.476744197844885 0.7562749537628158
Pb 5.450604494924561 4.05512726355969 5.338670113912529
Pb 4.303842141333798 2.0849584097126055 7.954989296837795
Pb 7.491554534774382 2.054933680090251 7.04420339712955
Pb 1.614208469689104 6.280445030158751 5.305497051053179
Pb 3.4025646587373903 4.88018582773089 2.73453141395084
Pb 5.916507419416067 10.254325025687029 2.044980125268933
Pb 2.105597002771399 4.364303994134134 7.897294398532597
Pb 8.97415303558389 4.309314794353736 4.99710287815906
Pb 10.512822376269522 7.8910593493304635 3.055073420849283
Pb 7.4875827605774825 6.935070494785251 3.6341987836115166
Pb 3.133240617988203 8.284621092013458 3.1006154245619832
Pb 9.422398558315257 11.128909701445417 2.280762787719302
Pb 1.1769644658282346 7.316128198653649 8.57887353087897
Pb 3.6543047857758797 6.236339098151906 10.58929707268622
Pb 6.517666481201888 4.44046190943256 9.639776676037727
Pb 7.81384572723994 6.392844649826974 7.30982783579693
Pb 9.905164041968254 4.06724011630686 8.44894640472362
Pb 2.3678727276925384 9.333859121063062 6.453263060341878
Pb 4.379026813350215 6.679545823803648 7.48777530913504
Pb 3.7717346948854384 11.367110824826465 4.245785686011164
Pb 5.630811023537704 5.368877808047027 13.020974549011198
Pb 5.589112166966287 8.908988781270883 5.429876500992663
Pb 10.949662896966396 6.837132063638605 6.389616797185352
Pb 13.071466387812094 5.300848744721931 8.46894538182417
Pb 8.717102630762334 4.471648347928559 12.289346181098288
Pb 11.876315005863216 4.377042620422491 11.323256933679037
Pb 3.8201451001239626 9.247490888866396 9.487066584613364
Pb 7.344141852519907 7.4601209802423885 11.20871965050178
Pb 11.934921668485199 10.19997185268259 4.743701722760128
Pb 8.767909267215963 9.737763190318057 5.2720333768855
Pb 10.4389382466008 7.096046303557762 9.81448821800629
Pb 5.133334647061059 11.669562935830754 7.232918392030419
Pb 10.207371255680647 12.898992921603341 4.9382006341928975
Pb 6.989223496204514 12.556781039495547 4.25968965437868
Pb 5.532853225673545 8.540390047615393 13.668505655822976
Pb 13.062282698192114 8.545129799368004 8.338424913557715
Pb 7.415876083215295 9.612208833265168 8.457568368458066
Pb 8.098435483212661 6.753107353194255 14.580989944880258
Pb 11.082237388919703 7.029021287852604 13.235368307839046
Pb 13.687498032564962 7.02600691272292 11.153811872461388
Pb 8.073829823992574 12.939059217469527 7.396067270294003
Pb 10.682748311008561 10.92193287305763 7.764242813221843
Pb 6.174142784103625 10.734680665265914 11.40614367835718
Pb 8.833086184543081 9.720055708775794 13.331445671178294
Pb 11.741055484256021 9.718589676646568 11.340123054285574
Pb 9.073291577560829 11.610694207873854 10.573529876914732
