51
Energy = -168.28800203 eV
Pb 1.8502648628230565 6.071850771703595 9.437455414035712
Pb 3.281093776400322 4.401947208020941 11.877326496922178
Pb 2.886395246830118 9.089959849612187 9.837298671583483
Pb 1.5254516233063107 8.228037604033 6.822104310999314
Pb 1.0688401823809535 10.68974017665898 4.65776472049619
Pb 1.7977960682011787 11.383094873401241 7.674893170566507
Pb 5.254254272301936 8.650432954289649 12.29482190262414
Pb 3.5361676828869606 3.406250291503943 8.852054601478194
Pb 6.10757308086422 3.048711355743116 10.907364559918333
Pb 3.9297301285857222 6.026498694074824 6.5545216254217324
Pb 5.4809165594293345 3.393269192934013 4.779960217423883
Pb 5.248616387317701 6.290989080647282 9.85977351874098
Pb 5.233652134417999 11.655112023182658 10.858684025220557
Pb 3.5246343368669475 8.645808895667335 4.19300440162605
Pb 4.102312140071049 5.6562266186264765 3.048123469004847
Pb 4.876089809657473 9.706846120118989 7.258573126412916
Pb 3.8816815498127113 12.10985831200463 5.103923354865657
Pb 7.284610969826272 10.824637908549938 13.541336325904133
Pb 6.5552228707332665 3.963358008770691 7.772262488691413
Pb 8.716911736209198 3.5992614385954633 5.17017464645569
Pb 8.45662849870594 7.681991474555605 13.207249079409776
Pb 4.357419349508232 13.235794224212745 8.031687633212783
Pb 6.002033330192738 5.520728585931431 13.07962667455505
Pb 6.893490039263686 6.616572414113109 5.013928172096193
Pb 7.810971628373106 9.51488181805976 10.363258655919317
Pb 9.003152414497295 6.485994438209377 8.750658843938767
Pb 7.144007744988985 4.662798749384281 2.237783103864121
Pb 7.305310480946479 12.324337127159623 8.170305610236777
Pb 6.2168923592146665 7.851213285541214 1.9820022814952936
Pb 10.638744671071901 6.435453105797763 5.834045819213555
Pb 10.333257730900515 10.308926524611163 12.453478684464287
Pb 6.423399848915439 10.214121786380286 4.312118866134808
Pb 8.901045036154377 4.779896210543429 11.588282275938726
Pb 9.572995003133876 3.1924297174864167 8.515536728126353
Pb 8.292105907817797 12.828193545225657 11.24714510991678
Pb 9.432188445105902 7.1230620559446045 2.6581907473141357
Pb 8.08167987230994 9.323788184724812 6.928074828752924
Pb 11.994581095194587 3.1958591690005287 5.9071673791211285
Pb 10.756145928943122 4.158772356406731 2.772178620994744
Pb 11.068374517931137 9.215689510673668 8.489566776623136
Pb 10.1551646000485 11.928433640819406 6.8121711328637025
Pb 13.118240217224342 9.935087638453433 10.924633736822644
Pb 11.288585074243317 7.16816002570288 11.194878167696118
Pb 10.122384319658712 9.808034143182534 4.403740415342037
Pb 12.190231867672782 5.028808644382337 8.752380458365824
Pb 14.114477402601587 5.792829802785094 6.028706655326291
Pb 12.800539814949524 6.847686659381404 3.0915485124673574
Pb 11.208359572899674 12.29782107775747 9.856720066430116
Pb 12.995730977477571 8.941417444058123 5.63986352527998
Pb 13.83885332487974 3.842001149633438 3.4442089369210045
Pb 13.989078887878952 7.790003794957023 8.591500228981182
