52
Energy = -172.98309071 eV
Pb 13.026330966304497 8.53025458860878 6.157718204761487
Pb 14.573640432633297 5.541226913035588 6.2309026060837125
Pb 11.418870147069306 9.399158956188868 3.452575580807175
Pb 8.983590127849675 12.648543876300199 7.600407973305676
Pb 13.021980864720089 6.281727164090816 3.5084652975345234
Pb 10.035750953160035 8.158241491819508 8.912880912172295
Pb 13.129324843378745 6.756863493871175 8.924742821780493
Pb 9.63161367612395 11.038985153136084 10.659836014535097
Pb 9.614694418904962 9.695997230483185 6.175598427735838
Pb 7.543524645402283 13.4033824169505 10.35198739628594
Pb 10.993000637956039 7.320227804937652 1.083285600113213
Pb 12.49488899872043 3.21073865470849 5.047788405429488
Pb 8.622225192451655 9.432641333166341 1.5299406071266677
Pb 5.786414695224458 13.36259988271259 7.580338646367612
Pb 11.135329881893083 5.768407591760136 6.415465887389308
Pb 13.029022212417534 3.623920818648705 8.310131911803872
Pb 6.927054175513618 10.310158930006606 8.820125314964912
Pb 10.149752793678282 5.034620872460773 9.922075954148724
Pb 8.900756636182848 7.132241031915174 3.968047002974671
Pb 6.9004579883758055 11.279044779631779 5.306638603382058
Pb 10.235975973510806 4.4260506571425395 2.462997367752675
Pb 6.77799258799327 10.731288622420374 12.33320800449316
Pb 8.825049732460876 8.091161944439122 12.087369009612352
Pb 6.36670444432444 8.233915135252385 6.141448929486618
Pb 4.480307473828244 12.030633055506962 10.31144033829133
Pb 7.872005343043866 6.3078423731561095 0.8865459692578713
Pb 5.929720015825496 8.451583046597626 2.843112308056436
Pb 3.9398061892230563 10.563739962958527 7.020449324429628
Pb 7.750525919744438 4.991583233562339 12.53058015438829
Pb 10.076184967759072 2.66046460409374 7.446515623314157
Pb 5.7303319014177045 7.45945299153982 13.172966681014257
Pb 6.8029945503019 6.70211516372537 9.84726972052188
Pb 1.580912129954218 10.795700030197974 9.61160607036287
Pb 8.344778003171676 3.031994191252041 4.6848124923378105
Pb 5.489279679509808 5.146297197055706 4.262986306548681
Pb 3.0093165580331154 9.765634175199 12.49053015689486
Pb 4.575569070532663 5.931435007730098 1.0849607729006876
Pb 3.784131428464416 8.211072848712943 9.800097095895103
Pb 6.4961034607653225 3.249716281557953 1.7415175890505927
Pb 3.531855681681281 6.610288532712974 6.634944250203022
Pb 7.341460978120951 3.264671750248024 9.828417296565572
Pb 7.948234591961317 5.286222613518742 7.1549224887145755
Pb 2.358911877530249 6.074953145313262 3.551497244789275
Pb 4.690657349774187 4.532548108525199 11.35721725656076
Pb 0.9503721302532218 8.136442855338291 7.815030399008466
Pb 2.550979688141196 6.515827550268789 12.689194722226802
Pb 0.45834040538503706 8.111281768953283 10.965615994417506
Pb 5.227413744571158 1.781619138238454 4.452712314507515
Pb 3.2736348998019436 3.217907697564223 2.2533822786280022
Pb 5.010938901966932 3.961951610234719 7.681766741401423
Pb 2.6265957349942783 3.4675679222319165 5.427771033631043
Pb 1.8799664383388408 5.45195662820765 9.501897200310589
