55
Energy = -182.42052636 eV
Pb 2.6107978171256367 2.074290461497359 12.882962271830309
Pb 7.732121045083505 0.5039534378995663 3.8170669676644877
Pb 4.172004409981816 0.4865079700691492 4.631262051996655
Pb 3.418011222551247 4.413984781241025 2.137986920590763
Pb 1.547514264135849 7.4284979977413785 0.8821705599031058
Pb 4.818740342700854 7.213615242445981 12.54192697557344
Pb 2.3394391679262125 5.13827659617905 12.080750850227457
Pb 0.10024341900365058 5.84550051255599 8.224184091801556
Pb 7.623444680132089 4.570361726331145 7.682577426645432
Pb 6.03436545524459 7.216236272970816 2.4802890313417536
Pb 8.612504027780968 5.795192624991644 4.502234409887299
Pb 6.614820459654704 1.4074280113562967 6.74801050624167
Pb 0.22110682602585408 4.170479451601604 1.1118588932925042
Pb 2.687057127110238 2.2912346692009185 11.166934616445502
Pb 0.5417265286536131 2.669802891436398 8.766073314340758
Pb 12.018532803104492 5.286465944264718 4.78077182542568
Pb 7.703768154011224 9.185170354629674 5.798560424990577
Pb 10.508565846716754 5.034804833376226 1.859220391859264
Pb 2.6413043413754225 6.880817746189299 4.4900161090758814
Pb 13.247921946910436 8.147794711565798 5.8637046616682955
Pb 1.6396193931681118 1.5068089522249652 2.554812070771088
Pb 5.701261861593231 10.121026131870995 8.049475330937852
Pb 5.365164204564778 3.830834040133283 12.722944799969012
Pb 11.32662695237385 3.171676250720757 7.208430878290321
Pb 9.333913572592014 8.138136377073897 1.9774997039709643
Pb 10.725555437192142 8.262434010847848 4.911986454933194
Pb 4.156794948864333 9.694980475792391 1.2779351952403506
Pb 5.408739461866719 6.993094213346314 6.7445379387754345
Pb 3.1479989289645802 4.973381238169272 8.939527289888586
Pb 10.049945438492534 4.5103381739930155 10.0003024074354
Pb 9.854449875463226 0.40756975583960187 6.3410474121643166
Pb 0.6929117808792519 4.155736153275833 4.43256652251119
Pb 3.670522209649025 5.270368795365793 12.080750850227457
Pb 1.5745996364874102 7.543404593881115 10.595113331157126
Pb 3.5626614215292096 3.539109958879116 5.982034722336691
Pb 8.044020608316455 2.8870250610561876 1.4675195554960474
Pb 12.58519743037188 6.871425536823447 3.1047834817251654
Pb 7.9062441677244335 5.96560385829823 13.141931008445885
Pb 10.490460244980735 6.463899130087274 7.515706069625883
Pb 1.161310757345968 1.252433192733508 5.867056708223586
Pb 8.80159175764775 1.6965087966316617 9.148294642424483
Pb 3.483061187950515 0.9944801651847233 8.184339501232799
Pb 5.711070923649322 2.7760967326932007 9.840964442749005
Pb 7.043667470925614 10.45913486492723 2.799668992436569
Pb 4.479175546942145 9.648461491557452 4.711986173271828
Pb 1.301533849589593 9.584957697407358 3.268156122004703
Pb 7.075294862999817 5.510058218539711 10.928739991134968
Pb 2.6455919409270776 8.596406584264507 7.7018702408635695
Pb 7.213056157360307 9.239509275830653 13.190628565989337
Pb 4.959559948926142 7.950115209869805 10.288276358700232
Pb 5.007802564489449 1.2957900284023867 1.601667034936382
Pb 10.399191135337059 2.5859002690766597 3.9938591250658937
Pb 6.208809408912076 3.4332196649265785 4.190929383977063
Pb 7.983749905712758 7.964222891820981 9.083101524466844
Pb 0.44751079553564804 4.660496399936221 11.330840033429157
