52
Energy = -172.70732216 eV
Pb 9.069126370247208 4.000920238806156 11.755058027907909
Pb 6.326056581040032 2.175475252722741 11.137130829799855
Pb 5.569375101563132 2.0027522882877284 7.978532176424143
Pb 8.781318275382823 1.9202719079562458 8.983132991323178
Pb 6.096354749521392 5.0953999336261315 12.748417126270281
Pb 7.911398503286625 1.0142404479238427 5.8722669319470615
Pb 3.9059565703903356 4.18596811492463 10.363138801729733
Pb 3.986191522406099 4.87087528302502 7.196694254236857
Pb 3.0538558811113448 6.455386188354202 12.54469015562424
Pb 8.751496472495443 7.194107642004277 12.896097181509388
Pb 11.661847930842345 6.162320874770976 11.841942258361197
Pb 11.126368133769542 4.234049147041394 9.22732258903947
Pb 1.5473199315972879 7.534829317324418 9.847296791148702
Pb 5.614825620408073 2.9725392223406106 4.725447421197327
Pb 6.9658756225483565 4.9222715502196115 9.123636909244025
Pb 9.506507521961652 7.324081948748295 9.488385293151893
Pb 8.647722687956353 4.056669297242517 6.3623917252414355
Pb 5.687614740512999 8.448036765717976 13.14514445770196
Pb 4.057808973854569 5.791249887026531 4.085785249540551
Pb 8.50555140536445 2.811050547873452 3.012658633489788
Pb 4.774517337459489 7.827710490852511 9.958233459687868
Pb 5.965645464834366 7.607219291648059 6.360063923125751
Pb 2.6487875243009684 9.60746617478888 12.09686903967868
Pb 11.523378967053539 9.432268524634233 11.388842120725505
Pb 12.90636734392755 7.408544504680827 9.083060196863537
Pb 11.439749078930658 6.025296298790906 6.5065462453496306
Pb 10.783186315551658 5.0440288473585895 3.4219304994849455
Pb 8.279787279667186 10.038548453331204 11.487765143656313
Pb 2.6918037249847395 10.609298951592146 9.026360730370923
Pb 5.240328743733116 11.316759021728974 11.13031671873795
Pb 7.623970855407715 6.074898568975132 3.907025820385033
Pb 5.864443103571514 4.415453453536685 1.622274149309654
Pb 2.776574697117612 8.090342117277624 6.873000505786889
Pb 13.898264523894396 10.549913241992334 9.295694990184481
Pb 9.496999632561616 8.478647754558693 5.826516821481547
Pb 6.906413271010848 10.124605666079399 8.437069253144296
Pb 4.569434193550518 8.877322586047232 3.5832437415829066
Pb 8.85717685389442 5.29067681845379 0.7358775891008006
Pb 10.544237696020819 10.556954397017348 8.220227319498058
Pb 13.060374264336957 9.29634234632467 6.299677071026767
Pb 11.821403524476606 13.00713764978706 9.87105529285861
Pb 8.401584007164711 12.911454958925995 9.519467908001443
Pb 4.454590411710111 10.798350226458272 6.113797880143759
Pb 7.6283686789228575 9.879973613952913 3.61579164832086
Pb 5.256973186062074 13.095532793851481 8.335129550071795
Pb 9.907000024421892 7.987375480890305 2.307809559094501
Pb 6.732785794707602 7.682358124589121 1.203022703880464
Pb 13.295195732809836 12.544698466779554 6.880501016890036
Pb 10.910862745041145 11.353855116489074 4.878290659129689
Pb 7.754518796517055 12.298139469951947 6.088608245295218
Pb 10.483904214949279 14.017974530773763 6.991769087788954
Pb 7.634957918861346 15.210162532353317 7.441672792078708
