51
Energy = -168.48783859 eV
Pb 12.850360515318917 4.750394173353342 5.056410318636968
Pb 10.617197049972859 2.3979039205666273 5.830399626901139
Pb 12.21877325773559 7.763442690314769 3.9714494959654574
Pb 13.776919702600765 7.338292649468168 7.106718398748582
Pb 7.7439549229579825 1.05321109061918 5.270933333367581
Pb 13.086754424849364 10.378402523096149 5.7504714242102954
Pb 9.968941233405252 1.5854828521950743 8.935507907622245
Pb 9.769508321191651 5.9002942819369215 5.2675109404820395
Pb 11.888540204805777 4.542093468277843 8.08003241453826
Pb 5.5716879263165175 1.948477576338229 2.9545737897817093
Pb 9.175030349512488 8.199555434793748 2.8416410155672844
Pb 10.642384278552885 8.465456622606336 7.215252485787913
Pb 6.725129269221925 1.0391909552161374 8.47963659102233
Pb 12.21966991443818 7.162601163146445 9.996557774116575
Pb 7.714308403789125 3.956424765623477 3.7178799675171126
Pb 10.416967376699326 10.933723601884374 3.9198730807310285
Pb 10.679793873673198 4.049848604389272 10.965840568564051
Pb 12.716824507759608 10.24768969350814 8.982580538114194
Pb 10.295506348125857 11.726879856309893 7.127119192202925
Pb 8.139364041724743 3.887087013237806 7.490594031524677
Pb 7.359606244093454 3.0954281353733415 10.829538968121701
Pb 6.344679243221355 6.177927472719775 5.989557840999586
Pb 8.817297485595832 6.692635693893268 9.569996456368669
Pb 4.306748167666605 4.867618980260108 3.7471839315594155
Pb 6.04771645746758 7.663600760791205 2.9965893731797975
Pb 7.765598235265749 9.436032009664133 5.535112440010855
Pb 8.363097668076033 5.559305165992485 12.633287222580433
Pb 5.03941818926006 2.6642593589602686 6.100870092054488
Pb 10.35912468933175 9.399064406325254 11.462747220861166
Pb 7.979245120568083 10.223678885146569 9.345444405904777
Pb 10.117576919728851 12.558186397759634 10.467378562025397
Pb 7.7504206234897 12.732954789119217 4.92347723689926
Pb 5.305883245967738 10.96486543204084 3.81738275221984
Pb 3.7866552291348543 8.330811728826124 5.4340527485186705
Pb 3.219158269714844 5.313198388956436 6.974256449263069
Pb 4.259857208240261 3.2700711452284965 9.518691617607482
Pb 8.013140684391587 11.36959449090696 12.657867834049979
Pb 5.34134260150597 7.486779133276045 8.848745973020161
Pb 7.568195723601982 13.516830837640672 8.1272008137733
Pb 5.282108415548279 10.793097991667317 7.344284762710491
Pb 5.047560426479361 5.277282224444094 12.006968353869171
Pb 6.94969912605751 8.323636655757422 11.933370325084418
Pb 7.280284919425913 14.157105049400236 11.306970439461905
Pb 5.186427271030235 11.435649710975675 10.801351561299121
Pb 4.664953398870811 13.921708408629748 6.230114237123377
Pb 2.603625533383827 11.45012192901033 5.409428313137403
Pb 2.4670996941192977 9.034911211495446 8.424755687162149
Pb 2.498368727678974 6.013507481311548 10.06088128987886
Pb 4.754417233300459 14.469188591630571 9.458523162326653
Pb 3.676274652547453 8.449479496726672 11.599744280434141
Pb 2.568776267761756 12.333656841874015 8.497534543380679
