51
Energy = -169.07361037 eV
Pb 13.16107886575405 3.760832354583623 6.4248879754990265
Pb 4.331222780079941 5.654486459562571 2.3612448205870478
Pb 10.496214426979472 11.231674495237797 4.978574177885322
Pb 9.711909235851078 10.08908982677236 8.329861146373396
Pb 12.780344059740244 8.363547497473608 9.007252129257523
Pb 9.907326612157968 6.817293627049872 9.730481608040877
Pb 2.663330833295748 5.090272696996244 5.060433838198993
Pb 5.139681125086419 7.553774124176481 4.792499548189558
Pb 7.472284693704768 4.644270157560887 9.280357445594458
Pb 6.694284395123104 14.649331529433034 6.72029263887794
Pb 10.119806278980159 2.7922877793698384 8.186033133612469
Pb 13.423681333074557 8.933186009841977 5.730308967008609
Pb 5.430778017400297 13.023204888509127 4.12439467382441
Pb 3.330207627051425 10.53977570200973 5.156016035437019
Pb 6.924928115810828 3.7664602034690495 12.526630353692251
Pb 1.697504009733945 10.7172828245784 8.063150663630859
Pb 6.861230957438927 1.8244384262893092 7.389329928685629
Pb 10.85089306487309 9.020520447672192 11.884683418007263
Pb 7.423767111864538 5.892708970756094 2.966728627644856
Pb 3.9169546847651224 11.00890836702605 10.499117065967761
Pb 4.99759105101059 9.447187898122838 7.86543390414068
Pb 4.5654452133434065 5.762115328510446 7.834466827248791
Pb 14.039480329014452 6.036088152181901 4.286063854455901
Pb 5.878134688600599 8.409430765862517 13.809358195354417
Pb 11.323509958723127 6.560542077820776 6.485852555270253
Pb 4.100515298333165 12.76448814967924 7.439081453692442
Pb 6.2548063144316535 11.464593072670585 12.797843137875155
Pb 14.875776128087729 6.4375027110916605 7.331365622877862
Pb 8.682930759951155 13.880883669156802 4.268328876445147
Pb 4.930122039389959 2.6563424530521824 9.995405846913595
Pb 7.305561925709046 11.228746969848743 6.099476914413585
Pb 8.727849612929658 9.915208249329222 14.162152785000401
Pb 8.560156643531943 4.550683887348909 5.828870252433023
Pb 9.304949337817241 11.776918235022805 11.505496878519377
Pb 9.641080350404462 13.311484422078639 7.364924749200704
Pb 12.741946558895991 5.046606353512101 9.438908421374174
Pb 5.35049410194226 6.275857292621465 11.355995752077758
Pb 11.13525980674466 4.529830495723137 3.8576432578355795
Pb 2.1284869885140876 7.854069319075112 6.636361370976143
Pb 3.6983519188428917 2.6710749700652925 6.962527508052534
Pb 7.995479067721729 1.5173874790098407 10.449798063552377
Pb 6.898605882528816 12.48678123856919 9.351192440989134
Pb 11.558888843876957 7.729982342944962 3.180747609202648
Pb 2.8822307950253863 8.009584604860482 9.815759282308626
Pb 7.411210539003952 9.048856269605094 10.88807103887696
Pb 7.858993986670353 11.093815199236811 2.8593854712346802
Pb 10.09821577597567 3.9092240067265314 11.31153003139298
Pb 7.61535142812615 7.385620711488314 7.2542081930059545
Pb 8.729174478774123 8.449588022620636 4.482960717032827
Pb 5.622575885992928 3.6827182905025397 4.6005787792293535
Pb 8.650161244837731 6.794662550566454 13.061515217622565
