54
Energy = -179.46149854 eV
Pb 2.8152032899801176 4.094640838793749 11.022962367097374
Pb 3.124616832631232 4.726040011421593 7.717248958199963
Pb 4.218262348494096 1.8699967548932583 9.064921611561038
Pb 3.293911566020503 7.393230896001701 9.64870344503808
Pb 2.491473180435231 8.120859460229582 6.251121048049931
Pb 5.147324608471865 2.079963970791012 12.142308868959034
Pb 4.137843378662786 5.83730672778218 4.461187512574512
Pb 5.035257442138033 5.215333492040377 13.206706252375858
Pb 3.455237148596974 8.93096947556807 2.968176274094976
Pb 5.895647656212772 4.702919743553336 10.011340392589378
Pb 1.6335019542508584 10.163438976104251 8.572105724722007
Pb 5.828180888650128 3.2985868302478836 6.57971654926838
Pb 5.8624662679578 6.66699886818616 7.2648442480983135
Pb 7.488872186903901 1.8865692686363618 9.686579327955085
Pb 7.619796083462873 5.429065884525084 4.397710893138774
Pb 5.902820212331173 8.05648974144459 11.349208519129439
Pb 2.7794848164995383 11.31632940631878 5.5714616564558765
Pb 5.731781574204057 6.449815163088003 1.7360886323926206
Pb 7.9253658329575405 3.552681743227499 12.788883816732756
Pb 9.667593931085127 2.5638965005697694 4.752935049238305
Pb 6.348081149097243 8.574693747378637 4.239668998906518
Pb 4.365138820559775 10.924883699267108 10.891371264776724
Pb 6.130923332363784 9.438868976100414 0.8642426087010794
Pb 7.804757987209403 7.006628716410979 13.760183491515146
Pb 3.251812080849608 12.89753633258519 8.610231027674113
Pb 8.738249070530541 4.4481037436137285 7.478755191163771
Pb 4.85880082072543 10.021754876128695 7.832366021181651
Pb 5.356943214029901 11.747745913377432 3.2219746359141745
Pb 10.245127343889113 3.822400343333611 10.272832798413429
Pb 7.739883476963248 10.573108747665561 6.353415083804977
Pb 5.417741739063336 13.26596476379579 6.318778420356521
Pb 8.949106104649168 6.929422757627123 10.412538768121307
Pb 7.438967091501807 10.418496734473868 13.123892455922176
Pb 6.924307015377379 12.969937252801985 11.194307915015846
Pb 7.957432108328054 10.252119248989047 9.632584257015854
Pb 10.546128031155256 5.589111835470978 12.926600374234946
Pb 12.12099639105878 2.9664709547548638 6.98728905741701
Pb 9.766995228585664 8.055144653579521 7.223395350988534
Pb 8.465223254007931 11.08696808500625 2.204794846851259
Pb 10.333669102061293 4.636939903414017 2.2766928710971
Pb 10.971758289190152 5.682451413749769 5.28969388796237
Pb 10.37801939417518 8.943326982874806 12.910029058419616
Pb 12.328060884665973 5.999822041876845 8.385268931121114
Pb 8.805330781530296 7.750790717227737 2.265910896750307
Pb 8.17634324978147 13.292904115506577 8.226073823679053
Pb 12.818487551654925 3.157776639427381 3.782210034716185
Pb 8.2104199568342 13.15085967851634 4.619164259241536
Pb 9.999301190070787 11.969089626686403 11.449051693628478
Pb 10.715342779878233 11.486034098260776 7.466019712505127
Pb 11.324191555350957 9.336975618923162 9.84090207345228
Pb 13.044390935410155 8.217195726941352 6.076116976741765
Pb 10.53657379836635 9.832063558380451 4.535610355575914
Pb 14.330493428181665 5.14575580641032 5.838194578734984
Pb 13.156051388687057 6.433108024062497 3.0993202873804258
