51
Energy = -169.36496374 eV
Pb 10.922753196157172 12.600872120960458 4.960960924896834
Pb 9.678713603739219 10.595543173757033 2.6725077821242165
Pb 6.7591151665815365 14.058782089524417 5.63024440654082
Pb 13.78389768453377 11.31616953039863 6.054349105143196
Pb 3.866053833235865 13.318502754420745 6.820276530061212
Pb 12.876157079263114 10.79840369507318 2.9389566894522883
Pb 7.928859750456826 10.859201374744998 5.536350429481437
Pb 5.022195574878518 11.75942192059327 4.254690813277117
Pb 9.280749661018179 13.824119917043813 7.663056687653014
Pb 8.171046722428859 7.893983365913268 3.910073908619538
Pb 11.076702274506463 9.388225365738219 5.723386935292259
Pb 4.922726917598106 8.506200958951219 4.13823656102328
Pb 12.14345145538583 12.6264610020734 12.000283266199274
Pb 6.294097059104551 13.85950142107277 8.926794790278791
Pb 11.456686074020952 7.756125685416118 2.8530430644644214
Pb 11.718776210274726 11.652744022107314 8.85456595066539
Pb 14.203667567182144 8.408859988407016 4.5846181718525845
Pb 6.032432156379315 5.412799073165284 5.374332632843653
Pb 4.550012907832545 11.091929893042375 9.17840626531879
Pb 5.928905129316222 8.478426603946062 7.3000373229785245
Pb 8.967336426646622 6.9479711573137815 7.041111114980994
Pb 3.10051420516627 10.145988791414247 6.393916384745774
Pb 9.126505714374403 4.862158123971101 4.5009396601577905
Pb 8.0607085492245 10.945058511659001 8.860002825810376
Pb 9.186997861599943 13.386233438521428 10.925693204280565
Pb 12.227166701874834 6.168019576096873 5.905185773904041
Pb 6.444561268218896 11.789656150056954 11.777103287496441
Pb 13.835030084306277 8.47527710599626 7.911905207612209
Pb 3.171992870813151 6.79311419433214 6.293056265921504
Pb 6.803564916228713 2.319620122494324 6.433899320622138
Pb 7.051314410558894 8.114588008905958 10.564264753603442
Pb 9.77623568742642 10.255188025233668 12.079605440342412
Pb 10.734538320967006 8.62604167916618 9.390877276733596
Pb 13.467250119405106 9.771753480032437 11.069919018335096
Pb 4.129990256105943 9.227296839328885 12.015553056527214
Pb 12.486404652628059 10.137771898390454 14.096716245544457
Pb 3.749745514488639 3.467127893888485 7.042592060881151
Pb 3.804622376817608 7.272482471089812 9.512773397205175
Pb 6.361966318678472 4.8744202113954085 8.636842576211162
Pb 10.31770314778732 3.9056472622676117 7.32541817588928
Pb 6.8962486979888755 9.119506356071977 13.805262774546643
Pb 11.689324645846883 7.325107084686551 12.405190362825937
Pb 12.450446513854612 5.818857274678434 9.198757581633153
Pb 8.453105780919882 6.179558196035367 13.296119438442421
Pb 3.6009833705616257 4.1176303874861855 10.321913003593432
Pb 5.247508589201704 6.2969657177973195 12.8253350535849
Pb 8.401037621568515 2.1536623770176386 9.257244136064239
Pb 9.898642766815025 8.563177526092273 14.947819508480192
Pb 9.325815827207425 5.473767997823822 10.178022622223631
Pb 5.204111763325505 1.5742082653471274 9.231420989350234
Pb 6.588617114842269 3.478612458718846 11.638950203815682
