50
Energy = -165.65258836 eV
Pb 9.729206479834655 8.904758682638015 1.7525115849801236
Pb 8.300764279148684 6.448815111788893 0.3942159855330018
Pb 11.462960585283152 5.97561503724104 1.867237128624969
Pb 9.07340338268653 3.6036552886364466 1.638388968667225
Pb 6.427327819171422 8.101361189546811 2.720237126252469
Pb 12.347490672392938 8.747017417099451 3.746698206492267
Pb 10.983306407086479 3.471593910718407 4.286827220589945
Pb 9.270260966959135 10.304761431693535 4.631489977966062
Pb 8.917692931072928 6.3632547454107655 3.815869774691918
Pb 6.053583032929678 4.94942662504833 2.0243768799725066
Pb 2.689946930891248 7.4228302766187575 3.934055608305942
Pb 7.471169566477866 2.838741692651814 4.547821452121823
Pb 9.515206874226386 1.7746005483512661 6.726296512148298
Pb 13.251604485974884 5.963794431411641 5.200853889504445
Pb 2.7314865347018014 4.200131275176829 4.223351424077828
Pb 3.311789227188203 10.422402290664298 4.762723251346915
Pb 8.722539449533441 4.927570572670982 6.893067154864742
Pb 12.046886934872196 11.131195756944294 6.123547817923862
Pb 14.262250819647912 8.81746472523297 6.617415027035111
Pb 7.436863563076359 8.201508558348312 6.632391713214666
Pb 0.9278607231913011 8.975969316386275 6.452179402412993
Pb 11.900408506074651 3.8207626303725797 7.497487184045573
Pb 0.480234334604812 5.87351884509561 5.768936575502736
Pb 5.5769859573376594 5.581287742980974 5.201563386579381
Pb 6.160726141030917 11.127136160366279 6.020408359752434
Pb 12.285721581222331 9.742817516406067 9.032996603075562
Pb 4.325994259239866 2.0501914433996875 6.020745429314062
Pb 13.223462326195184 6.591700007626524 8.682810285809639
Pb 10.882584429475553 7.883806217661627 6.673739620727153
Pb 3.999172330208296 8.113175954308186 7.052913977959895
Pb 3.359805244239027 11.636322864034973 7.808571158870334
Pb 6.699418601485673 2.353885944630687 8.375314104552498
Pb 1.3513425259986294 6.373896479647549 8.86651303404281
Pb 4.143663085408362 4.623682294636608 8.138420359741096
Pb 6.782792262927629 6.073267720648643 9.48725049627636
Pb 6.406579647099705 12.856169954219077 8.87782114113121
Pb 1.3328431447570677 3.0259832565865015 7.30289537478303
Pb 10.10671128156921 5.181589659400549 9.80807556104098
Pb 5.848393144336592 9.557341905899921 9.397035221467235
Pb 9.282545645449035 8.304751763898588 9.805378315427104
Pb 9.120915813923245 10.901978131429463 7.988019814523553
Pb 2.5346460427630637 9.350667953307326 10.038266600100334
Pb 3.599578388248908 1.295115076450978 9.07913426474869
Pb 3.958493607423741 6.496364224665006 11.297997879216084
Pb 4.08273056032363 12.282432083597836 11.0102952037732
Pb 5.265967194039489 3.3466425114905105 11.101832510947776
Pb 2.0602200190713176 3.6054305067386228 10.608034195653886
Pb 7.216503701857577 7.89144678972229 12.30792735605018
Pb 7.230168308995558 11.288706409792672 11.678624002953928
Pb 4.544938104183916 9.573324788458175 12.661208553125798
