55
Energy = -182.10427844 eV
Pb 0.8227486890801095 4.858016305705501 8.009538882194704
Pb 9.134009509806905 7.096931937441597 4.343213451021775
Pb 6.468845428615155 0.7445006153612547 9.52648854580962
Pb 3.5054660381632377 3.883538286133505 2.7704448422826298
Pb 9.210428056342812 7.29107580868309 7.745533456912687
Pb 6.640344512541186 5.837469222453979 12.655353353924347
Pb 3.5924325377727544 4.345249240839942 6.245556738924565
Pb 0.7820477754425841 4.608002309328892 4.486702508728702
Pb 6.262733812046518 6.281842302161277 2.750893090687057
Pb 6.3224520962556685 3.7619960837160424 11.317091056791224
Pb 3.6156286494149326 4.369527119183505 9.72127782067615
Pb 6.033208166951038 8.619460064894865 5.912089574883737
Pb 2.432808813993798 9.260685716569746 1.291141071825966
Pb 1.0001308346213524 10.111433051610934 4.266595418981027
Pb 6.339514173306036 6.697893183215448 9.42593532785038
Pb 3.730746675115186 11.13360958801817 5.879221347405194
Pb 6.207042880706401 3.1447216046485873 1.2141543407784763
Pb 11.920332827945984 6.176432597774193 2.7607839055569823
Pb 9.202249018770937 4.051114699667016 2.558970418817265
Pb 6.395294015453668 3.3704443846557006 4.565715283638796
Pb 12.888743218627907 6.442849501998248 6.025353482033192
Pb 9.224393909167638 4.333290344708639 6.1940457441249785
Pb 6.4546763168339805 3.5783126301898953 7.963929184251814
Pb 0.2625835926373339 7.365330930239227 2.7876337717487405
Pb 9.314125749130906 4.445118747220885 9.833263177021927
Pb 5.680571017128115 8.772891319052105 0.34278675737722797
Pb 0.43360487329466957 7.79859899575989 9.439972577207042
Pb 7.9888946233515385 9.789106374329842 2.8441937182996684
Pb 4.842228604235514 10.34705547749461 3.1109726257046044
Pb 3.5759816270261657 7.022173496689466 11.481389736806864
Pb 9.228763232132211 10.20966626323739 5.889398657982583
Pb 5.092283974225436 10.656298211702833 8.602199397984688
Pb 6.72870534953829 6.61696942498408 12.65535335392435
Pb 3.5618183432845973 1.1494844279581284 4.720163407656327
Pb 11.906021741916447 3.478107091559408 4.563820961999766
Pb 12.02550127805767 6.545982642026738 9.325435803816301
Pb 3.6274860691975355 1.3771100384695074 8.161948364751723
Pb 11.960514602035863 3.663306886388762 7.831381724417973
Pb 9.28540521700322 7.8454834392991355 11.007373167171393
Pb 3.514906166860289 6.278406692328355 0.6752797915631206
Pb 11.797782310116832 9.014484152292422 4.223219803447516
Pb 0.9804467521400745 10.34089803749977 7.556092906923655
Pb 3.2440135977404 7.311549728597844 4.094738987390375
Pb 1.0584895367283986 2.0458023462594763 6.437779704969859
Pb 2.6187553898319087 9.953566994656322 10.5192606349358
Pb 3.3089979044691 7.635502452942384 7.963937296488092
Pb 12.92831935484989 7.61506606415526 6.105307931804841
Pb 5.854217569693153 9.455056190542415 11.553008947156403
Pb 9.209440250920178 1.270494386358897 4.745494157320866
Pb 6.373228340866896 0.3590283783276562 3.368341789579152
Pb 8.209300102277874 10.150954947096384 9.01975769836069
Pb 9.265598168772485 1.4485264411130334 7.964977373058973
Pb 6.439452689011158 13.038464226630591 6.483879924089489
Pb 11.88416538559694 9.202857762967152 7.556319041451158
Pb 9.156428135856713 7.342570339762114 1.04959746639142
