52
Energy = -172.58509541 eV
Pb 12.91924210237315 6.9579819853066915 5.1452673103508415
Pb 12.34431481534467 10.072459739411402 6.064031883992562
Pb 14.943828111071394 8.407875982910463 7.298211503785372
Pb 10.300385075245366 8.843994918985238 2.867780041461228
Pb 11.366912855823024 12.749007701462018 8.00305213554222
Pb 9.477835350371631 5.609857705331134 3.6621859524953373
Pb 8.837833589407712 11.401286431301155 4.460552500257161
Pb 13.545108652222334 10.688192151777875 9.220242859445085
Pb 14.128874906171706 5.337296181503991 7.7604323275098315
Pb 7.914022886664377 7.293363198539575 1.1970116189579876
Pb 7.78755005095888 10.449579920706624 1.4361489563097096
Pb 11.800539837653897 7.744657997937257 8.714822116738237
Pb 14.356317202027888 7.185927508375103 10.482161482617578
Pb 11.036391987170777 4.590411730698365 6.769039654383321
Pb 9.112154170099474 10.49820947145232 7.907700139703176
Pb 12.33651925827596 9.581504131804715 12.02073383846363
Pb 7.064635383399702 8.558650923180394 4.326906115738374
Pb 7.69237834285036 2.8652463814288347 4.413101391659139
Pb 10.652100943258151 12.289515389226558 11.075041464469606
Pb 8.231466086187307 13.492406555447772 9.062989251461575
Pb 9.811114198562867 7.820849482199013 6.0246431847175765
Pb 5.581292582139808 11.524737026691891 3.4403779495409186
Pb 5.968455730105851 5.232221302549788 2.879563070439987
Pb 4.8942034324783705 8.697935324714452 1.9837996274223784
Pb 12.03224814120804 4.485652468104981 10.10209784191921
Pb 11.319626875512128 6.645801490524428 12.436682827609678
Pb 4.454887293740311 3.032174615701373 4.6144054665421415
Pb 9.240408661373499 2.850550619738294 8.925485360149198
Pb 6.105765513889118 11.77251949677425 6.749877528831816
Pb 8.871207280214268 6.095672259245283 8.917569090298652
Pb 6.21731884012413 2.1428932071083096 7.177050448794068
Pb 9.246662606331574 10.790290310778985 13.485848785900505
Pb 5.034750774846874 13.676262752548155 9.594331256834357
Pb 9.316457176591278 8.84993328651938 10.913790289884378
Pb 6.564022096495622 5.2979079058868646 6.3184403848599855
Pb 6.5138929571707935 10.741344791545211 10.041976621586915
Pb 3.7455233224127316 9.575108307658848 5.302810652531801
Pb 9.024570825732948 4.21617942902513 11.962561949879312
Pb 7.167105858215385 13.079195355773209 12.257166642718115
Pb 3.632445429250325 6.259119802165546 5.00430290824606
Pb 5.982288575714095 8.541379400092465 7.510576852676646
Pb 8.234514161045478 7.237613837043413 13.61560503955721
Pb 6.398307255106823 4.104705898404594 9.881423453289406
Pb 6.136590208254139 7.351517041784915 10.723464304601796
Pb 3.6680208805874974 4.1981859951275124 7.677562343066675
Pb 3.4570891348005013 10.792630211735165 8.802491569660763
Pb 6.066759679629138 9.818520031043661 13.184791663602294
Pb 3.878278605296994 11.99120308005173 11.988345438427352
Pb 5.981959467720738 5.047972761886043 13.062680450983748
Pb 3.183289413575825 7.508954052671112 8.550591827270429
Pb 3.296355518267071 8.73501472421575 11.732689685410424
Pb 3.447667817742361 5.4153126649966765 10.984858903682852
