51
Energy = -169.01494041 eV
Pb 12.071841464852135 10.267980401599674 3.4004495847224905
Pb 9.529696641030437 11.76768827494401 1.6751071295032471
Pb 10.15662926053025 8.668210420516976 1.371249906952895
Pb 10.396956589077334 12.723202185566835 4.607932535514115
Pb 12.210136554849859 10.212611398590084 6.834230286431682
Pb 10.966746147109388 6.715322503134942 4.06568716769069
Pb 13.418933177050596 7.1617617298822145 6.577974219567819
Pb 6.9138159877646235 9.637285183552434 1.8113798294794177
Pb 9.638215631750487 3.5280330427439206 3.638354668983152
Pb 9.0868253989175 9.644267790502775 4.4532143132704824
Pb 11.345335047403335 4.3377701265462765 6.381220396298607
Pb 7.054489272438813 12.49087581030283 3.7008697128156305
Pb 8.23900969588964 6.061774387592103 2.2093967934542142
Pb 13.503902932596601 8.610791914385942 9.465357855092757
Pb 11.019486001588584 10.429283971184327 10.368367241385942
Pb 10.313490607735682 7.580851725528396 7.401635356828152
Pb 12.40137344432347 5.512298012420598 9.370456249930585
Pb 8.136167121077014 13.46884637974638 6.646146332201413
Pb 8.086451847640236 5.820132944779289 5.5715326688618125
Pb 6.030803746053226 8.391107656993785 4.763631990425702
Pb 8.18036696928051 2.599954860844865 6.399731355380834
Pb 6.2981925154103005 3.5731555177387957 3.417923020330661
Pb 5.043326052022643 6.435645291703284 2.1889746889669603
Pb 4.076300718994906 10.828496535449714 3.9072162726154134
Pb 8.984354402711283 10.696948747054423 7.862839927765684
Pb 2.787064591215663 7.819064600791242 3.945199628392942
Pb 3.0849676976289433 4.413066236462499 4.247696664614652
Pb 11.695494613842992 7.491190438676416 12.015887264521684
Pb 8.89933950220283 7.7734121635176985 10.392794553966406
Pb 4.637036110370668 5.85870056007513 6.891576294205164
Pb 6.427521584254419 8.641784273677784 8.25947982975969
Pb 5.634436612421102 11.463778049080197 6.638473173148549
Pb 4.927396721875554 2.5061046588658304 6.208718292433899
Pb 7.658588322085842 4.8975014138049815 8.97853696503818
Pb 9.799051147081226 4.714147222310419 11.659632677370748
Pb 10.23689598857629 2.946731338809077 8.996705384142457
Pb 7.180600561495167 10.834271783001693 10.755608556662752
Pb 3.3482456797013724 9.106367888829375 7.025851708613394
Pb 9.280201491858348 9.780740836077026 13.035593022712474
Pb 1.3334351559966116 6.423943583051607 6.476321584296734
Pb 4.62940853063769 3.7878429729259966 9.60210405931172
Pb 2.1381400347410744 3.557733477416096 7.359154503343443
Pb 5.6910422774354545 6.8575551907646775 11.222580646482715
Pb 8.263166435734808 6.766955406266338 13.730069479039763
Pb 4.097196394797446 9.749439662618519 10.569241846287172
Pb 6.546781278766521 3.8849942121755485 12.399663972930883
Pb 2.7050992946397168 6.593778372007048 9.668760795306078
Pb 5.864993630927402 9.333740232263953 13.541850380508759
Pb 3.2136575613516256 4.723513596438589 12.413832519738099
Pb 5.197232478357331 6.166861644771516 14.534590430214463
Pb 2.9452498901347255 7.918054553349037 12.971089971621137
