51
Energy = -169.64345818 eV
Pb 13.887649530767973 8.41104596884686 4.5003502461288845
Pb 13.3484928077972 8.93363413869354 7.563702183808966
Pb 13.187636738072229 11.761701533447662 5.87436776633461
Pb 12.789452154957623 4.656950105122423 7.686705037881623
Pb 11.029620681664122 6.600910925098616 5.57026268804143
Pb 10.779448189630271 3.1174910948365455 5.515165229803225
Pb 12.96830830868749 10.837014337117512 2.518639293990254
Pb 11.057513239346818 10.959610078594004 8.719139251044405
Pb 11.48510000936765 7.875902332391125 2.359294871035441
Pb 10.833486087652966 9.902401280001923 5.056759778399367
Pb 10.724149686596174 7.456732451146061 8.761171446149287
Pb 11.467151815015217 1.8359805277435088 8.417047281645676
Pb 11.477048156845356 4.318098945002355 10.629092164520232
Pb 9.26998722826679 12.751802816649155 6.691863109083389
Pb 7.652066763327789 4.821443505235641 5.0819966230168045
Pb 10.820363668047111 12.917639634076261 3.7355901026776586
Pb 8.221095593303321 5.751244370282923 11.079842610508406
Pb 9.374974434255536 4.602868584184875 8.087006728705175
Pb 8.358691556393484 8.147922125225243 3.785778665344292
Pb 8.733639131821514 9.099934614689225 10.709648527245696
Pb 9.788833607074746 10.534454424947683 1.697658167359622
Pb 8.29972043319349 1.7452363148768009 7.246684120408229
Pb 8.258958054531584 9.548839312905871 7.159791266833541
Pb 6.598053543785376 6.446780542972661 1.6210176263808336
Pb 8.970960910213883 2.2273008186083283 10.44654679917957
Pb 6.148628940797531 6.174119332450567 7.877826125149872
Pb 7.771608180158811 12.071489860905897 9.692561520996183
Pb 5.265366922195028 7.075120218674267 4.708887942640541
Pb 5.222420582525598 9.321577054469847 2.3738812738752655
Pb 6.027866670665629 10.689561168648208 12.243686623929039
Pb 5.975109212296528 3.537514972819619 9.761763920593491
Pb 6.2988123025492975 3.8197016481063506 13.03186437670785
Pb 5.809664048351545 11.853278681074741 7.025769079632963
Pb 4.885522207972947 4.0704577198396965 3.0301358278196076
Pb 5.004229984123838 3.3468487031185252 6.1936077396044125
Pb 7.729215457863056 11.428912198851929 4.106773608741141
Pb 6.836877675334182 6.922175751055932 14.058305054400389
Pb 5.584798152032141 9.349423761654677 9.233578562721807
Pb 4.96409250259277 6.59186811344883 11.364486003841987
Pb 3.367386696086928 6.674485604777487 1.7770797415358126
Pb 3.0260503941287236 7.596464614144975 7.398982812308786
Pb 4.580045243509387 12.548765893417098 10.016854647327204
Pb 3.1462603258399504 4.709222450723441 8.433070981602985
Pb 2.5700542186115998 8.702014901551632 4.182471642837658
Pb 3.2363063034423707 3.806459292896778 11.805670583321856
Pb 2.384352327039352 5.41673349777278 4.746924477170234
Pb 2.842671259256806 10.702890014912812 7.917775961689514
Pb 3.919694101675723 5.483301435187613 14.50520029400235
Pb 4.0314669900029765 8.639536936692538 13.981471789407369
Pb 2.8568803974288604 9.960766148875349 11.144939059281992
Pb 1.9127959507742807 6.83375320610249 12.24657491552508
