6
Energy = -15.72736995 eV
Pb 8.086551409964471 5.342447158274317 9.334976284601709
Pb 8.986770366730001 8.060630938222824 9.335554128599599
Pb 9.380940155158738 12.490490690590306 11.080996027033214
Pb 10.787440029810433 9.684837480658489 11.11934062272445
Pb 9.121339567146881 10.896168800820217 8.370576617800774
Pb 12.009599021444856 11.843088643985004 9.205996411616203
