6
Energy = -16.49089908 eV
Pb 7.554806019310474 9.166987452062653 10.713660631208404
Pb 8.083270958066558 9.892792327424507 7.910209163871778
Pb 8.5298828953582 10.06422888683847 5.006180279982657
Pb 8.366815146678647 7.229025978348101 5.780963062068042
Pb 8.023101066537095 4.603503599734243 7.067341094489061
Pb 7.775036399101132 6.692290745549954 9.128852867444937
