6
Energy = -16.36033066 eV
Pb 8.915555794725984 8.286759287928346 6.29468673668726
Pb 6.30052607891417 7.249559163344392 5.0981990490426
Pb 8.694167362082528 8.825191559479624 9.76566833848112
Pb 4.12719270255425 6.241829753982119 6.9569510419896705
Pb 10.2430878710787 6.589605821494678 8.346210162566353
Pb 6.4944105968392485 7.531027441516663 8.279708822060286
