6
Energy = -16.73859383 eV
Pb 11.949992775736515 6.525030019567126 10.484297628936567
Pb 11.032764112948284 9.249588893911902 10.823087215391444
Pb 10.464955874722776 12.222772760126526 10.292458958664817
Pb 9.687717994509873 7.345732334948845 8.64544546257634
Pb 7.644021668137589 12.823007277227445 9.367874227034031
Pb 8.354258982144342 10.020660713743782 9.371183851215601
