6
Energy = -17.76949072 eV
Pb 8.894485179777353 9.239965775082833 8.884950674025506
Pb 9.646473392704115 7.20246982825498 6.761333647759821
Pb 7.980475326517991 4.689434058873507 6.849041884879311
Pb 7.013193974868381 8.624872255950764 6.062124098889605
Pb 6.8957107860188795 6.693245553351121 8.697475395944622
Pb 5.79989311370384 9.590567383156715 8.721059151665955
