7
Energy = -18.97763429 eV
Pb 10.419141391607564 10.003932565400705 7.9098028803784395
Pb 6.107265080274381 8.232782217313195 4.956729895259433
Pb 10.763246758829464 7.102320202938938 8.999173380210047
Pb 8.11389661366954 8.132676175204457 8.090131087503439
Pb 5.404561470814887 9.509602710053047 7.566767792343155
Pb 8.181324317047194 5.515104998565638 9.785443138424618
Pb 5.671388322341892 6.23639367213484 7.440084697443535
