7
Energy = -21.20825534 eV
Pb 7.66079051225044 7.476753957475439 3.678277368738173
Pb 7.015906143333291 4.935731669451773 4.995784722491245
Pb 5.500984075953581 8.222189748152504 5.519205956108505
Pb 8.024434981870899 7.086197986769283 7.234821372333337
Pb 7.194472886363966 3.556255117850807 7.564978967102558
Pb 5.240659468691518 5.665340748041779 8.148964320726272
Pb 4.862751931536251 8.557530772258243 8.35796729250012
