7
Energy = -21.24223623 eV
Pb 6.1643786070538376 5.82643647044265 3.952247906290843
Pb 6.628670890041715 8.633943524086803 5.5711750109015385
Pb 6.757520148238898 4.177090054582334 6.71883473413597
Pb 8.891011594665917 6.26693043790346 5.35130701628693
Pb 4.4521994393644535 6.431667064474931 6.489832542917805
Pb 7.649196275403138 6.946040670124381 8.129215445064547
Pb 4.957023045232432 7.217891778385834 9.28738734440302
