7
Energy = -21.15837709 eV
Pb 9.81579461875789 8.453303025609005 10.457723832217386
Pb 6.900563214125822 9.40512835401419 10.952984222913548
Pb 8.788578825602533 5.885878491244419 6.200206215221393
Pb 10.153184856511075 8.322705088363678 7.382808277790103
Pb 7.409243899617535 7.070442424075325 8.834536070138576
Pb 7.843177396320021 10.311736231279049 8.213319117728453
Pb 6.954671858639755 8.387065959314274 5.952906542531454
