8
Energy = -24.44532166 eV
Pb 8.617676378184674 6.505312812632018 5.640190052364953
Pb 7.82313572676254 7.677431288532526 8.616534465737317
Pb 5.603129811678453 5.118954132576723 5.87956580149672
Pb 4.84065296052762 8.030270765118512 7.2108883523098575
Pb 5.581842348292514 5.397988155330841 9.034024787739336
Pb 7.429022051703471 9.42768005618633 5.869912999468036
Pb 8.23860508365235 4.403652333027835 7.877709735840977
Pb 5.858532298541269 7.576749824827131 4.01535343012027
