8
Energy = -22.37327387 eV
Pb 11.579759034164804 8.048099055456966 8.247810147959727
Pb 7.036896786921596 6.1315894364756645 10.00179170332668
Pb 8.562621083459241 7.983726089627053 8.020347150465833
Pb 7.329721687855797 9.835971335631905 5.018207262160399
Pb 10.077525049999066 9.898332889785003 6.205017688544897
Pb 5.6290032429680865 9.005221907095185 7.383397857408021
Pb 4.528431916880057 7.940389288805437 9.974258678235397
Pb 9.957195611112112 5.6621897236449925 9.66186618099853
