8
Energy = -23.69307708 eV
Pb 6.309937802649311 11.305977281403054 9.300103564499691
Pb 7.704963948258038 8.92558936852018 7.7194273833753595
Pb 9.21032801305797 11.887268779635354 8.703114405386204
Pb 8.074555165136099 9.546614910030748 11.035263671461431
Pb 10.38072492748322 8.912372417168594 8.882995517811423
Pb 10.993184540973806 10.92029392861024 11.260122999833932
Pb 13.045685994648611 8.502371644834005 10.210867206553614
Pb 13.631656999386935 10.418386061138296 12.410755149711251
