8
Energy = -24.76361736 eV
Pb 9.50608646598232 9.655745138930712 7.660611498043341
Pb 10.010603507735732 8.619519805490025 10.658751316977204
Pb 7.295929879250836 10.066380620955183 10.048338916618757
Pb 7.681721843657634 6.896980665699401 9.277674100732602
Pb 6.314770825949842 9.082306165484864 7.286634552852836
Pb 8.593371421660141 6.917682623891462 6.147260585454426
Pb 10.81036946765036 6.711614243175459 8.296637055151288
Pb 6.12828189017128 7.68856405999966 4.669402244831833
