8
Energy = -23.96529991 eV
Pb 8.311397356937645 10.239322043113757 7.712567787346253
Pb 10.421043140895065 7.7074689358314785 8.670002707441482
Pb 7.766106776824025 7.237273840182729 7.326700726741262
Pb 11.087199997533823 11.35319383440379 9.13904789561029
Pb 8.019650133547351 11.739063095925829 10.40922370605933
Pb 7.06880808385704 8.552143373060455 10.133500403245007
Pb 12.654775119501377 8.853707348169186 10.331963329760212
Pb 9.91499746754954 9.561805605958526 11.520971520442032
