8
Energy = -24.61856578 eV
Pb 9.754558886151747 6.619132335278281 6.865307959672412
Pb 10.758127826613993 9.574323268729392 6.2554285002920285
Pb 4.98346515304634 6.414349770389256 9.59809002582098
Pb 9.079379636259107 9.251652682064211 8.66411812339716
Pb 6.665046717494782 6.731821731283218 7.1947002660361115
Pb 8.106438040907115 6.679826381751813 10.114258813449116
Pb 5.984738961010991 9.368577893747736 8.979581149076155
Pb 7.628452414084569 9.315077162412205 5.748548227219229
