8
Energy = -22.72731162 eV
Pb 6.090607485578893 9.4701411583928 10.666648843114803
Pb 10.090970036892863 7.977041606941639 7.534317080269177
Pb 7.316708182604116 7.448645745070801 8.64052894825875
Pb 10.956922917000371 11.597545811733799 11.713441256792628
Pb 12.108935975854152 10.289306901350061 9.232765693656571
Pb 7.8812683602066125 11.499667671725245 12.183712796082114
Pb 9.084221218431093 9.61634721837661 10.113463016989147
Pb 12.789705922269556 8.81364741113645 6.812651836740991
