8
Energy = -22.4168222 eV
Pb 3.847481421533216 6.0645681688363915 4.520709801088069
Pb 5.993346042111524 8.210764589486953 4.513290449478621
Pb 8.203173664239346 5.996538111641594 4.509129638531629
Pb 6.059479485838521 3.852475862592362 4.514172204972014
Pb 3.858414966790265 6.0650264534373 7.552346045758384
Pb 8.214056606225219 5.996997696386135 7.540766993592593
Pb 6.0020860714898 8.2091163147205 7.5474811936370285
Pb 6.068220399448858 3.8507726676860896 7.548362934173639
