8
Energy = -25.07080709 eV
Pb 5.049235190693027 5.953735281449089 3.9336402045795142
Pb 8.06656099479824 6.095717263111173 5.067844441996919
Pb 6.335367300321843 8.770593080169881 4.5461834557147185
Pb 5.880312922762731 4.025762040900702 6.423909672265608
Pb 7.895955256986913 8.449210239364259 7.381804869527414
Pb 4.997651566774226 7.116821208070575 6.823099013606613
Pb 8.16624196939033 5.365952801650773 8.252193315215742
Pb 5.608674798272535 6.2222080852836585 9.571325027093316
