9
Energy = -28.28786103 eV
Pb 7.154355757671861 7.882089932635963 5.937328399825589
Pb 7.917606491849846 4.745788663812765 6.296422792677212
Pb 3.8860543174515527 5.453754074329471 6.347196862722219
Pb 4.810398669114754 7.219549919064002 3.8628625134783707
Pb 5.644692009511167 3.9001399103781846 4.220279939921823
Pb 5.646159910566048 3.1627144030600216 7.536878326933723
Pb 4.364364869686735 8.485984745714408 6.966757737412978
Pb 5.9617761875286135 6.20591148556949 8.59997755786363
Pb 7.767851276554464 6.097327484844463 3.3855563272198417
