9
Energy = -27.6632034 eV
Pb 6.78827739562648 8.297350845362386 5.390320846001339
Pb 9.634078288864927 6.210375183149127 5.126516265688497
Pb 4.510956969442493 5.91380264428219 4.809713827785886
Pb 9.670856372889919 9.106277099956461 6.038450279041093
Pb 7.1648971114756295 5.065233039878401 6.348986184531389
Pb 4.77805228890464 3.701929711061571 7.515855366181692
Pb 2.497639626363923 5.681789176329997 7.143403300721495
Pb 5.056430944078797 7.204980672190104 7.912965241472019
Pb 8.398811002353996 7.318261627790281 8.213788688576965
