9
Energy = -27.35447819 eV
Pb 4.75424789504761 8.38738949421642 9.469585109764061
Pb 10.402953369101557 9.678983485502265 9.763108400636563
Pb 7.666227828838374 8.592023948276642 9.870318803899464
Pb 9.442953373390232 9.299570972324037 6.866288655521651
Pb 6.088165535406122 8.569898385666763 6.708335718599277
Pb 10.545806767026717 6.789005842188718 8.698205105631903
Pb 5.9772058225942715 5.760865447574276 8.43686312311545
Pb 8.458756481672044 5.911904750771656 6.6108758213931385
Pb 8.06467617308465 8.00730020546794 4.451610960750727
