9
Energy = -27.1473672 eV
Pb 8.264553876013297 4.814478708327659 5.958775223718156
Pb 10.922645829228342 6.531929552863041 6.239990574254442
Pb 10.23967518946989 9.23665761774701 7.760857928763699
Pb 8.105153028401181 8.044299756417347 5.6078808697559515
Pb 8.799193334010893 6.475693515341044 8.710651421238133
Pb 7.210078861996473 9.340147395401615 8.48142822840623
Pb 5.863065321510867 6.308898927940618 7.267265008342222
Pb 4.378605517211795 9.06184298625221 7.126363316201472
Pb 5.032610592524953 7.672027050879747 9.983464440042143
