9
Energy = -23.64901105 eV
Pb 9.625357414534534 6.693253858288197 11.775991738808619
Pb 9.331404588358646 5.454690943755568 9.024081854160166
Pb 8.20979186305997 9.190216349764682 10.79961469280662
Pb 9.189360568851658 4.270976139712245 6.240352225787634
Pb 7.981299233293207 7.974690578582253 8.039619499638556
Pb 6.732121801974834 11.657309191945165 9.840598750599373
Pb 7.815249159714984 6.791260376046754 5.260466110774172
Pb 6.569733811331243 10.463101081258005 7.061703324298055
Pb 6.366339027567532 9.26395804614892 4.286645546318337
