9
Energy = -28.2459176 eV
Pb 5.970187355667228 4.782058014075917 4.920928981204534
Pb 4.674544040013501 7.3518649586312 3.824951829697655
Pb 7.147516576803782 8.140202403697863 5.473537678788508
Pb 9.085129314650821 5.55095213937419 5.50981794019652
Pb 4.15550039660394 6.819246506382325 6.824268637153956
Pb 4.706647882860811 3.877366962938512 7.580586195891341
Pb 9.246237560428733 7.816016294548748 7.69912889313709
Pb 7.224216710293609 5.547171711361778 8.143476298154939
Pb 6.290020162678005 8.615121008990023 8.523303545776148
