9
Energy = -28.06653501 eV
Pb 9.519946529678622 4.569789370659255 9.074967224870736
Pb 10.76937076672119 7.291064599936503 9.019581656585933
Pb 7.3691098903873975 6.728708745789757 9.759153596454688
Pb 8.500965606177205 6.107460094004812 6.58295566468321
Pb 7.64916794056398 8.723537601828554 4.872885444506069
Pb 8.714261409742084 9.178951011328117 7.889143526027713
Pb 5.593166357548684 7.840770349835629 7.092064099390905
Pb 6.0324384687178565 9.69854178142317 9.60160903096871
Pb 6.538088086042114 11.004264070481248 6.76057918388779
