9
Energy = -26.24193616 eV
Pb 10.242356047913502 10.044725181815426 7.562044363377696
Pb 9.087845100100296 8.939583883763204 4.975810950720799
Pb 9.55887184039591 5.094852084208777 9.438109539614143
Pb 10.718910589941249 10.44305404806442 10.440935355761628
Pb 9.60566382597452 6.752486042983577 7.017379399063933
Pb 7.839229911590148 9.9016423214921 10.275259099820982
Pb 7.074387480144698 6.6584215536223175 9.601087996471323
Pb 6.917789299830182 9.037987653301952 6.9916077376434655
Pb 5.1053102610776 8.955407548343743 9.333475637995983
