9
Energy = -27.1714784 eV
Pb 10.810542028438869 5.828635276508984 7.16206897201086
Pb 8.337731605265358 7.530968559983286 6.19417146369223
Pb 9.306714713722252 7.291016432261316 9.408975166949743
Pb 8.313815271615587 4.380801194149222 6.027044379939493
Pb 8.014210667636059 9.95902579402799 8.281966282280072
Pb 5.516314279542042 5.648913135645189 6.189372505980108
Pb 6.142882889546704 7.25160684744921 8.857182397112132
Pb 5.507678571144298 8.870822995241108 5.9960011674008875
Pb 4.993615387008624 10.181262407578444 8.826259389417496
