9
Energy = -25.14516996 eV
Pb 6.896142807393554 11.813809941392224 9.202329933148368
Pb 7.038341914759629 10.623026738535803 6.323570552721011
Pb 8.627697034974847 9.136203744100456 4.316786546679558
Pb 8.850418911171959 11.163009963744214 11.419543918041246
Pb 8.492503284521172 9.152686093780252 9.060051654847921
Pb 7.881898856828185 7.319990754059419 6.48844381989782
Pb 9.87704102541244 8.291823976307626 11.860456092934248
Pb 9.921252026890214 6.4070492382479465 9.404660778072788
Pb 7.740240212966669 4.8319591362183525 8.052095675006884
