9
Energy = -28.02946768 eV
Pb 6.770805656670914 7.235390587821088 4.819376396113259
Pb 6.259385600853757 4.105281130610053 5.385833192145321
Pb 3.7979157843529547 6.404731526050409 5.690217402562333
Pb 9.60643944372631 8.148052017608178 5.148433226433339
Pb 8.948109517569305 5.495253146745251 6.657378018180886
Pb 4.047006434010678 3.8484764200348716 7.575417236016049
Pb 7.9607495415531995 8.496492778227754 7.856758402089698
Pb 4.961185945999874 8.88447442734961 7.154159064642475
Pb 6.148402075263399 5.881847965553305 8.212427061817426
