16
Energy = -62.05425135 eV
Pd 5.847652005900124 4.0109775344505465 5.39627775348043
Pd 9.149589772316721 7.148666689518348 9.801324773072528
Pd 7.6874963142299135 5.789559674904207 5.041485605991214
Pd 8.531019656860702 6.155770908681626 7.479443463370239
Pd 7.2908452320144015 5.198292564365979 9.603949580179254
Pd 10.672660065782852 9.734049510304082 6.417811533683146
Pd 4.509675252108423 9.16467690583172 9.559870302943242
Pd 4.5669283933358935 7.902520627735327 7.310771942872194
Pd 5.072089862175638 6.547330467434138 5.076648404087382
Pd 6.284623332785807 10.03253041505666 7.840145274657295
Pd 8.69735464880757 9.035054629914491 7.928233601355638
Pd 6.9350616426507 8.101905171558933 6.16551075648762
Pd 5.927352221486459 5.6070526012814765 7.415262261793755
Pd 9.402817955665466 7.712170258307708 5.402566319965395
Pd 10.844950396888988 7.450746972930732 7.693403190612496
Pd 6.636103566947114 7.686317460527686 9.079283595441828
