17
Energy = -66.04905214 eV
Pd 4.92674565549508 2.8711216494217715 5.5732332566670015
Pd 9.51332378502172 4.83573083089751 4.6672631488482645
Pd 7.260520160910352 3.899707486430296 5.418814303101026
Pd 5.020731704312326 5.40639070469291 5.063119338533588
Pd 6.779402030652304 5.720133459651972 7.193795518064618
Pd 9.308606668407142 6.082885148424534 6.877753299552036
Pd 7.504009697544291 6.469262259954085 4.576980998759123
Pd 4.726325662500289 4.271606349390659 7.685028563028645
Pd 7.465874629998431 9.002806061132999 4.043247850051239
Pd 7.950357160172379 8.32859276752398 6.500858575106341
Pd 5.483811501533416 8.03825527274467 5.416322546779748
Pd 5.442595083543682 6.130543045552503 9.427623244300758
Pd 8.08918096607829 7.163280042934707 8.994456002304585
Pd 3.1192963054387888 7.164713932887317 4.829946848234256
Pd 3.977507292596674 6.793065379299286 7.261625193491595
Pd 5.794863229370869 8.4308953111743 8.08713741603562
Pd 7.954422793736398 9.721695402971125 8.703359054721663
