19
Energy = -74.28028211 eV
Pd 4.438538024136373 7.821546329262548 3.1585127331344762
Pd 4.193111672095155 3.4109347576983624 4.595770554670653
Pd 6.723675344316146 8.562013295378554 4.058412303847996
Pd 4.435127402797496 4.541945828351776 6.926064310745147
Pd 9.042375362237012 4.820907663927505 6.332761576641765
Pd 6.7083322109190116 3.8820812516108565 5.217535488992937
Pd 6.368671301993797 6.649708792760091 6.8938678638484
Pd 7.696248231441673 6.273202340750574 4.594983254596967
Pd 8.373947486990264 9.778687969141288 5.539393778849722
Pd 4.77103695663002 8.433468647471155 5.73172396966767
Pd 7.526509214001518 7.399641670752646 9.042699996318438
Pd 6.631950077696185 9.297359937726851 7.337534437570738
Pd 4.988635378954006 5.903143484940471 4.750888794066839
Pd 3.933077359168297 6.985023422721991 7.774630303269362
Pd 8.914025088482138 7.4927742932636985 6.582814281176168
Pd 7.83983098982386 5.0650131048934215 10.092975293773444
Pd 5.21706455037037 8.528604486095977 9.330329370448585
Pd 9.73749639675811 5.9854461120298375 8.61046069735472
Pd 6.9543214935358595 4.349008707034357 7.801009084667151
