14
Energy = -53.54497604 eV
Pd 9.270364539779635 7.5340692305798385 7.195364835630442
Pd 4.780560810210408 7.527065587028595 9.609802619934934
Pd 7.076183497021974 7.615060952374138 8.526477290400317
Pd 8.113944882864224 5.222362283636527 7.633189239650747
Pd 7.248843507895836 8.737721859751444 6.014493865878385
Pd 4.76029341847385 8.44493112666377 7.232579625209992
Pd 5.557440555832443 5.282519805894252 8.70975522716253
Pd 5.037303234240803 9.492354581825957 4.937414319777659
Pd 8.295745369042868 6.35478977316489 5.134238189279335
Pd 5.730064239062963 6.28088390523917 6.391263910443344
Pd 5.895947336028091 7.26390608400454 4.081541621893935
Pd 6.642967139683774 3.138682866141027 7.886361188348197
Pd 6.676875196053237 4.098373924938748 5.535346198499567
Pd 7.073648669360157 5.156465361842551 3.2562007820683894
