18
Energy = -70.10064301 eV
Pd 9.769846102249549 5.8307884596142845 7.630199788662966
Pd 5.169747745698371 6.546308021097417 6.89031700077243
Pd 8.742496805254724 6.480678562765944 10.054963827158925
Pd 7.61247313044742 8.887206219040943 10.087888770557827
Pd 8.179116752481846 7.977709180691422 3.8831325741900176
Pd 7.321567751070137 4.888661204521538 8.37714673657281
Pd 6.409296462557352 8.577029961323849 5.780417263891288
Pd 5.971467956911404 4.094656246439711 6.28817873568709
Pd 7.530468222126231 7.500326703329062 7.918690684178296
Pd 7.929693401335175 10.01859329514498 7.592763298271363
Pd 6.011527270212286 6.725276559670826 9.840680214524753
Pd 4.660787042983989 4.692797204950572 8.698855778073044
Pd 6.55534399069187 10.047289739284103 3.6726023277444324
Pd 3.621196734735829 7.069811878541913 8.90964344709028
Pd 7.627536460943054 6.071002537180354 5.637658748572026
Pd 8.657447711435657 3.782453306529508 6.387639130586131
Pd 9.42881217354749 8.065476165665011 6.28303854931781
Pd 8.704225262285979 10.306650277650688 5.1132949876440135
