15
Energy = -57.35338478 eV
Pd 7.853959935868178 8.020487761721286 5.7858019388245365
Pd 5.267163668517103 7.318056825541655 5.430857743026638
Pd 7.304725231964013 6.53627752241958 10.127767222181083
Pd 2.7063043627037597 6.287295309953751 5.273511034590492
Pd 3.9164465690201182 6.284943115321253 7.484857858413972
Pd 6.151037654465819 7.718988447048516 7.936167292418632
Pd 5.025611603520196 4.694690777308488 5.566678183784937
Pd 10.173009035378211 6.33327457111287 5.9949899053835765
Pd 6.272109963000847 5.053812695841412 8.010084477936841
Pd 8.568897663603513 6.516080032298677 7.925717524955749
Pd 7.620826530691638 5.379847951638107 5.708192217415799
Pd 4.185168090303955 5.715546960414852 3.2439471422590436
Pd 4.744699319281489 6.32415712035025 9.888116275845949
Pd 9.110434336438791 6.893710550807762 3.7157939928715327
Pd 6.645111814301957 6.301488496253742 3.5034294619474986
