16
Energy = -62.36220577 eV
Pd 5.150249983305504 8.245398369838988 4.636222720723377
Pd 3.7235700057137313 6.216308390876572 5.887992320448481
Pd 7.468039972805809 7.198931029235327 3.636533486549527
Pd 8.999660997697289 6.139951579450269 5.642398563253738
Pd 6.392429408422757 6.22069224369847 5.8687478765647105
Pd 5.125030913201346 8.03172152737202 7.334644975778142
Pd 8.311560152274184 7.589587642111711 10.380509784197766
Pd 7.449084412720215 4.421774731976647 4.141974330062358
Pd 7.833095166232984 6.5367545848706055 8.055494054375066
Pd 5.237342129957298 5.2715923944526955 8.00776202471054
Pd 7.585736789980965 4.110618066957825 6.878351457759269
Pd 5.8057737089129615 7.172955073392318 9.73730738489394
Pd 7.549680657141428 8.550109877005445 5.996458698134828
Pd 7.217192447862261 9.118425765563991 8.548324222944807
Pd 5.134739000814973 3.8824477822345798 5.673958807460837
Pd 5.142118939662862 5.7012631935144045 3.5714533034791245
