17
Energy = -66.83212458 eV
Pd 10.62510908597773 5.85175063830109 5.998476992836653
Pd 8.122992828810471 6.5381069532288665 5.76293463230833
Pd 6.557700603949587 6.982035231702776 3.755562230132908
Pd 7.3984010519758465 9.093133453632866 5.1538688912447945
Pd 5.507566024818512 7.388984810136588 6.062117111626574
Pd 7.713806180151243 8.168455363112315 7.909075593985247
Pd 5.815434095745723 9.793396457257876 7.340585105740894
Pd 5.2944528952078995 6.377832704219526 10.608509287176052
Pd 4.568649921096493 7.6388555353353995 8.426173267366085
Pd 8.518063011647223 4.474058406099076 7.3142579240457275
Pd 7.8705076196902315 6.734115319500743 10.197491085932791
Pd 6.4865977050306425 5.79467529892808 8.209698023564883
Pd 9.877763541772538 8.418908957593485 6.319737894399995
Pd 9.709654122441686 6.53279595127067 8.335737106581973
Pd 6.125028904258389 4.852375872918671 5.7768192646299585
Pd 8.417563913993481 10.537110500719542 7.056512758699884
Pd 6.2437664613321315 8.872441845357526 9.959595683552562
