12
Energy = -45.42924123 eV
Pd 8.727738007502223 8.46444241318422 7.352265968244784
Pd 6.0168144700478186 8.804633128105195 7.302974873841705
Pd 9.25059873006554 5.988221785212344 6.674009960578066
Pd 7.244130114037108 6.53150005712486 8.316536781800545
Pd 7.301860694553856 7.331369889786473 5.499422629258567
Pd 4.858675258189248 7.228392283579772 9.144597402494815
Pd 4.987300783550781 8.313395974640006 4.865134801491845
Pd 8.270369998196667 5.2235462443392775 4.285065701682562
Pd 5.370741531019743 4.700705177937969 8.569498064348853
Pd 5.61943065615083 5.760225817357674 4.249192236124072
Pd 4.792240478115285 6.404641308972836 6.66925469796486
Pd 6.860452469177145 4.625843413308447 6.39494088388481
