11
Energy = -41.06588565 eV
Pd 6.817642205027528 5.545195771978414 4.421013608345774
Pd 5.418280076507329 3.7696713246723936 5.9291215854083035
Pd 7.911342028237163 8.034796418882513 4.553813726640633
Pd 9.21670600376518 6.13889118629934 5.62464732348132
Pd 5.708720689585204 7.418493730284202 5.888383210340012
Pd 4.107272579683608 5.653605068169877 4.8392045469865685
Pd 7.857685562035227 7.953651852550074 7.2759502296889815
Pd 5.250135624670479 8.378275872557381 8.23466295196617
Pd 4.60506766385711 5.775418975876873 7.5992750422729385
Pd 6.665263204826301 6.562958195291037 9.30266582256656
Pd 7.131000511552307 5.458157770989254 7.020378102049764
