11
Energy = -40.93352148 eV
Pd 5.830462308813833 5.9148266613131035 4.339666925407125
Pd 7.213743409936832 5.194710464051484 6.637378681725284
Pd 5.754115289819286 5.996908429142811 8.714780455787698
Pd 3.4848167872734557 6.747716840975277 5.134876536607553
Pd 8.349633281158473 5.22909822362159 4.251135061586276
Pd 3.346573281606431 6.731512518633514 7.817674373859584
Pd 7.849199933184571 7.426353949599988 7.917824655848551
Pd 4.597246429218613 4.821275766777796 6.506941809780173
Pd 7.787339580790132 7.609893208937154 5.163182220193306
Pd 9.66136275395588 6.212459493714036 6.373179977096752
Pd 5.554924936935023 7.5446624359257735 6.572777113570962
