12
Energy = -43.20850517 eV
Pd 8.35092753 6.513319725703667 8.35092753
Pd 8.35092753 8.35092753 6.513319725703667
Pd 6.513319725703667 8.35092753 4.675711921407333
Pd 4.675711921407333 6.513319725703667 4.675711921407333
Pd 6.513319725703667 4.675711921407333 8.35092753
Pd 4.675711921407333 4.675711921407333 6.513319725703667
Pd 4.675711921407333 8.35092753 6.513319725703667
Pd 6.513319725703667 8.35092753 8.35092753
Pd 4.675711921407333 6.513319725703667 8.35092753
Pd 6.513319725703667 4.675711921407333 4.675711921407333
Pd 8.35092753 4.675711921407333 6.513319725703667
Pd 8.35092753 6.513319725703667 4.675711921407333
