19
Energy = -75.83671067 eV
Pd 8.736340884531794 5.018951642856785 5.387543251520612
Pd 6.223857677874796 5.422345828426918 5.9490532680850405
Pd 7.910089192121325 7.559910315734432 5.6640067352079475
Pd 7.188582257339397 6.196000968827815 3.4866066317293463
Pd 7.515155503357681 3.490742220331353 7.372327403744416
Pd 4.9221731218697995 3.3884289760532766 6.805828210026013
Pd 7.041494635692877 8.89148906021835 3.5460963745722642
Pd 4.544533545370943 5.446447310321936 3.9660391330321314
Pd 5.17678360482758 7.457203929274866 2.379238891059284
Pd 2.874400914967843 4.206445263430974 5.474092094338281
Pd 8.21324900080664 6.052022200637503 7.797046804526484
Pd 5.0474611619311025 7.785427737198045 5.027389599474972
Pd 7.739727734635183 4.405632132998986 9.841045916178839
Pd 3.84356681486623 6.180174327659853 6.803233058838992
Pd 5.509834618550749 5.18129997155095 8.630540768597882
Pd 6.494770250962504 9.729474609976105 6.098755984366522
Pd 5.756432578789967 7.7129382109645785 7.645345310957696
Pd 8.103535784847836 8.72500899091853 8.075854148719387
Pd 6.988486893746894 6.985668639190124 9.896726740157353
