17
Energy = -66.33862062 eV
Pd 10.29653171227515 6.369473362139617 8.118843788224556
Pd 6.137512537166883 7.878235713762651 9.816644647954165
Pd 8.983926286895281 7.439416278400553 6.128020342033501
Pd 7.971525798081667 9.790382264052473 5.4900744731778515
Pd 6.7886160659093875 8.208765843901224 7.260263322393391
Pd 7.776053722381952 6.167914323402436 8.702365951188364
Pd 4.343754184128706 8.647916810303498 8.014747747776843
Pd 9.440178771080495 4.849111572753179 6.109538106262911
Pd 5.289433140544376 9.586807634406503 5.513104039068104
Pd 5.0661395842337935 6.088592747807186 8.26112715891729
Pd 9.082082631503841 3.938669061104842 8.48041871131145
Pd 7.008395505579502 7.57422188119784 4.401904798902074
Pd 6.952896120409422 5.562360072477354 6.04315194466136
Pd 6.528090260319799 3.8479564811970772 7.908971184503397
Pd 4.670372911328471 7.022568145998916 5.78800788031719
Pd 4.707315420768899 8.14320933460758 3.423180417660282
Pd 4.5751227665888825 4.432112150071996 6.234019922057457
