15
Energy = -57.90060452 eV
Pd 4.7385827114286885 8.807226146758731 6.05438144565767
Pd 5.358038545751432 7.174175828155538 8.467028084064616
Pd 3.396787616158366 4.52099614053172 4.558298373437986
Pd 3.821250603286944 4.152750464241871 7.233068742550507
Pd 6.344262923656873 7.854056512754605 4.161280434780862
Pd 9.557091672638169 6.8389865345240795 6.3851997153136395
Pd 7.144039295646158 7.882190820302185 6.682394382600385
Pd 7.556069087312681 5.678192607324062 5.176038806368246
Pd 6.302009278121108 4.815609104247359 7.810346625695881
Pd 4.915211680948847 6.205878387627016 6.038545498261695
Pd 5.652857510909891 5.359483812528192 3.3987477123698904
Pd 5.780708497370724 3.64700666781304 5.4836378387663975
Pd 8.165436745213402 6.430435050179951 8.602730840890542
Pd 3.744262708683588 7.190623064810177 3.9684701397310023
Pd 8.744183222126203 4.323523046265945 7.05126730814776
