12
Energy = -44.87529209 eV
Pd 4.380040303473686 5.318410689194411 6.629731710690078
Pd 6.411456589476766 4.539841918505796 4.95147342971935
Pd 4.054238710131086 5.08087490094356 4.077069387965944
Pd 7.212442690652993 6.226195255782492 3.2172120898566376
Pd 7.875257688568497 6.9505546482466825 5.608089301132212
Pd 5.865127576867786 7.713843319010928 7.307532703602072
Pd 5.040240231566788 6.021295958775247 9.025319843182492
Pd 8.230313517306117 7.146790043008227 8.163049850339037
Pd 5.325031910653804 7.216105791149227 4.660375698791718
Pd 3.4657370642987004 7.690274044880795 6.381979479063943
Pd 8.825928015247952 4.597080234521698 5.87205900009551
Pd 6.934103583419916 5.029099149279098 7.58645306660683
