10
Energy = -36.20316793 eV
Pd 5.1257292279241 4.5095906170868325 8.173059714135139
Pd 6.085826164713221 6.5491422399434915 4.562512348568069
Pd 6.889419462052984 6.082486992766962 9.147017452569498
Pd 6.894385989390193 4.81176119907352 6.31119897976828
Pd 8.85207033580391 4.85054715111247 8.034818301187936
Pd 7.969661169192832 7.081162490577359 6.924769335162919
Pd 5.263620070674383 6.936105897568673 7.171470776736518
Pd 4.1014907516242065 8.120527016553954 5.151196846858354
Pd 8.298754299266628 7.9113338730608875 4.506943099444167
Pd 6.40714523055182 9.027746423953994 5.9117857843162165
