16
Energy = -61.65744874 eV
Pd 7.0329394021361 10.699404172467105 6.435222736530761
Pd 8.526415566070844 9.40091239087857 8.092418917976616
Pd 6.9329996352619405 8.348347327264815 10.056751396737612
Pd 6.1013582054181335 8.505135184529617 7.5798891562311965
Pd 6.634703979286667 8.615464525780324 4.987104027702051
Pd 3.731913402156391 7.420745695398488 7.552164741985973
Pd 5.103822255919752 6.598264660701642 9.537860361546889
Pd 8.549499658770905 7.49030630808222 6.3629227870437655
Pd 5.4201388382989375 6.429295982579706 5.891942229084132
Pd 7.445854715434219 6.1926949247613665 4.249733264129949
Pd 10.511282499431944 6.052216687154272 7.327692779047639
Pd 8.53387857456357 4.820981418378614 6.232352862048248
Pd 8.930909262315009 6.961491441715819 9.111035773081355
Pd 5.435563123724724 4.5774916142537485 4.047432471011102
Pd 6.957729955325862 5.872387891574154 7.97382354125553
Pd 6.06526497483846 3.904106369687474 6.445973727733486
