13
Energy = -49.43360658 eV
Pd 9.82376667588606 7.292619720322774 7.513174907662357
Pd 9.816219190502087 5.618829030892606 5.382459461116394
Pd 8.367489463838794 7.805580674129825 5.39280705837733
Pd 7.284807546102339 8.066772139783847 7.972284246546775
Pd 7.931673986826382 5.540724173985848 7.172975066155036
Pd 7.270231520276218 5.369723555554407 4.531515556321904
Pd 5.8996177793495495 7.117188362363081 5.947834090255682
Pd 5.769529501539594 4.2188600756688865 6.500350029710006
Pd 5.775086738564651 5.893865725845101 8.630782625822777
Pd 4.551639756372495 8.138978856001037 7.954205716727243
Pd 4.540206389679113 5.413534039435698 4.485220734882984
Pd 3.4282842737526655 7.746878164744686 5.462369889937278
Pd 3.6090523570407558 5.724080833906274 7.045418661233301
