16
Energy = -62.18851304 eV
Pd 6.946075475234601 7.436865414944314 7.820504241754131
Pd 5.9681578427290285 5.465887765857516 9.356168434261155
Pd 6.806578627791719 10.02284086884771 7.50155948607923
Pd 3.5021057617103892 3.91556000542523 5.287641343960274
Pd 5.468003164915007 4.675524711982059 6.828196071907886
Pd 9.010756104841576 6.623646315715247 5.9071560385635955
Pd 4.356721440541387 6.861139376011513 7.789284127127027
Pd 9.15214950884719 8.765463994507957 7.421906247890817
Pd 5.8417088045540355 2.646593275411146 5.237070787738487
Pd 3.878704029586044 6.504117682606704 5.215392563406203
Pd 7.953137439393419 4.99446933432878 7.695292930203292
Pd 5.056444434597823 8.721042386122887 6.035806050420087
Pd 7.801529318511187 4.393454960543373 5.128059748176263
Pd 7.684268416670427 8.982522800895492 5.226650194580226
Pd 5.4627613596081055 4.785281755231989 3.722844425200556
Pd 6.4813133161669185 6.657306762196912 5.252386163311337
