10
Energy = -35.2610015 eV
Pd 4.448099908617524 5.8415702029032195 7.666811226552216
Pd 6.514740971030636 4.338224332061272 7.667284885601137
Pd 8.58138203344375 5.8415702029032195 7.666811226552216
Pd 7.791827428828864 8.273442336659603 7.66726251975442
Pd 5.237654513232407 8.273442336659603 7.66726251975442
Pd 4.448099908617524 7.187911739158054 5.362670715509057
Pd 5.237654513232407 4.75603960540167 5.362219422306853
Pd 7.791827428828864 4.75603960540167 5.362219422306853
Pd 8.58138203344375 7.187911739158054 5.362670715509057
Pd 6.514740971030636 8.69125761 5.3621970564601344
