18
Energy = -70.97477597 eV
Pd 6.686649045179605 9.368662324705072 5.797710340310207
Pd 9.381081215708978 5.797009865582583 4.8617937199610495
Pd 8.646452666424755 10.402603691425806 7.314131295877436
Pd 7.10385860863735 6.780510960754842 5.725216089702123
Pd 9.246146550443026 8.301620815048262 5.763557186977229
Pd 8.460652447422117 3.7127636696113813 8.508330828275328
Pd 6.790160343773758 5.74820202936029 8.442339776313869
Pd 4.727733319723523 7.663921419062678 4.968042503440482
Pd 9.28045570429103 6.062755651603653 7.489924560332703
Pd 10.346993972880597 8.45713804685008 8.126609622247976
Pd 7.728802983656116 8.139079600479956 8.242474043243092
Pd 4.2184991061528 5.37282308084408 8.675500215529864
Pd 4.98471526918941 5.2940488250264375 6.183433979773487
Pd 5.8288897221497855 3.352562396818989 7.855922752623709
Pd 7.624981258437712 4.245248982209899 6.08451336519507
Pd 5.121081196268909 7.674673719482101 7.628394556811965
Pd 6.046289069496134 10.176691874666906 8.207249584176989
Pd 4.121503439912349 9.81950632516962 6.401907109720294
