12
Energy = -44.91727421 eV
Pd 4.858907240792841 7.893153366377636 8.57312203623155
Pd 6.322509719836914 5.8076897483679 8.42515563825351
Pd 5.0845013065106945 8.612660494218021 5.104462099902822
Pd 6.810178910650337 8.248725383851923 6.9794375335773235
Pd 8.434088999885704 7.2193962590705505 8.716300413145001
Pd 4.521205484790452 6.505486710652032 6.457713957196023
Pd 8.596266086039824 8.189550384900793 5.166288574291432
Pd 8.512132220356666 5.992393911952754 6.4652653391316495
Pd 8.005719830447308 3.969077384572849 7.921509535533061
Pd 4.59998534230386 5.178098930839864 4.289370943010548
Pd 6.65314880443904 6.6612820976127285 4.529406791070456
Pd 6.2853267751373245 4.4093759898043645 6.060409134486106
