12
Energy = -45.13564416 eV
Pd 6.295601719293598 4.90480840839049 7.063535400003091
Pd 8.12888554083177 7.794277494130044 8.438998593088591
Pd 4.465932389924431 5.9994667122788625 5.426966622033586
Pd 6.744445077554365 4.877199976180355 4.444587019935581
Pd 6.519441564574785 7.563631457536194 4.4535950324452385
Pd 8.24040196982689 6.358196623471836 6.14043184126466
Pd 7.934641585556646 8.990879620153514 6.09936152519522
Pd 5.0432880250509475 6.126044899407218 2.910517162539943
Pd 8.526901093683032 5.223229303067428 8.541302628619427
Pd 5.825441438910167 7.701521252179885 7.068964732773941
Pd 4.021008480908737 6.00477887787879 7.980629496900177
Pd 6.218247018107804 6.218089259124112 9.387217169722021
