11
Energy = -40.99129432 eV
Pd 5.101112405684514 3.7055818869721917 6.605204866595107
Pd 5.044953779525586 6.392545952603611 6.822067520678491
Pd 7.134267000497937 5.222850305551527 5.682325245479653
Pd 6.860237889008459 7.898314163380184 5.697420473181945
Pd 3.8251800439025527 5.281831355574697 4.760397464351977
Pd 4.297034880316842 7.96659298728514 4.854649449755594
Pd 6.784662388280277 5.072148422355344 8.320094451480594
Pd 6.6331606905650595 7.760842854682161 8.402360133059283
Pd 5.912171595614559 6.3601657596206 3.5926288671837336
Pd 5.785780677346599 3.7136020709348103 4.023696403725202
Pd 8.661170137034139 6.6652557288163745 7.278886612284586
