11
Energy = -40.41845751 eV
Pd 4.581949057434723 6.600458334871087 5.59098511223175
Pd 3.363683833697165 5.45940377514094 7.5605917447435695
Pd 5.902873358220376 5.823375716601636 7.939376488561198
Pd 6.548642152357128 8.132312358712321 6.499067412125479
Pd 6.205742989035246 4.661283103088335 5.442704229743344
Pd 7.730818945362039 6.010729992885529 3.8557137770145276
Pd 9.069113651719594 8.61516219985771 6.957358725963274
Pd 6.093809566747475 7.934692374386491 3.953791040408914
Pd 4.9256008651609795 3.4788764302542248 7.346451865004972
Pd 8.183217085515679 6.218804368734305 6.403243381857371
Pd 7.744818759169343 7.4046803261273615 8.792978999064731
