18
Energy = -71.10283752 eV
Pd 2.9150316877464557 5.756768508126126 6.7925925157994405
Pd 3.912702705618415 8.315924309271976 7.681103019566751
Pd 6.241035266590134 7.877168657363919 9.306809825112165
Pd 4.5934359403199085 3.7329454330432315 7.806359407699414
Pd 6.367611909364225 8.650710580289703 6.742482378853294
Pd 6.594945304394863 4.953301749857292 9.441561944883937
Pd 5.4232779949712535 6.206596764620448 7.444563387047607
Pd 4.824294713874078 4.629460800536058 5.323506139427979
Pd 4.400642578792169 7.346848834370523 5.240701384811003
Pd 7.088698875514771 4.181072162603506 6.881942422769013
Pd 8.06318840049963 6.551660476695682 7.967921478901548
Pd 7.257875297150172 6.497524170355641 5.298237587053255
Pd 5.556460093576382 6.050168749537904 3.220250061470531
Pd 6.277770168429803 8.570743017245276 3.893327143392697
Pd 7.078914421846309 4.0452429059042965 4.121634396446026
Pd 8.442825420692163 9.022752744999536 5.262908523667701
Pd 9.236833469270428 4.622256493558802 5.522591364396314
Pd 9.803049979282639 7.053367122080802 6.166749291960079
