14
Energy = -53.02881786 eV
Pd 5.362642130925469 6.744946433484868 8.499184215321211
Pd 5.326777321112257 8.054511791685588 6.131029011063829
Pd 6.744946433484868 9.029770290667518 8.064853836905883
Pd 6.744946433484868 5.408952156459918 3.897137557514201
Pd 6.744946433484868 4.460122576302217 8.064853836905883
Pd 8.163115545857478 5.43538107528415 6.131029011063829
Pd 9.045819269577322 6.744946433484868 4.0308906631590675
Pd 6.744946433484868 8.080940710509818 3.897137557514201
Pd 8.127250736044262 6.744946433484868 8.499184215321211
Pd 8.163115545857478 8.054511791685588 6.131029011063829
Pd 5.326777321112257 5.43538107528415 6.131029011063829
Pd 4.444073597392415 6.744946433484868 4.0308906631590675
Pd 6.744946433484868 5.44219690071215 10.460500690544468
Pd 6.744946433484868 8.04769596625758 10.460500690544468
