10
Energy = -36.83706894 eV
Pd 8.451125932872715 6.284905594597829 8.063112604875167
Pd 6.1381443626645105 4.918826049719352 8.353893722358052
Pd 6.241120102958321 7.091442522254598 6.878266119921174
Pd 8.487567856790543 7.136676176122546 5.5095944444749065
Pd 4.199323089060574 7.1112749728990705 5.2068912836607435
Pd 3.890815630625762 6.282546849660361 7.74642357861732
Pd 6.368886621321114 8.622938634459878 4.746450684121455
Pd 4.935471004750216 4.6608195621692845 5.984667862658954
Pd 6.438826134712168 6.07693190291727 4.172033438043928
Pd 7.672499887876682 4.669633955129622 6.169951485413387
