17
Energy = -67.08341909 eV
Pd 7.544946272168188 8.49141482892411 7.0650013611677425
Pd 6.899497709500799 9.686976262365993 4.833260182401739
Pd 5.06135737252626 7.802172225240304 5.149789401834342
Pd 5.2345733146192455 9.803204941208033 6.912142165282726
Pd 7.632537455083593 7.178604738130594 4.45921633082633
Pd 7.637319843921953 6.700115839739401 9.0113106195492
Pd 9.200605917951924 6.483442320866663 6.687492526194085
Pd 5.173448023229378 7.551712379837561 8.349075725063589
Pd 6.556142264777691 6.13150429505582 6.588001560929607
Pd 3.1165044354216596 8.227458156394443 6.887378723948899
Pd 9.957444961088662 4.032008069534157 6.362227252669281
Pd 7.907653925837942 4.542216156939701 4.899768840776057
Pd 7.917291256396301 4.209068664001742 7.895949206335405
Pd 5.4942498449577695 5.377459489851614 4.169379049664891
Pd 5.501579841350273 4.922096101717975 8.70289014465376
Pd 3.925924565972284 5.738449946092282 6.479086359941492
Pd 5.702866009601839 3.6675538564812853 6.280423988693933
