13
Energy = -49.76003864 eV
Pd 5.459948638437977 3.641578618605249 4.9461539273431105
Pd 3.359828470743014 6.529720077441392 7.307953881784633
Pd 6.531443457687767 5.489157726794795 3.2256482740579955
Pd 7.263679394961424 8.299695968579082 8.889931116598122
Pd 7.56658747905548 5.717333024673926 8.359439263179183
Pd 5.22589099183306 6.576748960135542 9.30723355315121
Pd 8.84332856909877 6.579087874560102 4.055471837788275
Pd 6.554272256640533 7.876173256290669 4.418820849940465
Pd 8.345174429105032 7.611007477754554 6.513651694214851
Pd 7.275369088193249 5.3442847267045686 5.755842848132095
Pd 5.751663423495983 7.522408295143248 6.899862964846721
Pd 5.268876180578968 4.7130072335147295 7.383492749004768
Pd 4.57882030606258 6.124679173852297 4.961379725852416
