13
Energy = -48.52512314 eV
Pd 7.019568044567903 7.062164807954148 3.9998094932984682
Pd 8.826310202469012 5.102294156546149 7.702517762030872
Pd 3.9211369257580206 3.548262910686719 8.696542977092616
Pd 6.88406501184352 8.862443254851117 6.062358785580412
Pd 4.981994702359435 6.876818601251453 5.841421757944994
Pd 5.013183979905466 8.48300903203918 7.849767203908745
Pd 5.314339576430857 5.101369118783384 4.004643399895392
Pd 8.947279759269707 7.020197438696599 5.9781943088691305
Pd 4.705101062487987 4.192617589551208 6.396559927826158
Pd 8.723409940289395 8.94713654146297 4.287758110722292
Pd 6.947148639723156 6.798198940881879 7.871820375591842
Pd 4.568820177659845 5.957514707081339 8.411626347414472
Pd 7.096714876628847 5.000363375738348 5.846056847569527
