17
Energy = -67.06174651 eV
Pd 7.3234636871205625 10.11379772777667 7.323985256581345
Pd 9.659891546433393 9.085671240481483 7.930854991123659
Pd 6.043259302408774 7.865677198336293 6.934115847034146
Pd 9.468623831317787 6.494949882793786 7.767475248987697
Pd 5.161635036655209 6.918821856232593 9.32545901785332
Pd 6.514686210437458 9.446450901028632 4.814580796295284
Pd 7.561530264454399 8.001876245487036 9.083224418829378
Pd 8.415810045667893 7.975756659546741 5.867284366156077
Pd 9.106690487471786 3.9050812212372454 7.589607286015677
Pd 4.4983279931859235 7.6840362474739505 4.737389830625015
Pd 6.986092779706115 6.935014454743239 3.8982315302688644
Pd 3.554086710351747 7.133891238118134 7.196073873296952
Pd 7.059221491044422 5.518302825337987 8.153537839437604
Pd 5.617335490903756 5.581152754003232 5.660803562946865
Pd 8.275407717295781 5.280348639740839 5.5397149037426905
Pd 4.512062344492716 4.7416717789859515 7.854967742745986
Pd 6.646778625491642 3.386762863822062 6.714457489899344
