14
Energy = -53.85582859 eV
Pd 6.077210906122767 4.971214926069831 7.494538181893199
Pd 8.723561212885674 4.899504195143592 7.4721571143041245
Pd 3.4498041134862607 5.0354741444969155 7.320265409188604
Pd 7.535384418199008 7.239676845843448 7.247725857072385
Pd 4.76859794881204 7.328483289324506 7.210581737199231
Pd 6.223577804402793 9.504624257993934 6.932082898121802
Pd 5.881432588425044 2.4930311419172813 6.773929082383623
Pd 6.186925741954057 6.331121184207109 5.059579887674422
Pd 8.914203884003932 6.232194728528267 5.167902990822561
Pd 3.431502241690008 6.501047859224836 5.060279809720933
Pd 7.627353878878098 8.56614878659471 4.886770753952711
Pd 4.9632668085450735 8.664907983643873 4.7927920513641045
Pd 7.464055132150299 4.001857783549451 5.330829434626348
Pd 4.679256992864808 4.15684630340444 5.176697857900236
