16
Energy = -61.86917301 eV
Pd 7.525995499922033 8.178101923375536 6.475693425581425
Pd 9.416331181962159 7.734320545085078 4.787718056850668
Pd 5.738303043091019 9.985150860507954 6.086858860456114
Pd 7.823043793636508 7.191009914288944 8.953682686225637
Pd 9.00151181353759 6.070851561016621 6.880732626479892
Pd 5.102129250244311 7.518855875345092 5.304012519909035
Pd 5.041547092916839 4.808752471628749 5.355478772786508
Pd 9.619443731677695 5.113357366751365 4.4650749221173305
Pd 3.372006703308645 8.950892341346558 6.704364595107654
Pd 3.809643727048423 3.9934754152183434 7.650161088619232
Pd 7.209421794684147 6.257926105970849 4.5298024564131945
Pd 5.874846579755841 2.7318066836524317 6.913612499084305
Pd 5.530058305710824 8.228498159019377 8.141687819330999
Pd 7.724886106776799 4.003997232637572 5.813657856389014
Pd 3.739649210017255 6.464691971094486 7.308972351315821
Pd 6.316735185321015 5.6432092315295055 7.452435010935278
