13
Energy = -48.70329467 eV
Pd 6.719364119470684 9.352294573621132 9.30751062072072
Pd 5.264081385893927 5.412354509460372 7.653316356414858
Pd 5.264081385893927 8.026373729480994 7.653316356414858
Pd 5.355912132321707 6.719364119470684 5.263543171011588
Pd 6.719364119470684 9.000615220356417 5.718842618939958
Pd 8.174646853047445 8.026373729480994 7.653316356414858
Pd 8.174646853047445 5.412354509460372 7.653316356414858
Pd 8.082816106619662 6.719364119470684 5.263543171011588
Pd 6.719364119470684 6.719364119470684 9.551165593136979
Pd 6.719364119470684 4.086433665320235 9.30751062072072
Pd 6.719364119470684 5.407606059990299 3.303754832078347
Pd 6.719364119470684 4.438113018584949 5.718842618939958
Pd 6.719364119470684 8.03112217895107 3.303754832078347
