12
Energy = -45.11157192 eV
Pd 7.520572125431535 9.979991 7.29986328807006
Pd 8.477795844169291 7.865341065631394 8.627666410872493
Pd 6.397844542782353 9.197383856698957 9.58067597310687
Pd 8.201882033357764 5.402342719441166 5.0190506030332465
Pd 6.397844542782353 9.197383856698957 5.0190506030332465
Pd 6.12193073197083 6.7343855105087185 5.972060165267633
Pd 7.079154450708583 4.619735576140117 7.29986328807006
Pd 8.201882033357764 5.402342719441166 9.58067597310687
Pd 5.10754995543852 8.822296886549358 7.29986328807006
Pd 6.12193073197083 6.7343855105087185 8.627666410872493
Pd 8.477795844169291 7.865341065631394 5.972060165267633
Pd 9.492176620701603 5.777429689590755 7.29986328807006
