11
Energy = -40.55784936 eV
Pd 8.623515801635348 3.9678030167231397 6.448056494005137
Pd 4.846477911332584 4.553529164172672 4.266507967695056
Pd 6.14097837031863 3.3740899638967137 6.237478763869947
Pd 7.11161442615653 5.657339882813579 5.205522727961663
Pd 7.32434325276821 8.175847711833441 4.482578375072717
Pd 6.984408231226704 5.210372534580802 8.033958135195814
Pd 4.60843019313425 5.5856689525148635 6.71982520519091
Pd 4.926895004344128 7.146377985124364 4.61678042999058
Pd 6.462593341733056 7.638488604294598 6.970605355928944
Pd 5.3818640847729835 9.51543537684437 5.59268287648785
Pd 5.126157035321715 6.716925701251665 8.964660470879469
