18
Energy = -70.19465828 eV
Pd 6.096929244149931 3.446776569917383 9.195055459105804
Pd 7.675564490536439 6.579019952692291 7.9820037538556905
Pd 7.364607318531238 7.7946337437199675 10.349514604538655
Pd 7.8721844021674325 9.858730193363069 8.820972144026218
Pd 3.803438767646144 4.3868110444249195 8.620414778039617
Pd 5.684327439178894 8.398505016436408 8.27714385900136
Pd 7.951104494636354 9.56110494247045 4.4189333753715285
Pd 6.390267179271103 7.793527968917309 5.688175992672823
Pd 5.888181154696811 5.43293452149921 4.5949423267441745
Pd 4.963346527295351 6.0975917767517736 7.038097656149196
Pd 5.6505172559899 5.973557929784306 9.616798761751518
Pd 8.417995222491852 5.829334339723452 5.57709168816173
Pd 9.899267815330393 7.732534326633432 4.529934227033256
Pd 6.75965220069093 4.292873595333778 6.8803368420445254
Pd 6.545964754983682 10.287952605891741 6.575642527217643
Pd 7.622215973069841 7.09339082587348 3.3859283043818857
Pd 8.831979042692335 8.62427318264409 6.708432898383109
Pd 9.69099374079966 7.918764867043098 9.073699500844356
