10
Energy = -35.2987118 eV
Pd 7.290980854779339 7.073286190132924 5.822683266084067
Pd 8.283216516370965 8.391623243811711 7.674263620315371
Pd 6.107984482174791 9.549524008528168 8.068097604193438
Pd 5.042143206211511 7.979798713781023 6.455247989736017
Pd 6.116043365250856 5.630779148962685 4.074337223112253
Pd 9.051708648766148 6.307029855159022 8.813897900349668
Pd 3.8199940518115416 6.367224839895481 4.9066053256806565
Pd 5.255192671317566 5.406972410958442 6.795747196097115
Pd 7.80782620838548 4.987989687382373 7.123121254307767
Pd 6.457120140298046 3.543100650832757 5.504642908773439
