17
Energy = -66.97510677 eV
Pd 9.012254942018211 5.942422891988959 5.939340653388873
Pd 8.128759555426889 8.516347082099388 6.110269216828793
Pd 7.360862494807733 6.851233423934421 3.9951283452436224
Pd 9.798630392020439 5.129693522103822 8.3804151217537
Pd 5.092096700641324 7.716589078329604 2.86032780064924
Pd 8.151873288788686 7.170108357325455 8.419696177122594
Pd 6.939430953763379 4.331610109511568 4.959109599475191
Pd 5.560535534883581 8.672125311529708 5.256799053534948
Pd 4.7094247192475605 5.7638120689114265 4.57043004306867
Pd 6.462182966403103 6.469614973378212 6.46396752906346
Pd 5.937269794966307 8.644369149739681 7.9063174020963
Pd 7.441047148266702 4.273562319829049 7.623618440355128
Pd 3.153667997923028 7.87789593766415 4.5756150463491325
Pd 7.83510524668004 5.153924658718003 10.063112159577399
Pd 3.925120553697544 7.014717457259065 6.996701045254808
Pd 5.578945864954599 6.066874382334314 8.929489924024503
Pd 4.867824292340128 4.383913567872377 6.893145659094205
