17
Energy = -66.33208506 eV
Pd 8.129364084994013 8.36137778919106 4.000091625760909
Pd 9.1565040746243 5.982618575474702 7.840607173893848
Pd 6.484610756856672 6.591616072832183 7.756042375044233
Pd 5.738961918248576 7.172152508086097 4.127217126055693
Pd 3.5708504749524104 4.8681034718415095 7.038356468828826
Pd 4.104365894350486 6.612188577545044 8.962686175448896
Pd 5.670887441021537 4.873239898259145 5.453094885350333
Pd 7.897235944041608 6.25845517756504 5.540598528828214
Pd 8.3685624009093 8.511630305090224 7.993569738588627
Pd 5.535531202907871 4.373277676705888 8.830574433890273
Pd 6.515065178056413 8.752436636555196 6.135859658360657
Pd 8.687653181842318 10.173228085131687 5.936248311053711
Pd 5.291495641626784 2.7149166500224977 6.846425986769258
Pd 7.5596982180902295 4.050200055540563 7.124652255822265
Pd 4.332670953222696 7.419110783426837 6.447978832726639
Pd 9.953180363664549 7.849967508066523 6.003883811073591
Pd 3.465857787995759 5.865711216792398 4.478265112806759
