16
Energy = -62.25144449 eV
Pd 8.28785003551388 8.847041837792617 5.624427438364404
Pd 6.771319463444552 3.7582097716657743 5.163884769396594
Pd 5.150506827759172 4.314803600504032 7.11494817307756
Pd 6.31250130240388 7.955268691409518 3.9080958108127524
Pd 7.61516396777518 6.183285665727299 5.614082943250778
Pd 6.888202699741257 5.377188387134995 3.098931423156107
Pd 3.7221126953272567 5.193612032575046 9.16066176373307
Pd 6.035082669478499 3.9472669987927644 9.577618402030549
Pd 7.7798267126025165 4.589609267476399 7.710747318784085
Pd 8.260102645713546 7.407504513429562 7.820332149454648
Pd 8.787737140904234 7.234923909344125 3.527804869508241
Pd 5.940685654175057 8.142542084850577 6.608181779915196
Pd 4.985582150075071 5.779523078396083 4.888488123999244
Pd 3.754532412283111 6.71256093029788 7.045111665448499
Pd 6.005696295612788 6.420387470528365 8.646889434072765
Pd 3.8938773218467837 8.192099303664783 4.9254746599637755
