12
Energy = -44.81251773 eV
Pd 6.747340562048883 10.294654000000001 4.986075188078548
Pd 8.034000490521835 5.45344306410923 5.362057257675935
Pd 8.034000490521835 8.041238059988538 5.362057257675935
Pd 8.023383212737636 6.747340562048883 7.714730294592701
Pd 6.747340562048883 9.241720097594914 7.376683293726455
Pd 5.460680633575934 8.041238059988538 5.362057257675935
Pd 5.460680633575934 5.45344306410923 5.362057257675935
Pd 5.471297911360133 6.747340562048883 7.714730294592701
Pd 6.747340562048883 3.200027124097771 4.986075188078548
Pd 6.747340562048883 5.46045436563085 9.68244003172261
Pd 6.747340562048883 4.252961026502851 7.376683293726455
Pd 6.747340562048883 8.034226758466913 9.68244003172261
