18
Energy = -71.02536116 eV
Pd 10.273856127133524 4.418382622174199 7.7381342570578555
Pd 9.542285941670617 4.786817185678756 5.224490300832632
Pd 6.759003480714491 10.341955998318669 8.361758509139666
Pd 5.55056888152337 5.848164110218688 3.5637297595436506
Pd 5.6991342035128945 10.47255350964433 5.9458776295548414
Pd 5.628335392491288 8.168069457202018 4.740797666489315
Pd 5.370933296052249 5.73710200370295 6.240346466993912
Pd 7.868713743640945 8.017550878650272 8.785403193725962
Pd 9.468119491738488 6.873174508370283 6.976234536805673
Pd 5.97237528060457 6.04300613879304 8.846240332094839
Pd 7.166017068388504 6.87447836955968 11.11347594783961
Pd 7.664591530006742 6.592155960114779 5.04973312160622
Pd 8.728449380189295 5.649667724875145 9.429448361976817
Pd 6.916103667283315 3.982158684764103 4.845414774141418
Pd 7.6722622403382 4.799295108277457 7.207625266204986
Pd 7.88719484354361 8.948055436493986 6.295070136802054
Pd 5.4261883294220485 8.47396759785275 9.92410630982911
Pd 5.475285593565821 8.174691601619541 7.33061820664651
