13
Energy = -49.81562624 eV
Pd 6.65828498768441 4.2911865420758035 9.050283644479867
Pd 8.64120035533557 8.632988937735739 6.832687927158486
Pd 7.8900580367346 6.454873289858651 8.185248232985796
Pd 7.8900580367346 6.454873289858651 5.48012762133117
Pd 6.65828498768441 4.2911865420758035 4.615092209837101
Pd 5.5927906066363455 5.251544853444694 6.832687927158486
Pd 5.824682349654495 7.91464797085119 6.832687927158486
Pd 5.395278373451409 6.6471489261870405 4.532314018549397
Pd 5.395278373451409 6.6471489261870405 9.133061835767581
Pd 7.019610842459382 8.828529513515205 4.678686091127849
Pd 6.714493814255274 10.420058422308767 6.832687927158486
Pd 8.125311397698367 4.16222627662574 6.832687927158486
Pd 7.019610842459382 8.828529513515205 8.986689763189126
