17
Energy = -67.36612215 eV
Pd 5.4712439573864815 10.17655352689323 6.434238363768724
Pd 7.167257340183197 9.147608771469761 8.160445165673643
Pd 9.223654322308786 7.659070171269788 7.175513637137475
Pd 7.565584636479959 8.959569244210572 5.454587735828667
Pd 4.674241749197752 8.031076119610312 7.7279043253764845
Pd 9.56145068724625 7.493492021567363 4.580073243926601
Pd 6.791755480687493 6.723269387830729 6.829408262043641
Pd 5.749482149440323 8.124224265053174 10.124291425745243
Pd 7.853173139046049 6.773862365606514 9.352340350419569
Pd 8.828824335840537 5.27211550598141 5.85005450049379
Pd 5.338694378136372 5.721951888746342 8.932500625454518
Pd 7.102795967857391 6.511699699880858 4.193093620206446
Pd 5.038974341447139 7.878724995012752 5.07118579791162
Pd 9.81614453700316 5.373630395696775 8.328247066664924
Pd 4.373004619209985 5.667334773145889 6.4267576222842
Pd 7.3794141413377785 4.388274954977208 7.935432718784081
Pd 6.348572467847651 4.279189271676475 5.460622096814548
