17
Energy = -66.56496657 eV
Pd 8.047510425600088 5.392738251784249 4.127864909413931
Pd 8.04643106191852 4.653657261109513 6.573316477241985
Pd 8.039593622304135 8.018216368401871 3.8159288324292575
Pd 8.833921445390803 7.267120456209562 6.296629274102785
Pd 5.873166291306609 3.489265704253089 7.555423705387226
Pd 5.655913947293347 4.438757000789489 5.123583083530422
Pd 5.736978481204492 6.715481837883156 3.515517744460111
Pd 6.678766535010258 9.370906670891912 5.579375684312296
Pd 6.361122366714578 6.806870957365752 6.0014324692839764
Pd 3.789524470444495 6.361041049675168 5.502603777455889
Pd 8.09097372301746 3.831152554598433 9.033447425830582
Pd 4.7757524900544315 5.863509350408691 7.894059683753073
Pd 5.78945941061876 4.715299257654454 9.959104741951416
Pd 4.364456324130547 8.752709400254064 4.544680106241439
Pd 7.392370811617715 6.329892844403421 8.533622717886413
Pd 7.195624242760319 8.805521140035355 8.052631373058853
Pd 4.599130507926734 8.435637570378844 7.2385337950096265
