12
Energy = -44.81944057 eV
Pd 9.605380000481317 6.1479957459726355 7.796987071606329
Pd 8.136785450063448 8.098438626438282 7.029537109556933
Pd 6.193954676101965 9.606886961495645 6.057987865441865
Pd 7.138996376745405 7.628213625017809 4.56542848087137
Pd 7.768756437383199 5.568530824309077 6.1053402357145
Pd 7.177041435673946 6.169491431009796 8.737644249716444
Pd 5.506688883759342 7.240626193190607 6.909146948536912
Pd 4.622476970233863 6.219905424143764 9.086937537586971
Pd 5.476310101083683 4.575588262314394 7.291005250805053
Pd 6.670942866608916 3.3914732197062003 5.3015607002439475
Pd 5.427213647297048 5.550798922018814 4.713399376452563
Pd 4.518454671338692 8.027993386343997 4.626779789000202
