19
Energy = -75.42698913 eV
Pd 6.767126600742025 10.069048497202619 5.2280518012815715
Pd 8.613312881142457 6.258658278827507 3.8550319509957984
Pd 5.562350487449562 5.912172325133678 9.786850103676558
Pd 3.6172349650258093 6.682896599901508 8.006823327818266
Pd 9.86352973505773 7.524019423900276 7.21224612918263
Pd 5.6672134816870114 8.226716548588586 8.584220202991169
Pd 7.904482183093021 6.759115084349453 8.712767558751272
Pd 7.28662423599113 4.2137970641272045 8.668922847206805
Pd 8.503160051397037 5.266975223056626 6.46508281844749
Pd 7.7014035081195935 7.718149343557419 5.775052761869279
Pd 7.95518231238927 9.334998070072155 7.775365242665333
Pd 6.197220077650704 5.4106502764303395 4.373457272617706
Pd 6.424917493627282 3.476633548505802 6.2392119364899346
Pd 6.053367962004834 7.929979525945794 3.761324508697608
Pd 4.847303227542355 8.308473486269387 6.063735216237958
Pd 5.881882913301456 6.040473610178164 6.889368527678952
Pd 4.5865328527561875 4.075063329924378 8.074055316534519
Pd 8.238982147046542 3.68441637740079 4.346696870435037
Pd 5.608122629000327 10.578235993118616 7.507361604516718
