14
Energy = -53.93798002 eV
Pd 7.7398151344423445 7.389903929549676 4.307199829934388
Pd 7.32187813454043 5.894922021439442 2.264456753439206
Pd 7.493483199666394 4.709698971722689 4.543264259839848
Pd 8.043476243985912 8.796024638394657 6.480897369446108
Pd 5.694426176904688 7.710565126634266 6.023091032398282
Pd 8.047181449211658 6.217404458753184 6.779786868810682
Pd 5.277668797692739 6.202375541397597 3.7951982843876664
Pd 6.690710030485066 7.872965352263696 8.507949537761853
Pd 7.567811713079988 3.674208426657786 6.942879509402016
Pd 5.452245911361493 5.0619547449386415 6.259846102583786
Pd 3.4055705070253643 6.537302647121919 5.598914715871254
Pd 6.439952759135498 5.175041032984565 8.758299308466444
Pd 5.340376186717372 6.807950364621386 10.4072225086883
Pd 4.222153803812445 6.680033663585282 8.085283374172677
