11
Energy = -40.69801875 eV
Pd 7.6718344510896666 8.129547434936438 7.516843039843337
Pd 8.17830762221861 5.505550568225522 7.878523106301806
Pd 4.156495494758128 4.623410636361995 6.664020936178753
Pd 4.94339586573653 6.859099289760411 5.45424969675951
Pd 6.648467365819449 4.8467188631001115 5.767960750229265
Pd 6.826744017536703 8.625776948044452 5.07386488192452
Pd 8.563489018010406 6.688362631573891 5.4917540461936305
Pd 6.147702950798012 3.797758631630279 8.165666265420064
Pd 5.1697574891989095 8.881274925620357 7.167651585568914
Pd 5.660409950198618 6.397128035929753 7.958320792144884
Pd 6.765440178622073 6.377416438803774 3.5931893243543116
