13
Energy = -49.24480473 eV
Pd 7.840170366449058 4.678014255484787 4.527549629219167
Pd 6.077441494770289 6.322761228380688 5.699432342415356
Pd 8.00156411867963 5.157187672493881 7.155629567553749
Pd 7.317863061098501 7.588798331169151 7.661803933243249
Pd 5.792665644519034 5.727140288429944 3.063189538858838
Pd 7.276159606053833 2.754141265114823 6.276578968542186
Pd 5.304019412930468 3.83016921869257 4.93863475544901
Pd 2.9709707084359684 7.917770330619603 6.675783761918445
Pd 4.076817230257495 7.344309824239873 4.404314041211144
Pd 3.3427171066919428 4.948863745688797 3.6369026273353566
Pd 4.889319774661254 6.8580933314724986 7.986603108329209
Pd 5.579478010103168 4.3009466751716445 7.615230303576043
Pd 3.474730740017045 5.370153666247727 6.2400571370727755
