15
Energy = -58.45007063 eV
Pd 7.4672281854131 6.958286496337716 9.299039478448604
Pd 5.254547040033249 5.633351556787605 9.891553878440098
Pd 5.2552611629110935 8.24943518027311 9.96984553780007
Pd 6.562477278073093 4.797129140227509 7.737643149931712
Pd 4.8217348733085 7.011007761825444 7.676366706540561
Pd 6.570162222960594 9.224659727737828 7.890583121761689
Pd 9.215834022002355 8.401797936905531 7.757680538597393
Pd 9.21803181518814 5.639108857443295 7.667020263224055
Pd 7.294801029885134 7.056823927649545 6.611552529046713
Pd 7.3446845169970025 7.162176523959128 3.9343778630999915
Pd 5.43756459078285 5.721158913116497 5.353943678283213
Pd 8.000063679746862 4.825929310423483 5.3825804106303075
Pd 5.443220078486205 8.482406374257469 5.447081362311464
Pd 7.997855975299922 9.399800330472411 5.54392415071307
Pd 9.675191450899796 7.118714396189131 5.364180344843109
