16
Energy = -62.61921154 eV
Pd 6.46945119224725 6.463283190308309 6.654953983637478
Pd 5.180636741933297 7.293097456017128 8.839051836865277
Pd 6.381356572915697 4.844146917493543 8.848103123916223
Pd 7.875899048217073 7.162430271195483 8.923625898698491
Pd 6.506880134023774 9.027126732583035 7.2947199775407725
Pd 4.311746942061772 7.885403790153551 6.238014750614406
Pd 4.213254434138363 5.222012946890276 7.277475345780941
Pd 6.276468914515632 3.8829055411203037 6.222654459019032
Pd 8.63362331690673 5.107401349995753 7.351441837677545
Pd 8.762001854813548 7.5996999833059276 6.3055882751035695
Pd 6.320084389139942 7.976775414447584 4.419166468603858
Pd 5.128755692282056 5.591944697818971 4.43572392863511
Pd 7.798166099661789 5.784681209148237 4.503739188446253
Pd 7.901161353605215 9.800979478259327 5.2601619599802225
Pd 8.661590983613161 3.5078915981140395 5.314043965167292
Pd 2.7628668887625407 6.034163981985673 5.2954795591509525
