12
Energy = -44.67048198 eV
Pd 5.506165432509105 8.151395730840415 6.1763172533365145
Pd 5.506165432509105 5.4170817730646466 6.1763172533365145
Pd 4.923704797332199 6.784238751952532 8.374393414335234
Pd 6.784238751952532 4.887642067900342 8.459212078099393
Pd 8.06231207139596 5.4170817730646466 6.1763172533365145
Pd 8.06231207139596 8.151395730840415 6.1763172533365145
Pd 8.64477270657286 6.784238751952532 8.374393414335234
Pd 6.784238751952532 8.680835436004712 8.459212078099393
Pd 6.784238751952532 9.365108214786172 4.282967682251043
Pd 6.784238751952532 6.784238751952532 10.338448553993363
Pd 6.784238751952532 6.784238751952532 4.134001057898426
Pd 6.784238751952532 4.203369289118884 4.282967682251043
