12
Energy = -45.48119103 eV
Pd 5.37447595493865 5.736119434245388 4.405207324800054
Pd 8.091633036280871 6.132326034385625 4.261624619261502
Pd 6.838514483326818 7.515169580637272 6.180345759704446
Pd 4.948204069190132 3.499798385212993 5.813574769161598
Pd 5.65909805797926 3.945488594776811 8.34825955661856
Pd 7.007275458149452 3.6961926760425636 4.125657950732686
Pd 7.238710963783783 4.87300392313889 6.464405434645209
Pd 6.346310327711938 8.060162268168304 3.6572947461342373
Pd 4.267875790267279 7.990360289070989 5.331304892868585
Pd 4.998215954105323 8.309355548573034 7.87972305737794
Pd 6.704744488963759 6.388598888303733 8.604941196821024
Pd 4.558364711181783 5.886847673323451 6.961083987753445
