13
Energy = -49.55303999 eV
Pd 9.133487691176702 8.164348603352071 7.9217773643062
Pd 4.521776974012638 5.490916061837266 7.9217773643062
Pd 6.827632332594668 6.827632332594668 8.019328371558148
Pd 4.535776836332053 8.193652023699995 7.967282858624674
Pd 6.863745721584643 9.437567635307094 7.444831000909972
Pd 6.791518943604694 4.217697029882249 7.444831000909972
Pd 9.119487828857281 5.461612641489347 7.967282858624674
Pd 7.859852488255017 7.69423642058461 5.598838533426641
Pd 5.795412176934326 5.9610282446047265 5.598838533426641
Pd 3.377863665189339 6.920759838515225 5.964415649640675
Pd 5.355518651599839 8.607887081014214 5.472800544767562
Pd 8.299746013589495 5.04737758417512 5.472800544767562
Pd 10.277401 6.734504826674114 5.964415649640675
