11
Energy = -40.47143432 eV
Pd 8.492130793461278 7.5564341171450975 7.094930518770107
Pd 5.401177014009227 6.0593545866007945 8.0949509356489
Pd 6.537809844947511 8.229552516183515 8.636218035965788
Pd 5.788922057134846 3.4967621368888824 7.508868517992295
Pd 8.349863271662228 8.353777134247009 4.63245040924872
Pd 7.353485939010172 5.3602108663502595 6.529503155996101
Pd 5.139642334810138 6.70705418886955 5.586649799913128
Pd 5.605574539109599 4.178993519714233 4.882851990757762
Pd 7.188127976685177 6.161337058493209 4.08753825944525
Pd 3.635183086906884 4.790137639923399 6.607724682785677
Pd 6.305883023730268 8.904186071657849 6.136113506853315
