15
Energy = -58.49092969 eV
Pd 5.819154296562451 3.5730461401029525 7.465972665958453
Pd 4.705594797632633 5.971326984971014 7.15074552325024
Pd 8.452719971410534 3.7872262008407134 7.131903542326702
Pd 6.78670892242737 4.997083706453225 5.4529365795684175
Pd 7.145378862180857 5.778549213451159 8.256815649250644
Pd 5.6571127720454415 7.9600299999029716 8.622361030883729
Pd 8.98777821998536 6.222738215048091 6.274220940699002
Pd 2.7021772617565922 6.273456697499631 5.402762162063171
Pd 9.012116743991541 8.730903127560222 5.582788368314512
Pd 8.334967084030609 8.153280481312263 8.129825823403111
Pd 4.308959238023399 4.155663854615956 5.271383166828439
Pd 4.062634856023966 8.354035030120562 6.2732040222579855
Pd 7.720457951548856 6.95719085616089 3.951192113174952
Pd 6.620189762686057 7.774475765561055 6.18775798131864
Pd 5.06603051794302 6.699643085789169 4.303660788635194
