10
Energy = -36.68607155 eV
Pd 7.987196623873388 5.625767064485854 6.223881904265552
Pd 6.3103176391744995 5.515874435101243 8.24618950978263
Pd 5.812964752282557 4.024382933739634 6.014048634105246
Pd 7.407987812877614 4.413608186717033 3.9609504757424188
Pd 7.417869180281717 7.066823054246657 4.056496541501871
Pd 5.157230169700173 5.71301981835268 3.8123772988866893
Pd 3.399949262707486 4.204965198420269 4.993506219545733
Pd 5.672630803747992 6.932992002790028 6.04838811570224
Pd 3.863766331044229 5.416905291463226 7.28697622007029
Pd 3.1835916820445767 6.852812258469106 5.146121098369391
