12
Energy = -44.55014596 eV
Pd 7.630464768352451 8.51977256752475 5.133903691032322
Pd 7.417267627552354 4.812940592923861 2.981719243331924
Pd 7.880548121506549 6.003754018033161 5.196493144775233
Pd 7.447347071049399 7.393908543391604 7.430625516688844
Pd 7.469199633049686 3.403356705028603 5.149692466821989
Pd 6.900030489597164 5.687399121091091 9.259292143883851
Pd 5.420587327290112 7.225547956195836 5.484812526611843
Pd 6.149729224184161 4.894048808630833 6.977829685829646
Pd 4.9052460082207885 6.967866862749429 8.249326328770332
Pd 3.541551858689931 5.596027978113061 6.340084117031991
Pd 3.283876293282495 8.151052290741246 6.632329375841349
Pd 5.313680774441316 4.715490716249298 4.532021886203811
