19
Energy = -75.64906715 eV
Pd 4.111439417285512 4.335224598093007 5.014060637241191
Pd 8.462608992600265 5.532769935586074 4.56252189160168
Pd 5.460375790258317 8.030998802534008 8.23810997866123
Pd 7.781800450647975 8.12830474860287 4.39352096392694
Pd 8.929153780531506 4.878757593044734 7.2306171372615875
Pd 7.323817542057253 9.400012087228859 9.522032787247495
Pd 6.513237378261676 5.159572229107645 8.765071908243417
Pd 9.666607779296013 7.274697689039226 6.262748625651126
Pd 6.779876519507838 10.470274942414111 4.944190120364328
Pd 6.460554389810136 7.110083490243825 10.462903033094811
Pd 5.847508042426837 6.19340266586522 4.2555949659576235
Pd 3.3681911558298516 6.851235104380961 5.036559646116434
Pd 6.538053134632106 4.144690303020326 5.9889055222515655
Pd 7.473227972651038 2.887843412003648 8.046833496207029
Pd 8.482330488961832 7.153707479608292 8.69965861414941
Pd 7.792256667169919 9.193704252064148 6.958829517135479
Pd 5.230560511156652 8.540299469072233 5.651825278392552
Pd 7.018691472436464 6.687802456197867 6.560298486556665
Pd 4.544525417131528 5.864777305430222 7.13546749187358
