12
Energy = -45.16442711 eV
Pd 5.481143132067251 9.05711623212118 6.627747140238814
Pd 5.4625051446871336 3.744038672536533 6.696347044048659
Pd 5.282211477388091 6.399367945439298 6.84084464304288
Pd 7.60766482967383 5.110969568148712 5.852260598807229
Pd 7.5591495494978425 7.772051322255093 5.8516780931963215
Pd 3.9374558451224213 5.111844762042997 4.925445725555838
Pd 4.029189101745483 7.765176763983811 4.906777779081419
Pd 6.950761702578916 5.06892531103233 8.448297708901777
Pd 6.932668228150435 7.764997856231528 8.450264617636856
Pd 6.098428854482201 6.466358953934841 4.112615519473824
Pd 6.077355605040357 3.784327921608122 4.129233202755645
Pd 9.061269293297075 6.434627211918498 7.638290569752844
