13
Energy = -49.22844969 eV
Pd 5.619128421171282 8.592246401744084 5.031348911742954
Pd 8.075688563333603 8.048108456255811 5.783546213101979
Pd 4.029520984597448 6.557052920967774 4.20358162838093
Pd 10.373440535102754 7.25849208592645 6.67551475622741
Pd 6.512464034144513 6.074395370243194 4.778971677998218
Pd 3.5515897055727907 7.624845764664009 6.533969815227056
Pd 8.331416415666876 6.075045749259298 7.7701701256029185
Pd 6.002398041542322 7.193294317841293 7.28747813852105
Pd 4.617747909372306 5.06620720110547 6.387208039141964
Pd 3.8049353251139744 6.19338908816277 8.71079023492052
Pd 9.051723533533657 5.618361063583777 5.145245586096603
Pd 7.198013359932648 4.091013194871575 6.367664574185151
Pd 6.082601978801019 4.898644975868021 8.622639846243613
