10
Energy = -35.77919428 eV
Pd 5.035718985375881 4.303442173396045 5.025791493189596
Pd 7.583720589390114 4.303456888659086 5.025700852456523
Pd 5.0461784394269475 6.880668971398128 5.0461292245519775
Pd 7.573260249560012 6.88071538287463 5.045661713058798
Pd 6.309653714128163 9.180262517554997 5.048871454690376
Pd 5.035571208010216 4.3033625298403235 7.593547814435161
Pd 7.583593788104356 4.303347863026105 7.593418315746577
Pd 5.0460991050586355 6.880633377916538 7.57365039341936
Pd 7.573160197755003 6.880572933856833 7.5732248388324
Pd 6.3097004207311835 9.180194148462615 7.570660686604287
