18
Energy = -71.11702204 eV
Pd 8.557234370065894 7.326438921329743 4.019135564021269
Pd 4.812768284305847 6.017463106818094 9.135573855120995
Pd 8.403200237346875 4.175604117120709 7.321715938207739
Pd 7.1241291965880285 6.357089772855427 7.936279098897434
Pd 8.287274103358921 8.639196251704695 8.268170503155572
Pd 9.560825198695554 9.134854291283174 5.951012184146418
Pd 5.745683234702878 4.1859564486951335 7.321995751928934
Pd 3.248700293360163 5.019372452567972 7.230313889438
Pd 6.783794473958906 7.560586649871249 10.226716649246091
Pd 11.034073563779298 7.371148623042992 4.764856328491758
Pd 7.218261133458576 5.4526142261270865 5.3777963187072855
Pd 5.549220042712773 8.594144099382772 8.155234322925354
Pd 5.942596710162307 7.086092479801955 3.8395111498944123
Pd 3.043424711633519 7.625315242011952 8.037402366101636
Pd 9.382160462835541 6.565023861598267 6.598661010352294
Pd 7.0166652333886885 8.372816661949232 5.918678593056418
Pd 4.699731755553669 4.7133005527791285 4.863133787561794
Pd 4.8364377781213275 6.89321339377644 6.235979180985683
