15
Energy = -58.45949022 eV
Pd 7.994006899031962 5.061555749678568 4.264946828364624
Pd 4.751247334928025 5.113534795755778 6.385570157609543
Pd 7.865101761201965 5.050291930953942 8.69596413590934
Pd 5.669396437006795 6.443096437034654 4.192754817633487
Pd 7.2794242243843135 6.426023362093435 6.459021388631724
Pd 5.553401598622888 6.442534063102217 8.6305537526175
Pd 7.916215444747634 7.779430154248171 8.69121177745005
Pd 4.795431324298278 7.788293986250656 6.393707914245647
Pd 8.014588953551382 7.786143190989717 4.260866470509295
Pd 5.680801403009493 9.067335833570027 4.262313084529729
Pd 7.176519804098195 9.051243131964474 6.452602977575575
Pd 5.588345250978881 9.06668596149037 8.570597273675169
Pd 5.4948507259999175 3.823245246850543 8.560790345439415
Pd 7.110645342069945 3.8079279610096193 6.454723800338937
Pd 5.638226951867266 3.8208616508047686 4.252578731267152
