10
Energy = -36.75449752 eV
Pd 5.420351358128114 6.37170641246913 7.816864868309272
Pd 5.420650501718453 6.371537028202213 4.929495285203231
Pd 4.792499459702689 8.53011083835952 6.373120906182926
Pd 7.327339393546924 4.93138915287665 6.372978167713138
Pd 7.324400936743746 7.817471786235992 6.372794184035808
Pd 3.2447295379859336 6.3691909366774455 6.373212852221737
Pd 4.798241776243593 4.212795712481012 6.37328526285157
Pd 7.9507058408480935 6.3754055393431965 8.531695061238796
Pd 7.950839703258481 6.374983850589425 4.214743254452749
Pd 9.501560681856535 6.376728114026935 6.373129166593579
