14
Energy = -53.99167032 eV
Pd 6.406308756363828 6.415695569724461 5.1829607990717586
Pd 9.079957738593366 6.438842158728621 5.14531564113971
Pd 3.726669195750163 6.4434028685942835 5.200742861692682
Pd 7.752996495666219 8.745986274638353 5.1633249987327625
Pd 5.053417890895714 8.749972808183921 5.1969654577747
Pd 7.732677977620312 4.077337751347604 5.155159336185725
Pd 5.079612057550063 4.07934693095695 5.178634478881134
Pd 6.4266278841679245 8.050737173915625 7.368849907032312
Pd 9.042418670054236 7.933541313277092 7.345344558751958
Pd 3.8116750443467446 7.9325260508563105 7.4078572210306675
Pd 7.870873087299941 5.580887520141288 7.354795253034928
Pd 4.959946324548085 5.5704666783041095 7.383977872273948
Pd 6.423357200545802 3.3862437908653384 7.364542999061649
Pd 6.429174525552591 6.390725989236074 9.347241464291187
