17
Energy = -66.66484564 eV
Pd 8.019101991183845 5.647522906763414 9.988531723416655
Pd 8.749443139020695 5.708243316861657 7.487356013888453
Pd 7.559428790216191 3.5544163795287127 8.349259483187096
Pd 9.336804836607804 8.222313040158284 6.887927186422162
Pd 7.46252598364283 7.9141092660721775 8.810798516340972
Pd 5.973572033329156 5.584218265892101 8.38089193580516
Pd 10.773875530483998 6.396584739931743 5.850966322634531
Pd 5.840817992552018 9.987116799616302 8.96062253323107
Pd 4.682014382534299 10.152931497755594 6.503196461945171
Pd 8.530087263440558 5.8110144803776285 4.753206254019986
Pd 4.89137261873235 7.873190530881289 7.733350174412073
Pd 7.213114551968454 9.684820935439106 6.735623389039495
Pd 6.666313320218047 4.379569241298928 6.018166023066091
Pd 6.9021384485674755 7.1937673680416765 6.152054891525723
Pd 5.9158695077509025 5.790773616609876 3.977734869617462
Pd 4.386862245980402 5.782919773033798 6.211193082490705
Pd 4.857706177788428 8.075307393160127 4.889597965414178
