15
Energy = -58.14903816 eV
Pd 2.948319752908881 6.969704382633904 7.686963626916486
Pd 4.153600311132162 8.613563740045697 5.9427734904640666
Pd 5.62810162550777 7.612489365245494 3.928605686866207
Pd 5.020095055989876 8.29862517529345 8.54229923236555
Pd 4.46431379134989 6.035683643640223 5.769224350253426
Pd 6.536819830064335 7.548803509408935 6.48250006200094
Pd 8.230713264356382 7.597724275553523 4.449425777477386
Pd 9.13029840334402 7.599236599868434 7.03709030010044
Pd 6.827482317012999 5.336076656494456 4.577187927204501
Pd 7.419405262265594 7.303117407581728 9.02493182972956
Pd 5.2181267645197345 5.705562151101373 8.369397479268846
Pd 9.522516707077184 5.532594821849869 5.388378935657953
Pd 7.704052327495994 5.309343004284176 7.316544507736482
Pd 5.658650359087214 3.852444113500465 6.497018740064656
Pd 8.118297464457456 3.3172309234200212 5.6001090163645415
