12
Energy = -44.49102272 eV
Pd 8.590617860823079 7.861130447944849 7.85284821449709
Pd 7.344168079710043 6.733962516239065 9.876042015425337
Pd 7.756748950758556 5.2953230156188615 7.6932546927542615
Pd 5.902674885143335 7.249881573803851 7.657693194576957
Pd 5.527299699967124 4.961863595064539 9.176308925949828
Pd 4.9416461042925395 4.966399930345612 6.692881211433009
Pd 7.026637163663423 4.9118184638579905 5.182550517799524
Pd 7.540727419873098 7.408278672774432 5.570611697029934
Pd 4.900634611934999 7.1803027341458625 5.177927832585954
Pd 6.66033872067908 6.663761873020384 3.2068364896243815
Pd 4.602439174096831 4.74675269150366 4.087712682161821
Pd 4.112382084204845 6.918757582943853 2.709315684739599
