16
Energy = -62.94364041 eV
Pd 7.576127311632039 6.734390260906642 9.135939988324186
Pd 5.3541720601391365 5.438744714910709 9.726360889466996
Pd 5.378022124870272 8.080065044154239 9.792363770375559
Pd 7.725953074902948 9.285492669766292 9.832717489927568
Pd 6.720897852847061 4.646293915433223 7.585436662415654
Pd 4.88767832872152 6.773839415744538 7.4979215399124115
Pd 6.410960705341752 9.224835542553016 7.555497967494008
Pd 9.110981324070385 8.47870703693773 7.710701473294319
Pd 9.360456258771382 5.6470512967217665 7.5007159215837005
Pd 7.266350867307914 7.011337575517787 6.493071792653787
Pd 7.2629213804663095 7.077675425804576 3.7731808760938943
Pd 5.444458242052058 5.522131930137254 5.171325924786365
Pd 8.063733347802799 4.859556498073526 5.225626585894065
Pd 5.286137331856033 8.269227585108759 5.254212270137526
Pd 7.876089790941965 9.3294267851126 5.256102497870153
Pd 9.581279170843414 7.251120942655311 5.299521723775659
