16
Energy = -61.8810273 eV
Pd 9.694693363418306 8.10720092805329 9.221288240212115
Pd 9.00720851117231 5.626457422454023 8.918336368806361
Pd 8.098717477066968 9.249429906066625 4.5634989314998435
Pd 9.11996373468314 6.153801133081985 6.445099563372336
Pd 9.026888580095902 8.649693216050421 6.838713650391612
Pd 7.936375597688577 6.695503238718152 4.255899534621692
Pd 7.274111721425892 7.444431206554545 10.011986359795248
Pd 6.460668453295397 5.040656309009849 9.4362522590659
Pd 6.72074335948724 8.626257399964905 7.810213938191161
Pd 7.575765474748376 4.327454652283864 5.332969155846984
Pd 6.635032816971742 6.081104552156776 7.053389906199141
Pd 5.9518135841189705 8.064798684834098 5.408288284196806
Pd 5.473009476551883 5.598309710783008 4.330587561503563
Pd 4.830955132839181 7.091280105366322 8.90595432281045
Pd 4.166932960103114 8.982193959935232 7.161977708006046
Pd 4.12213271698394 6.445609267815837 6.42370536445032
