15
Energy = -58.55570924
Pd 5.6599299802807765 8.496310478065398 5.227036560680116
Pd 6.350195770920749 6.988873393446278 2.9921189000740194
Pd 7.6373869659275275 6.337516429199404 5.1907080322909
Pd 4.7702060602650525 2.733320189665676 7.729387082289913
Pd 4.414399270608245 3.3799805423061784 5.14267469114399
Pd 3.8494193817727793 5.123945229190342 7.234797984695855
Pd 6.523851819632862 4.3832438122019175 3.750018222067255
Pd 8.211348954681027 5.860396240709431 7.756941966454887
Pd 6.527746036475632 4.271455103981039 6.419239666686145
Pd 4.785735901242114 5.9874363460091145 4.88079601801211
Pd 6.015448752715575 4.78327116410628 8.945722858586203
Pd 3.491507372470684 7.622748859504583 6.461707168597922
Pd 5.837000127967851 6.910150539185565 7.376103816002196
Pd 7.954148058942287 8.392276991241957 6.797031048871721
Pd 8.012826288871779 8.770225423962298 4.136866726322356
