16
Energy = -62.95583577 eV
Pd 5.701537170654937 3.251084584894642 8.276541230068245
Pd 5.701537170654937 3.251084584894642 3.753041452250892
Pd 6.979800513631441 2.7997474639066056 6.014791341159568
Pd 6.929181679996955 9.158175231587467 6.014791341159568
Pd 4.682480556414528 8.357695294243776 7.426293346878916
Pd 4.682480556414528 8.357695294243776 4.6032893354402225
Pd 7.110805846752647 7.577391730915853 3.756502309537651
Pd 7.110805846752647 7.577391730915853 8.273080372781484
Pd 8.640528415405155 7.005603824342218 6.014791341159568
Pd 3.291051614924299 6.474111759496328 6.014791341159568
Pd 4.865472280915316 5.773256320238447 3.756965116177834
Pd 4.865472280915316 5.773256320238447 8.272617566141301
Pd 7.469517057277248 5.022434335487996 4.569576612552056
Pd 7.469517057277248 5.022434335487996 7.460006069767083
Pd 4.733474769824714 4.241464136852446 6.014791341159568
Pd 6.002998640741055 6.593834510806477 6.014791341159568
