11
Energy = -40.86953164 eV
Pd 4.435629596875719 5.507946310053371 4.818832853497475
Pd 7.073074066656285 6.144483888256606 5.186519500929548
Pd 6.5982913391142235 5.723087926341416 7.932847773574511
Pd 5.376175870956172 7.83874884370605 4.084277637573929
Pd 8.775119702929914 7.078895639906045 7.114049796485288
Pd 8.580742740059542 4.518332278179087 6.6224354762019475
Pd 6.0770355571694425 3.7958470051536706 6.083102310862862
Pd 6.85018924567536 8.37016069384818 8.358407043308436
Pd 5.012140127295584 7.361956778889608 6.677399979165144
Pd 7.165170303498521 8.780355725809814 5.797223984563294
Pd 4.097585456345739 4.921338946247231 7.366057620598991
