16
Energy = -62.42116975 eV
Pd 5.680542673282917 5.969854580733656 5.414036344991087
Pd 3.9496736488099002 6.314006922640265 7.334504461523292
Pd 8.981038390497579 6.9215101261870595 6.211494452229559
Pd 9.247568070285423 8.027545658438935 10.557110201595405
Pd 6.5980730363796 6.189491260341905 7.743986447564924
Pd 7.9480655190724 5.322364904209691 4.437718861925797
Pd 5.181513797194147 8.189689406102488 8.683446663777945
Pd 4.78628962998497 8.446849787639374 5.998237791345601
Pd 9.5474917203945 8.777989505046893 8.067667803775025
Pd 9.065154522555739 6.125674430823293 8.782438817410773
Pd 6.898606080187592 6.909508816685691 10.232774530080023
Pd 8.322442919333763 4.472287385091867 6.886188078536411
Pd 7.095107464790038 8.013209488444627 4.5995384702235675
Pd 9.204886371614899 9.43453055636238 5.530697107635629
Pd 7.1528362121878875 8.851139258166667 7.04230776323213
Pd 7.321942182760629 9.532242805887881 9.529959519462553
