13
Energy = -49.11425686 eV
Pd 6.809529486519557 9.351893578440057 9.140334005850136
Pd 5.532313168827528 5.449258135683051 7.094568888696959
Pd 5.532313168827528 8.169800837356062 7.094568888696959
Pd 5.510682023844719 6.809529486519557 4.809333534302677
Pd 6.809529486519557 9.082278735311696 4.71311577574861
Pd 8.086745804211581 8.169800837356062 7.094568888696959
Pd 8.086745804211581 5.449258135683051 7.094568888696959
Pd 8.108376949194396 6.809529486519557 4.809333534302677
Pd 6.809529486519557 6.809529486519557 9.118704301218678
Pd 6.809529486519557 4.536780237727417 4.71311577574861
Pd 6.809529486519557 3.043483973039115 6.850668369651245
Pd 6.809529486519557 10.575575 6.850668369651245
Pd 6.809529486519557 4.267165394599058 9.140334005850136
