15
Energy = -58.14805158 eV
Pd 7.430569856481308 7.719493664452948 9.050416921601007
Pd 7.49486765291341 5.127391682281668 8.667614330121305
Pd 7.479048959864222 2.628316993490128 8.042742134892347
Pd 7.888961668680499 6.829026883278315 6.63254145396111
Pd 8.0457941784444 4.1996144792579715 6.084358489533586
Pd 6.4350030203629265 9.128909457253616 7.06578238011658
Pd 5.49657704077073 4.011941791004162 7.155553652644778
Pd 7.968716428999761 5.982629411529405 4.132784421967964
Pd 5.863876709309074 4.441865239575677 4.6031336972571415
Pd 5.432596432847268 6.627050665275562 7.754576840081242
Pd 7.801246867584381 8.661171305437232 4.7606912396066585
Pd 5.38036168960095 9.710847529555659 4.747780659808041
Pd 5.676409835805513 7.069805728269499 4.919230891256361
Pd 3.738727640035225 5.618157720659611 5.991178542586333
Pd 3.903573942746957 8.2792683680428 6.43147615076223
