12
Energy = -44.63409902 eV
Pd 4.452015017043041 5.970122972636911 4.046387124729014
Pd 2.891760382547179 6.841378833695842 5.98538057979495
Pd 5.278931465896256 7.868252363954999 5.705812512554765
Pd 6.872678612834789 5.4877838767619425 4.749422153037227
Pd 3.6132782559196994 6.602651790110704 8.439645936217234
Pd 5.064533666963776 5.312302342837734 6.657992320389073
Pd 7.842528335310663 7.642595689355587 5.815073135301482
Pd 7.6442852805031904 5.409703337134606 7.3663240121889295
Pd 9.133801712298592 4.503776542238312 5.393993001564905
Pd 6.027496368289261 7.35018644739463 8.146051365265583
Pd 8.530188545815081 7.85980689696415 8.370379725654256
Pd 10.044466728845274 6.542090096630586 6.664386953860876
