14
Energy = -53.48637916 eV
Pd 6.700563304363494 10.384362999999999 6.468714650052515
Pd 8.016818639141656 5.343158533134404 6.10538103441317
Pd 8.016818639141656 8.057968075592584 6.10538103441317
Pd 8.33006604268708 6.700563304363494 8.34721926009938
Pd 6.700563304363494 8.726154449482076 8.502575907494117
Pd 5.384307969585332 8.057968075592584 6.10538103441317
Pd 5.384307969585332 5.343158533134404 6.10538103441317
Pd 5.071060566039905 6.700563304363494 8.34721926009938
Pd 6.700563304363494 6.700563304363494 4.157753952997435
Pd 6.700563304363494 9.276509959722276 4.10222466771075
Pd 6.700563304363494 4.124616649004711 4.10222466771075
Pd 6.700563304363494 4.67497215924491 8.502575907494117
Pd 6.700563304363494 6.700563304363494 10.387139102083378
Pd 6.700563304363494 3.0167636087269893 6.468714650052515
