11
Energy = -40.32686236 eV
Pd 6.781094184382159 6.781094184382159 9.22984267821546
Pd 8.14531283706774 8.108010439764788 7.367773250272111
Pd 6.781094184382159 10.320058 7.621600641820182
Pd 5.416875531696576 8.108010439764788 7.367773250272111
Pd 5.416875531696576 5.45417792899953 7.367773250272111
Pd 5.509027464624488 6.781094184382159 5.0559979810988525
Pd 6.781094184382159 9.133307297730244 5.267951624762583
Pd 8.053160904139833 6.781094184382159 5.0559979810988525
Pd 8.14531283706774 5.45417792899953 7.367773250272111
Pd 6.781094184382159 4.428881071034076 5.267951624762583
Pd 6.781094184382159 3.2421303687643186 7.621600641820182
