14
Energy = -53.83624472 eV
Pd 6.968944773731906 8.960921760953141 4.731646005703187
Pd 3.613132465510742 6.48802319070337 4.058835078776465
Pd 6.247152913812219 6.525209739816855 3.917211900982486
Pd 7.2990891213485725 6.82945763860168 6.2810671443642425
Pd 4.759033825896413 8.105588077748145 5.868803477285431
Pd 6.731767844971008 9.081607619802503 7.444494093907235
Pd 7.321537036067592 4.386349093910958 5.328942192980779
Pd 7.859921439057419 6.908286652760936 8.817179183756872
Pd 5.003769946989738 4.150578797149636 4.000796534281538
Pd 9.03415510392831 5.0628708895307435 7.260878075647374
Pd 5.21656237384158 7.053073826412577 8.326172002191274
Pd 4.770538678782107 5.502105339542151 6.21365521252426
Pd 6.515558582569056 4.7058922865581385 8.01933024938774
Pd 5.346144232693705 2.9435491666606017 6.380233335690825
