18
Energy = -71.98342295 eV
Pd 7.860146466031398 6.972587322755151 9.23662324802432
Pd 5.385962533800131 5.9633379702953535 9.630322329881293
Pd 5.8321410167496 8.558774517461798 9.889493320433086
Pd 8.259230191804255 9.556637390431135 9.781654215654344
Pd 7.032975670172617 4.864355619999215 7.785224618339108
Pd 5.024805993903086 7.5193268674270834 7.536850772493399
Pd 6.820606097976873 9.5875355557001 7.570724547449692
Pd 9.493712957186698 8.48844902729051 7.687588429165138
Pd 9.5932739820178 5.706310539184965 7.610536045530671
Pd 7.431418048177342 7.212136950230421 6.618046037740935
Pd 7.459948592414343 7.3546250139261975 3.8776003887034625
Pd 5.475414232205976 6.148661191388128 5.209025912338228
Pd 8.16123232606436 5.020936327690907 5.316869276122987
Pd 5.624512976413203 8.855486772479022 5.240637671220104
Pd 8.279889286132875 9.486398654576467 5.328110056943793
Pd 9.778592972421869 7.182921556674095 5.351496124488021
Pd 4.413142498901339 4.904731530715504 7.397247449510979
Pd 5.941405653062338 3.608608034910549 5.6932582317138305
