10
Energy = -35.71559692 eV
Pd 8.234350698294094 7.7685113538512605 7.861307539631382
Pd 6.313821560636039 6.019848455007285 8.301007972206062
Pd 8.24651345205343 5.822223336849637 6.052832018938825
Pd 7.5038268596881395 3.854440239153196 7.531350363152934
Pd 5.8171778973995 8.557523966646487 8.540006733141288
Pd 7.1176755115479775 4.849894635609474 3.967540585243059
Pd 4.530647031721226 9.140210110812557 6.4142213464596525
Pd 6.361476651482953 7.517075474659894 6.021618863031111
Pd 5.568624644655517 4.803815109552675 6.057777711524293
Pd 5.159672467501111 6.5043783290150206 4.09207156242245
