11
Energy = -40.85591182 eV
Pd 6.367473791320659 9.140782771332 7.115051387025002
Pd 4.293249836117037 7.490072462830742 6.830315087150884
Pd 8.70719965605471 7.684459275504251 7.3184528645697196
Pd 5.21218251322492 4.986807519803822 6.812499969084069
Pd 7.846003985126711 5.059433703747426 7.141608986776292
Pd 6.485888794235887 6.862659954291056 5.547187205183649
Pd 6.1328090871972165 6.752569558618227 8.514239275845316
Pd 7.5964056116429965 8.718762458354306 9.42303869347968
Pd 8.485930781029092 6.2073361020585445 9.459771612475187
Pd 8.079235601415137 8.849323139981003 5.059828602497756
Pd 9.01333888129288 6.374398684112015 5.098866769854034
