10
Energy = -36.71456107 eV
Pd 5.954995060116677 5.32532923540245 5.055774533173341
Pd 4.313123261025794 3.766293781021897 6.3151726831836745
Pd 7.432182864123044 7.479256689766016 4.476406587658103
Pd 6.217039626074816 7.601940135657451 6.952853324620967
Pd 4.870127277860351 7.72338556303189 4.681458203725644
Pd 3.937280470430864 6.279846711656689 6.7038430540415765
Pd 8.261744670631973 5.673815883222649 6.345238913282832
Pd 8.760802854303446 8.216713713592052 6.685820033190988
Pd 6.055536112182103 4.9977703186525275 7.802212089622363
Pd 7.924636910406381 6.663117075151692 8.708689684655967
