19
Energy = -74.82808972 eV
Pd 3.747178263440044 9.163690815722749 8.024492539748817
Pd 8.10726605323959 9.163725651452738 7.161561626447005
Pd 8.268686070151437 6.498709498770947 7.078331569685575
Pd 5.88215763606615 8.685842182432335 4.1585360186595395
Pd 3.967300252024451 7.827277071484682 5.842046469463006
Pd 7.754973832175766 10.392543462926572 4.901180605897003
Pd 9.472173000889933 5.235725298133052 9.086687275728698
Pd 9.298056200106792 7.945764315120299 9.091701299989326
Pd 3.9175822741155444 5.239005266940372 5.972592259814814
Pd 6.197265818758267 6.359632271005385 5.245389753063673
Pd 5.8905732209000465 7.736699526778786 7.649527640819215
Pd 6.158831555399652 3.7301160528213684 5.452828563030786
Pd 7.246028719713918 3.911851051180085 9.61485485508191
Pd 8.153644199257958 3.899919185839484 7.140764512660596
Pd 8.461363157385149 5.118077096657777 4.76681857392291
Pd 7.136200006303725 6.573983089056283 9.608842239032773
Pd 5.62375073170783 10.065307945835317 6.4280327538099
Pd 5.744813792926527 5.087103834371343 7.7770777436276175
Pd 8.371649755934264 7.82023101093676 4.764085333722653
