17
Energy = -67.56332241 eV
Pd 7.842303081007509 7.281766874477494 9.314992202669737
Pd 5.421861075177014 6.159327202829796 9.768550305487894
Pd 5.753917634609646 8.744372176377224 10.01942997546114
Pd 7.096268623788362 5.064714471534617 7.934157869127001
Pd 5.029906716989988 7.694984556702751 7.669640276632554
Pd 6.947681573048527 9.661816506907513 7.8448167129794
Pd 9.5626570435221 8.677284678422707 7.787900246794591
Pd 9.639368496351274 5.952984359722306 7.741511327592224
Pd 7.46317452282436 7.37857399589394 6.723028495943348
Pd 7.474663724693159 7.563698042653814 4.043210742352648
Pd 5.4930878549651645 6.317332836073902 5.35722965814067
Pd 8.217898748492155 5.236987784567351 5.443719320841453
Pd 5.6544065551292455 9.050679815494657 5.427767887116588
Pd 8.300821757310601 9.693099631073379 5.528924085301367
Pd 9.842124472989445 7.3796166014145115 5.416454442006245
Pd 4.490077566804083 5.032133591717342 7.524695164384248
Pd 6.044214440735278 3.783266420777429 5.842884142993424
