16
Energy = -62.28892996 eV
Pd 10.421416237759363 7.620946753591337 9.473808956978404
Pd 7.907419667482839 7.681132852549184 8.853032100336934
Pd 6.363694060434184 9.700764883911258 8.033083743460875
Pd 9.267634054641537 5.333940361038575 9.049219021526559
Pd 6.538126816134665 5.35256949410832 9.179020007959188
Pd 3.7471919123146624 9.144930530876648 7.620429428864961
Pd 9.968775674230404 7.001931546898357 6.986547148383484
Pd 5.55806562133088 7.213416195408913 7.6507097017687835
Pd 5.394861914473531 9.211094006668006 5.547057484010829
Pd 5.2204399234717735 4.851349100808983 6.535342024041785
Pd 8.821093301029622 6.534797606948588 4.636734501798836
Pd 3.7106283905714372 7.120476116710436 5.795935453170826
Pd 7.823330993299616 8.409264741029805 6.251322890752876
Pd 6.147769745373415 6.76175278712476 4.8437177335649055
Pd 7.740202195236063 5.582517199628984 6.892945130167841
Pd 7.197152471924388 4.392400584448267 4.6390573012887675
