14
Energy = -54.07348432 eV
Pd 8.840289492445313 4.4282939569584405 6.235796446506431
Pd 8.77370404016436 6.224356758322478 4.330480476636707
Pd 6.622638532208022 4.739768382641458 4.819040502243398
Pd 6.546265154419239 5.162381408451543 7.40788773473664
Pd 8.478136536543492 6.977672728709816 6.836797455792618
Pd 6.496986757809175 7.356060652267127 5.124667575987524
Pd 4.406852061272046 4.166114598095592 6.184621508519328
Pd 4.340053585899654 5.987476870128749 4.302203565805911
Pd 5.16734076675806 6.215141745291181 9.349633333319616
Pd 7.794495493024068 6.378459843107501 9.353679828410513
Pd 6.404474650459947 8.224224947002792 8.13489799935767
Pd 4.49051623284104 6.733747373131074 6.825871109840268
Pd 7.683883111648338 9.447314650410858 6.16303542513233
Pd 5.063475148362938 9.27651677377722 6.149268094169057
