11
Energy = -40.9210219 eV
Pd 8.36346815258679 4.765891062473768 6.747063575100391
Pd 7.438024031593227 6.4039772312309315 4.876826082180546
Pd 5.8075166932095295 4.64751890449312 5.990188869197557
Pd 6.4379990929820785 4.344469518754941 8.546809316363092
Pd 6.151484042852278 8.340003918935967 3.763533535507045
Pd 6.808629870648486 6.811874692843536 7.704712945149552
Pd 7.13492915775047 8.882210202852718 6.097063549608325
Pd 4.348272508411756 5.88635180877672 8.025706029481167
Pd 4.951713851310723 7.277675066834974 5.780141452946146
Pd 3.3058324154833745 5.293180640684204 5.731858351890601
Pd 9.18604693121029 7.291696377408999 6.677681878314714
