16
Energy = -62.57980263 eV
Pd 8.407589664062904 6.658514962761602 8.462584754135182
Pd 8.852976332315203 7.313775795130336 5.867352558402948
Pd 8.452433517195228 4.638285367171375 6.5903569170433585
Pd 6.657357015082422 4.498450585524444 8.579943346351222
Pd 7.160816983147114 8.900127659981294 7.429439768071207
Pd 8.354182849503532 7.656850935057654 3.3211892986902454
Pd 5.805617909581218 7.3391999111354504 9.148592171621694
Pd 4.654041300578285 5.207037232926301 10.000357132721636
Pd 6.504140052945546 6.433909019197705 6.700181521519097
Pd 5.855931034609171 3.9981514281047765 6.044257162041599
Pd 4.104065081422957 5.5504321310840465 7.497724859775858
Pd 4.585239435271926 8.179287119076761 6.8701911743101585
Pd 7.293818104505197 5.463169921868949 4.318558210799691
Pd 6.401518006906428 8.433547310733049 4.90392907597468
Pd 4.598897914160192 6.192306958134953 4.923422639216693
Pd 5.8807653242622955 7.027857033489218 2.7544002563396126
