16
Energy = -62.20703872 eV
Pd 7.762977281612894 9.02679591573634 5.549925516256017
Pd 6.390480598387781 9.443860568424352 7.833465587120325
Pd 8.446213164590153 5.738514373638464 10.902272151414195
Pd 7.328521980790282 7.741599774314186 9.705252492936657
Pd 5.619203901125811 5.027275443421721 6.5054131102951
Pd 5.310495929502955 7.999871790766677 5.819596304118513
Pd 3.3253745549604248 6.431069801772126 6.589524386251769
Pd 8.941072217376451 7.861726806732423 3.5532339431202153
Pd 5.1131061845990615 7.0340239972584495 8.408098844591809
Pd 4.500071122204234 5.987085567587351 4.2896801572426115
Pd 7.423184410950286 6.8590671363122135 7.107262326061555
Pd 9.068362110157148 8.814066815677958 7.9406768109243036
Pd 9.724619932943822 7.122801112978299 5.950643276912115
Pd 6.868115062319053 5.064197631896294 8.932978939759147
Pd 9.50253513046013 6.26034424644671 8.575549711134952
Pd 7.1069140709372185 6.375673763854384 4.563396185880474
