15
Energy = -58.23223981 eV
Pd 6.1703731170294445 5.856970157658041 9.658538264864994
Pd 5.570198769475647 4.003664095907398 7.568163804468191
Pd 8.019922572189957 5.060757355086779 7.970241489284478
Pd 9.41935799461513 4.6929415778512595 5.785351743099742
Pd 5.987739083142527 6.664858866562477 7.20138928168531
Pd 6.849582527277665 4.827488454941615 5.404292313804287
Pd 4.333745869957196 5.449115261981899 5.680752788065888
Pd 7.08781345921592 9.250144879041917 6.8127180121811675
Pd 7.955168703793318 7.646770433011775 8.80356500633884
Pd 8.628084992390356 7.1712907437282984 6.238861652067685
Pd 4.482170423898894 8.550193026020226 6.285000663346769
Pd 8.50002052680775 6.161542007284613 3.820151981970243
Pd 6.42714326876191 7.519709451580341 4.7363624533776845
Pd 5.462478106975749 8.63778273599655 8.832932083406455
Pd 3.951874548179492 7.369164661529502 4.033492749782086
