14
Energy = -52.92892774 eV
Pd 4.283402499269143 5.158262245975821 3.523992802672469
Pd 4.297354951793752 7.715313539640025 3.5141957725943653
Pd 4.69765553234693 5.169469183483447 6.056555776645179
Pd 4.711861433609377 7.718218219248123 6.046903113395506
Pd 5.177590771050218 5.176383865712546 8.596615965214053
Pd 5.192465784922954 7.725290938113582 8.586815361335578
Pd 6.766263994094071 5.151125725577427 4.251292386246651
Pd 6.779638867979338 7.697799496180618 4.241842626359241
Pd 7.212402588545628 5.16901703366498 6.837192224924869
Pd 7.226758080618717 7.694961689931736 6.828214520952127
Pd 7.677366605612352 5.165148997073082 9.405798144995106
Pd 7.692095117941754 7.712107492713689 9.396641050029274
Pd 9.427359462518519 6.422414492948892 7.7055309291134995
Pd 8.95035770289179 6.41706047293086 5.100982811066117
