18
Energy = -70.24582578 eV
Pd 9.612276504860539 4.357288097905027 4.179728214532186
Pd 4.641718550091326 6.461379273646229 8.413388114176414
Pd 5.094916151810692 6.46695547858999 5.768770295785073
Pd 5.555750438443085 8.667470534326265 7.2919341601967815
Pd 7.326762570861651 7.956039758568555 5.381775828215159
Pd 11.589990906452833 6.95012212179162 7.474443188923505
Pd 9.233376972920983 6.885426340812057 3.8342513072608355
Pd 9.333828897742364 7.018555074729989 8.757024586720185
Pd 6.437691808598185 10.408192021231146 9.15946100969797
Pd 9.935392477231495 8.318154338739744 5.965213726263523
Pd 6.248207317878664 9.373603519469983 11.56359185930121
Pd 8.178662357476703 9.069758898897986 7.688681998199776
Pd 7.129971822081318 6.212663140529495 7.44381590500117
Pd 6.751358437160155 7.53334233247632 9.672409815084123
Pd 8.611903249656766 9.243778209068296 10.29721144053252
Pd 4.381375165676982 8.821086827304779 9.722121202559066
Pd 9.530653084886815 5.745029663046713 6.388089229255224
Pd 7.30148289492153 5.312474806292371 4.885392102226759
