18
Energy = -70.68252506 eV
Pd 7.032818305298738 7.134062885688859 7.414333304678663
Pd 9.346347287444413 4.873351143200852 5.56650063023239
Pd 6.79280394740154 4.785082435062602 6.166303479387674
Pd 5.4310074915533395 7.980237978538831 5.417886281368119
Pd 9.599340334436091 7.187651228719462 6.716150742651226
Pd 5.416821952126911 10.084069542276765 6.917429796762489
Pd 8.557272841315472 4.988419722151272 8.159976533310385
Pd 4.590189660091259 3.6094988781621566 5.375043673485086
Pd 4.345903862875409 5.894100184998059 6.570141666264214
Pd 9.647258877097213 9.496411823315945 8.025068360920095
Pd 8.890568779711618 7.295141932941365 9.339983192160462
Pd 8.989942686091918 9.567563984148576 10.544165091731811
Pd 4.759619863049706 7.888130692956316 8.310604423741646
Pd 7.794723192396192 6.8646198892181065 4.7027267360288345
Pd 7.048035557886183 9.38618347439611 8.828115139100955
Pd 7.809872671879159 9.238679163522127 6.104687412650377
Pd 5.459307745371777 5.704288125020125 4.045080211686776
Pd 5.803843964913149 5.2464425198297775 8.681774408774634
