18
Energy = -71.12597138 eV
Pd 7.458838410670242 6.101503244616695 1.9614771804155255
Pd 5.976265944728259 7.500918029254832 3.581852949558245
Pd 4.430111801433267 5.802184642074184 5.009125538756762
Pd 6.656032533218908 4.6598261097336975 3.9603919589895145
Pd 5.002381931691286 8.4081758820717 6.04261661431051
Pd 8.755802336652122 6.705741471806679 4.08170519207637
Pd 7.6545493424597835 8.90627283518206 5.278253078651658
Pd 6.800452346588859 6.488571486887794 5.906565883171766
Pd 4.734930928973693 6.229108605554338 7.6321139659946295
Pd 8.693875676466154 4.663958946216691 5.896425611673051
Pd 4.672929569989316 8.552363951928456 8.7916571374582
Pd 6.00800630601533 4.087145300181922 6.603456058852777
Pd 5.678847286573477 4.464526411050357 9.303723803009577
Pd 9.326191002986905 7.225158460647324 6.675885301284888
Pd 3.880740867362458 6.306249113108313 10.128018691334324
Pd 6.4053066069846825 6.994207002961333 10.082405065485908
Pd 7.759289039380168 5.655742823579034 8.22893144329143
Pd 7.128684629569569 8.290120830555681 7.868017830521496
