13
Energy = -48.43855961 eV
Pd 6.831896160611547 4.497614897507413 3.39434700462677
Pd 4.778744740606155 5.99814577268198 3.834179991647189
Pd 7.9955293944050245 4.013296780529621 5.611480187622425
Pd 4.434528436604791 5.729298360754775 6.374991480585628
Pd 2.9615153746567007 7.388905016444769 5.060409302713375
Pd 4.475398107920066 5.6063423875779685 8.924628102641972
Pd 6.5379861652648605 4.797475663903152 7.6281959400780615
Pd 9.144261852548071 4.62064571517498 7.798488038042206
Pd 7.006165406133915 6.311449676773544 5.2915310363325085
Pd 5.378667436030811 8.280539782311255 5.266249123806901
Pd 8.337927862700772 6.9850739261751285 7.330756079347762
Pd 5.775626341660565 7.5370233751349 7.8385784979551305
Pd 7.336892292528613 9.224004262675853 6.6420084522955465
