14
Energy = -53.92483346 eV
Pd 7.239904834567181 7.553398552670502 2.9817034493666172
Pd 6.987828225384955 7.615450443650063 5.604455769309519
Pd 5.028274433848103 6.728252052244301 4.0263834460044245
Pd 4.348323419633482 7.503324562452406 6.498072687412353
Pd 7.716924287716364 5.39353651443641 4.311766069469517
Pd 6.107074092021975 9.220100998548132 7.4979106221349845
Pd 3.1347133866364483 5.46213006323589 5.476450234388624
Pd 8.459166181039787 8.06198105594874 7.740169701142234
Pd 4.021926214105307 5.245905862099029 7.989777705843091
Pd 6.2594126742655245 6.700916507389655 8.248690931387834
Pd 5.694736115443607 5.07569398730206 5.956571860799816
Pd 7.598370628350953 3.252094920409693 5.952037927944315
Pd 8.316300742950663 5.542070509702716 6.9158504242152645
Pd 6.481648586238736 4.030108415635179 8.251478532016282
