13
Energy = -49.53437564 eV
Pd 9.4820154956316 11.818125209984442 8.801961046962422
Pd 10.507924009253154 10.496255285499458 11.093346988503727
Pd 11.533315166352372 10.020555878756385 8.558910786639135
Pd 7.805375179894354 10.721863707818429 10.712491849657676
Pd 7.214018527798698 10.41972163739539 8.022308814691483
Pd 11.113270746665878 7.908740302773966 10.314314076315757
Pd 9.538228391895807 10.005560078703994 6.630344662404779
Pd 9.168594373086894 9.164930495091733 9.16484514613411
Pd 6.798181982346375 8.316232941723111 9.77165108644037
Pd 7.825564858970079 7.8321876276056095 7.240066293393806
Pd 8.793231608279967 8.33002241697966 11.701983465782014
Pd 10.528290039359755 7.610788698723293 7.616182723793897
Pd 8.849608956465067 6.5126366949444385 9.529214035280726
