19
Energy = -76.01621727 eV
Pd 8.901969791457109 6.51861345544543 8.84960982996717
Pd 8.901969791457109 6.51861345544543 4.187617080923692
Pd 6.519355252437446 6.51861345544543 5.2659297587386025
Pd 5.770439909952898 4.219974002755836 6.51861345544543
Pd 7.25742873879354 4.245304251525409 4.187791728092286
Pd 7.25742873879354 8.791922659365452 8.849435182798574
Pd 6.518332462028437 6.51861345544543 10.3628964
Pd 8.47506297879973 7.941639472552174 6.51861345544543
Pd 6.519355252437446 6.51861345544543 7.771297152152257
Pd 7.25742873879354 4.245304251525409 8.849435182798574
Pd 8.47506297879973 5.095587438338688 6.51861345544543
Pd 4.104697244780713 6.51861345544543 6.51861345544543
Pd 5.770439909952898 8.817252908135027 6.51861345544543
Pd 4.587230666039349 5.119408469547153 8.849700371840578
Pd 4.587230666039349 7.917818441343709 8.849700371840578
Pd 7.25742873879354 8.791922659365452 4.187791728092286
Pd 6.518332462028437 6.51861345544543 2.674330510890863
Pd 4.587230666039349 7.917818441343709 4.1875265390502845
Pd 4.587230666039349 5.119408469547153 4.1875265390502845
