13
Energy = -49.25144245 eV
Pd 4.751601378219482 8.302229078673117 7.451784570356472
Pd 6.922496965843918 5.589034019907289 5.87922202760931
Pd 4.750931139709516 6.922496965843918 5.107950053847441
Pd 9.093392553468362 5.542764853014725 7.451784570356472
Pd 6.922496965843918 8.255959911780552 5.87922202760931
Pd 9.094062791978327 6.922496965843918 5.107950053847441
Pd 6.922496965843918 6.922496965843918 8.402470783606221
Pd 9.093392553468362 8.302229078673117 7.451784570356472
Pd 6.922496965843918 9.51728586647524 8.237420086810584
Pd 6.922496965843918 4.327708065212602 8.237420086810584
Pd 4.751601378219482 5.542764853014725 7.451784570356472
Pd 2.6988189316878413 6.922496965843918 6.666833577202251
Pd 11.146175000000001 6.922496965843918 6.666833577202251
