15
Energy = -57.55626446 eV
Pd 5.35274465697934 7.71077752729414 4.205338704971081
Pd 8.792704128514947 4.82212244155284 6.426478315401338
Pd 7.274004229859728 9.250351641789488 5.127121564034805
Pd 7.434989545606078 6.553145281613105 5.084102038413628
Pd 10.586488701396652 6.336100136298351 7.343333977331372
Pd 6.865504292226734 4.042625233522218 4.955605709904515
Pd 8.581129823038726 7.9650113803942295 7.0873165035030965
Pd 7.039455006978876 9.90183673066268 7.7532438597254325
Pd 5.236424163029677 5.391185652729839 6.399876083686064
Pd 7.144615385920689 5.918973621017875 8.01573364153369
Pd 5.5581747824120455 8.019410184407075 6.748544068382871
Pd 3.6298544739391017 6.685980570394609 7.904827691788485
Pd 9.073372361045072 6.8670846429401085 9.382916674868879
Pd 5.603766365485931 7.469994252615696 9.291627223717146
Pd 7.608188258603598 8.846098224211236 10.055555523196714
