13
Energy = -48.80874456 eV
Pd 6.523678764893613 6.523678764893613 6.523678764893613
Pd 8.421749380000001 8.421749380000001 6.523678764893613
Pd 4.625608149787224 8.421749380000001 6.523678764893613
Pd 4.625608149787224 4.625608149787224 6.523678764893613
Pd 8.421749380000001 4.625608149787224 6.523678764893613
Pd 6.523678764893613 8.421749380000001 8.421749380000001
Pd 6.523678764893613 4.625608149787224 8.421749380000001
Pd 6.523678764893613 4.625608149787224 4.625608149787224
Pd 6.523678764893613 8.421749380000001 4.625608149787224
Pd 4.625608149787224 6.523678764893613 8.421749380000001
Pd 8.421749380000001 6.523678764893613 8.421749380000001
Pd 8.421749380000001 6.523678764893613 4.625608149787224
Pd 4.625608149787224 6.523678764893613 4.625608149787224
