18
Energy = -70.96017688 eV
Pd 6.054241196759696 3.4040305419608323 6.513809719929966
Pd 3.525145216105189 3.7068419826591876 5.827899034298146
Pd 8.629043403308412 4.1200007116242245 6.999819600272599
Pd 5.349640990031297 3.8132284780323467 3.925653263200541
Pd 4.237072021120567 4.575530382464455 8.242754925123016
Pd 9.028535379229353 5.842779201966266 9.080969377370463
Pd 7.273755444956867 5.2753987038858865 5.046922417387493
Pd 6.667696637853901 5.591908418449712 7.940422745477924
Pd 4.745502353980223 6.013028785947027 5.993721493235745
Pd 7.424657993690647 8.016256287892485 8.900392897952031
Pd 4.67486728557634 7.1253649836408 8.642648679522479
Pd 5.525121117475964 6.39911674123206 3.4918265271837585
Pd 6.0610146812233205 8.148670247450617 6.712874699260938
Pd 4.565323149242579 8.505324648235066 4.64886322323159
Pd 8.725348565606554 6.772789075564448 6.658552881815599
Pd 7.511044527707996 7.8981899051197475 4.520024077866114
Pd 8.419751230353961 9.365320198035777 6.628644390578501
Pd 6.438360456180873 10.27306683964588 5.0138994288928105
