14
Energy = -54.20942668 eV
Pd 5.441439989573589 6.193537301435133 7.944417566082503
Pd 8.074951643455943 6.441237691866609 8.339364997737215
Pd 4.3550651974141115 3.7511965531593936 8.267264296597569
Pd 6.963892937981132 3.984772129940197 7.9333675612666354
Pd 3.1717002868911828 5.46641099985396 6.642564525643417
Pd 5.315233962821509 4.107395114036128 5.778338539173987
Pd 7.455793591129678 5.656601281376634 5.930558136898919
Pd 5.005818147995901 6.9714815373591374 5.453245551977208
Pd 9.168998980181655 7.643300864204614 6.186573747729799
Pd 6.751513330086874 8.335270861319998 6.933618146587982
Pd 7.256106180118485 7.714207880626437 4.28363771999622
Pd 5.009438361968746 7.327473360366025 2.84043186370693
Pd 3.705126603082911 5.256703257631093 3.97799263568276
Pd 6.373698934265079 5.1991893137910505 3.537402857885525
