10
Energy = -36.11180868 eV
Pd 6.85833190276447 7.030539215121302 3.281998464634222
Pd 4.778990334249765 6.838084791655566 4.83117909904285
Pd 7.313250214214559 7.351647221568536 5.797113507341059
Pd 3.2048458116000966 6.512592178092104 6.869408647907133
Pd 6.669207418576726 4.896317303566249 4.654917060383085
Pd 7.155330298827852 7.008685889216807 8.41544902123266
Pd 5.5332489053685805 5.421391165858386 7.076380377203131
Pd 8.152127647532348 5.092138307054464 6.83379221083274
Pd 5.113249718323148 8.160792080259501 7.189685324130429
Pd 9.219861086893639 5.686255185958386 9.048519625644012
