17
Energy = -65.43738783 eV
Pd 8.154765856983408 2.5254720965498376 7.181318048127294
Pd 6.435558698902481 6.49906536165731 8.399445718280171
Pd 6.824687269425632 8.898134574110056 9.413970198731377
Pd 3.2974203182796815 8.29419247847566 5.649932414790123
Pd 8.545327543522525 4.869392044120403 8.213087369808685
Pd 8.436290993803741 9.513216737299606 7.51309599244903
Pd 8.150246585807432 7.066195767289064 6.588446346137462
Pd 4.9609061707250595 8.640624786651165 3.753214621757422
Pd 6.435121494933902 6.65767197495947 4.566694213347581
Pd 8.999310431986824 7.337911538419046 9.068686474660552
Pd 7.862785684780801 4.630712593693042 5.6194211025598095
Pd 6.321237152426672 4.274058940670804 3.573360597721892
Pd 6.0541648750955925 4.111915202810962 7.340431317872752
Pd 5.0445296307095795 8.570126917572768 7.521785749463215
Pd 4.494389346057457 3.843115476378905 5.290384833625728
Pd 4.677805437230471 6.201719758054298 6.331594201850866
Pd 6.660924574663358 9.07568480360407 5.642159190259878
