17
Energy = -66.5998859 eV
Pd 9.813817885092256 6.147736491093522 6.276019346078438
Pd 8.734197335717576 7.491861494790191 8.450539010561652
Pd 9.3293139106174 7.254798307617886 3.8912769786302883
Pd 7.81874701618519 7.864249622734623 5.973864819547878
Pd 6.740850122031355 6.197532426970815 9.752254469853922
Pd 6.214132357165863 8.071198329525803 8.079922474684325
Pd 7.431988608026545 5.501733659565207 7.2624401092480655
Pd 7.820738134247306 5.264255512801734 4.68916420653947
Pd 6.749389532021424 7.539505095747923 3.541473193421271
Pd 5.826338301976824 3.896204101296414 8.598780201426854
Pd 5.139667836418784 5.521888409956091 4.307880724565644
Pd 3.676305443793372 7.913662744764904 7.808377680048265
Pd 4.809238591971655 5.736687504501319 6.87033941697535
Pd 4.191924233361173 5.8812898160319165 9.409652334848571
Pd 5.157322548913113 8.101603173939571 5.652378036333355
Pd 6.091667977982855 3.6520491020900057 5.86419764068125
Pd 4.179421074136501 7.697783243829807 3.3152749792280716
