17
Energy = -65.92039798 eV
Pd 9.07232543688029 7.7229258588549845 9.281393390041137
Pd 8.976375097114063 9.072161078029369 7.004827288256281
Pd 9.606752055072558 6.4866342494083735 7.066791573293233
Pd 8.326639908356835 10.881129036430108 5.357751301606057
Pd 7.176150904284692 7.082787065670247 6.378904297269938
Pd 9.498953446885885 4.234401250526494 5.785598583438026
Pd 6.753619983443742 8.575819213299106 8.463774327782257
Pd 7.489659982524484 5.219270072708665 4.648160504667014
Pd 7.012043835898453 6.200131100566398 9.720021788672053
Pd 6.272194265676996 9.596603240206038 5.99463845172747
Pd 7.784689469714311 4.833038481049103 7.697081375466883
Pd 5.426672606769723 4.845989549268217 6.270343793274251
Pd 4.823931686061621 6.620188480416153 8.215466716121798
Pd 5.142336541710912 5.73685814422368 3.8411628079366067
Pd 4.315815024515075 9.111212689748445 7.680693269499359
Pd 4.70723467494812 7.495426072077101 5.650926196979056
Pd 5.491543961490573 4.181436360831805 8.823518070825347
