15
Energy = -57.72763481 eV
Pd 8.54189147070211 5.641731988976924 7.716006918139425
Pd 8.99792146326893 6.749898835039473 5.486986680250623
Pd 5.877654647243849 4.522130959737241 3.3467929877131013
Pd 6.137619163681088 4.912890824624968 8.507835734273291
Pd 7.1599102781371275 7.21498547925994 9.422015801706015
Pd 8.589766230317691 8.398681338862255 7.493388055978888
Pd 8.50730394821045 4.708366242455896 3.906948959791219
Pd 6.987952156929434 6.903039610494634 3.851480276130847
Pd 6.715179870823968 4.724334280719608 5.843728125738712
Pd 5.9459905956320425 9.175991156502366 8.109013604711652
Pd 4.5545788493325166 7.040764610857375 8.884506040322071
Pd 6.398614083812794 7.177129293827245 6.5528282048560476
Pd 4.174715009478108 5.357054921121475 6.8155525355318325
Pd 4.532099514495691 6.433945663300337 4.551772656625811
Pd 3.8812080610999664 8.081540594700154 6.507811973232209
