14
Energy = -53.24792965 eV
Pd 6.753897184096542 8.58233024896982 6.753897184096542
Pd 4.925464119223265 6.753897184096542 6.753897184096542
Pd 5.404685402030268 8.103108966162818 8.99264240192638
Pd 5.404685402030268 5.404685402030268 8.99264240192638
Pd 5.404685402030268 8.103108966162818 4.515151966266709
Pd 6.753897184096542 4.925464119223265 6.753897184096542
Pd 8.58233024896982 6.753897184096542 6.753897184096542
Pd 8.103108966162818 5.404685402030268 8.99264240192638
Pd 8.103108966162818 5.404685402030268 4.515151966266709
Pd 5.404685402030268 5.404685402030268 4.515151966266709
Pd 8.103108966162818 8.103108966162818 4.515151966266709
Pd 8.103108966162818 8.103108966162818 8.99264240192638
Pd 6.753897184096542 6.753897184096542 10.831733999999999
Pd 6.753897184096542 6.753897184096542 2.6760603681930806
