11
Energy = -40.34371184 eV
Pd 6.098156475538738 3.8644430796869487 5.21378996889466
Pd 8.23955280600505 5.324564631947098 5.045800862833301
Pd 5.903261566087846 5.929236696085373 3.562668910047743
Pd 8.100776662433844 7.32249153430947 3.361985043247827
Pd 6.8511521407120215 5.340996480605297 7.318622115846554
Pd 6.929031482335508 5.908941013553278 9.85353480982287
Pd 6.735156258772932 7.482226748652839 5.57901152740255
Pd 4.608560977232912 5.92802950764846 5.930250868700369
Pd 6.887239724145777 7.931306707348537 8.184773724245147
Pd 4.6678848159099875 6.25205244151754 8.601274793725699
Pd 4.6050668064997256 8.358548626844028 6.995732616799711
