10
Energy = -35.72585778 eV
Pd 3.254253572963783 7.849688522793456 5.611418300352823
Pd 4.911564343098563 5.99260774862479 5.478195147349878
Pd 5.488431180950203 8.44660039624101 6.700075799769744
Pd 7.5369315763043305 6.925203648939563 5.858351007101179
Pd 6.873047678507136 5.176655972555123 3.9414392176159914
Pd 7.670413486487557 8.257932362882983 8.055613573978386
Pd 9.150467937334641 5.044729333933431 5.128442167831054
Pd 6.0236735799676815 6.253982627816667 8.038123495918091
Pd 6.99737553419518 4.279462021824564 6.381218647512636
Pd 4.562417901078323 4.236973493553668 7.275403572181539
