13
Energy = -49.27631212 eV
Pd 4.786872694073165 7.7813870422577915 6.2027397868584355
Pd 6.601383770681366 8.305351985227876 8.053241843136997
Pd 5.683635210726887 7.785664373022881 3.632238055310621
Pd 3.1849075650154437 5.459849632199062 6.614509936794506
Pd 4.950758268110333 6.199356252459162 8.390185112585003
Pd 7.386567047496567 8.295562315602172 5.477928933864193
Pd 5.186241644047695 5.55572813187435 4.9484692387814535
Pd 7.082339491366583 6.043767575940755 6.870315886595882
Pd 7.608729614013459 5.95164079814033 4.1566576208843795
Pd 5.317410558466821 3.8789092221406154 6.9823946632505
Pd 3.8335599508408142 3.352329999260901 4.899059125349944
Pd 6.288332989174096 3.5593152129679932 3.710095767434512
Pd 7.705127668986598 3.7427546132304776 5.823459634967357
