11
Energy = -40.36582039 eV
Pd 8.147426910953692 8.507193303674704 8.344850665731895
Pd 7.552878470641334 8.278614472448362 4.192062374796269
Pd 8.030600051578734 5.948134705966479 8.75858213071692
Pd 7.000812531963067 7.181271806365329 6.460596841593597
Pd 7.690899629200936 4.583007787076131 6.495972958617327
Pd 5.173860580966115 7.2548941041033315 4.302470128421296
Pd 7.3856237556431505 5.687988380912723 4.117295123301364
Pd 5.808082310460382 7.550056287313905 8.970773118836634
Pd 4.354262454966561 6.997294757809811 6.811024176606111
Pd 5.233343780029576 4.869393042686384 5.463247214990398
Pd 5.628282894968011 5.042608603845424 8.078386411291172
