12
Energy = -43.9438953 eV
Pd 5.088035001526947 5.09085370294102 3.8543182318070817
Pd 5.100683158398403 5.098234895663084 6.370907564738773
Pd 5.101382201295439 5.092983681892902 8.88744065916189
Pd 7.636566903687319 5.0942007492169665 3.848519588581003
Pd 7.6372525923688706 5.1006796995951005 6.365089706099297
Pd 7.649556914691346 5.095433927098612 8.881687993142208
Pd 5.085926758583778 7.639376673866291 3.8541341626297863
Pd 5.098077705180844 7.634853821190644 6.370743401518097
Pd 5.098340329728231 7.6411788139137595 8.887304159070888
Pd 7.634410133179161 7.642728409074139 3.8471961031985336
Pd 7.634661463037169 7.6372792211550085 6.363710858798436
Pd 7.646543502541978 7.643633068612212 8.880384175844219
