17
Energy = -65.81135329 eV
Pd 8.946716600683196 4.854995921326994 5.059039291435252
Pd 9.911899042240446 6.992666800838643 6.234758137829925
Pd 7.255021240904444 6.6360774458218605 5.973129263516143
Pd 8.218532418687598 3.7864785875414086 7.242581776074851
Pd 6.5171742604701555 4.884811261170737 4.064620310802957
Pd 8.113562285256506 9.106912798055829 6.039049262535667
Pd 9.3663057052351 8.608662055450846 8.320606031759718
Pd 5.388431746773368 7.416368357110381 4.305285761513544
Pd 8.424485137335465 6.126149666024489 8.259766521970658
Pd 7.03855536101906 9.901281538395256 8.35067687300881
Pd 3.971723954537816 5.247882278232651 4.880681015992
Pd 5.847925637242868 4.522198143439834 6.610201655531484
Pd 5.595185632898812 8.515382478887567 6.742523557951682
Pd 3.3247874184930333 7.580509763912137 5.991718307701736
Pd 7.34954587358764 7.862693511230635 9.940001504267437
Pd 5.7844194907556234 6.49763334369494 8.403669853505871
Pd 3.567072362599925 5.49555042619924 7.531353409711602
