14
Energy = -54.01782281 eV
Pd 7.171163444058937 9.387796486080243 6.69243244552423
Pd 8.585410963006646 7.47363256612003 5.352111734449922
Pd 7.280003656533198 6.977611250759975 7.649756254047637
Pd 5.90811360349011 7.631478071970477 5.250088367585315
Pd 4.891458691130086 8.204168931749921 7.662783495511585
Pd 9.303473015640959 5.456107094621109 7.055465671645662
Pd 5.5244973349186814 6.205880242604031 9.408808770398467
Pd 7.111575467224538 6.4880435835237655 3.254140264959349
Pd 7.2648162157238385 5.142432966818504 5.4763454127186755
Pd 6.99960956674103 4.340786701561438 8.031285674113116
Pd 4.886716221526331 5.605930376860272 6.962717600843353
Pd 3.366967160720166 7.225838602906986 5.610307529461606
Pd 4.863120278959467 5.341279378049371 4.296356672764524
Pd 5.531470563749982 3.2801216649475635 5.994049993622089
