18
Energy = -70.77513809 eV
Pd 9.041721713053123 3.4280678219188374 5.842248251861657
Pd 9.827978266064022 5.803676699751981 6.816915244891631
Pd 7.613135916745509 4.636879636754158 7.613900161074084
Pd 5.034780929450683 4.072062761377871 7.824790058416845
Pd 8.039985101488531 7.362771212748013 8.086627080810098
Pd 6.222698244284711 5.792193278394258 9.51207933000241
Pd 6.835268904143308 4.763683969434181 5.009792641661521
Pd 9.439210878442804 5.3551826022728335 4.107744010993384
Pd 5.751924308353522 6.385331346918674 6.812297251089579
Pd 3.726654589530336 6.387932903520583 8.535364267617462
Pd 7.264962967106623 6.322674747632511 2.914759839128653
Pd 8.036439985486297 7.11763505916543 5.428206996509175
Pd 5.563712815239252 8.243479311874307 8.903818919690943
Pd 7.547202365264767 9.934132962397204 8.531411129590973
Pd 5.503003649863922 7.422488598489927 4.4522292765785
Pd 3.99536863307019 8.323106399726209 6.557598202571119
Pd 6.573886205953599 9.067780218195841 6.2462623241285735
Pd 5.069408033278976 10.54750098593436 7.809316293888072
