14
Energy = -53.85026037 eV
Pd 2.7978818644432084 8.10358033970106 6.5385723595526
Pd 5.330103205595803 5.640342344694295 3.5324579647610954
Pd 3.8576699984609824 5.987372718061174 7.730617714346412
Pd 7.1032169476671285 3.69697173727492 4.306061810038144
Pd 5.174430612708014 7.46397404521619 5.498452673890848
Pd 3.106132797508723 5.855257841031921 5.111951648531043
Pd 7.475457217891455 6.214257050019155 5.032500785350174
Pd 7.624976407563909 3.95672976425019 6.974641107062348
Pd 9.062513322265232 6.273600371673587 7.147167704312166
Pd 9.516287428722423 4.489926298895235 5.185437374267755
Pd 5.268889750232355 4.614635872053582 5.962546408840334
Pd 7.4377592607083045 8.39240253886743 6.60630504916199
Pd 5.062194975248934 8.426469824723396 7.956263617067836
Pd 6.493858490177306 6.219724022410971 7.75858633483864
