15
Energy = -57.13660764 eV
Pd 8.264718489232989 7.934315443883321 8.649811843167749
Pd 6.230864930596336 8.395459869619604 10.200700639345476
Pd 9.348966562321513 7.784954195463545 6.2103838135394325
Pd 6.615225753550859 3.7372562556934854 8.007721661514157
Pd 8.499827919276983 5.65608441990665 4.622443521713345
Pd 5.340614179107309 5.582007981246676 6.776816665172425
Pd 10.466497293440273 5.453772457725944 6.278783390127102
Pd 5.831596997562892 8.046118414518913 7.68341819286169
Pd 5.909805008387417 5.407830333175383 4.249801934262454
Pd 6.400747036191218 5.942106196160374 9.333023234530819
Pd 7.645882963682545 9.722592371555011 6.748907570310508
Pd 3.6278800875092947 8.918170905006194 6.9260652020670745
Pd 4.277557141520501 7.286303165983366 5.122645854796346
Pd 7.9807742147221665 5.71008882344531 7.134586435233672
Pd 6.812852660016862 7.689027110444359 5.271432017683647
