10
Energy = -36.11503774 eV
Pd 5.593890753396983 5.018689348049938 7.764718281255464
Pd 7.06537297950958 4.636190459392008 4.520301883713919
Pd 4.78087065442128 5.489786760887735 5.424724774829124
Pd 7.885546250936644 4.198735818067319 6.855006389968075
Pd 3.130550404276218 5.887272932655992 7.434916386186688
Pd 5.035548872048312 7.541631545741731 7.101887370771159
Pd 7.687883099218392 6.726504364716659 7.38910666566801
Pd 6.889842133664619 7.1702740602395165 5.0501008175356406
Pd 9.132161636742115 8.24512716311492 5.8326490442528645
Pd 6.945975886276044 9.237160605926732 6.773481366984057
