10
Energy = -36.25860151 eV
Pd 6.728753364326341 10.121980770433495 7.243444649733849
Pd 6.1435394523184055 7.979682201942139 8.51514486574786
Pd 6.188179678614672 8.092673418235217 5.780162922294172
Pd 5.678736910500495 5.706336826588142 9.597814682205044
Pd 5.622723362418626 5.730848295143498 7.038599447727675
Pd 5.756131848673211 5.9261546146483495 4.488706048785213
Pd 8.521825847122154 8.290919641156428 7.187265988781377
Pd 7.9579248773420375 5.936251135178233 8.456966062417523
Pd 7.998419117664039 6.03433244136688 5.72090946109066
Pd 10.120583552464446 6.284768098712838 7.134176440125671
