13
Energy = -49.50145547 eV
Pd 8.754450500151568 7.268675466929431 6.337682066825094
Pd 7.169131703289112 7.895566457967976 4.245858042472618
Pd 8.733587767956612 4.774642976324223 7.439830471820609
Pd 7.314737120557027 5.372063234404294 5.284992764144443
Pd 6.651637879494638 8.934743319506426 6.601696846792925
Pd 6.7467136828155105 6.495868892575667 7.795268865369312
Pd 5.464484423469693 3.5214412449373675 4.8509526561121925
Pd 4.471575777667913 7.765742957229311 7.678135141669058
Pd 4.684544844022589 8.171930198127638 5.0350443321292095
Pd 6.28767270667545 3.832621045166035 7.323128112682247
Pd 4.614486776493465 5.238352550759202 8.741709259353856
Pd 5.382146857841014 5.9707132128020115 3.6470670782805668
Pd 4.644727784800444 5.683743574527932 6.128819673892178
