18
Energy = -70.49846215 eV
Pd 5.265879518660391 5.729187882620369 10.161818129170907
Pd 4.350134816058786 3.64284443222799 9.086457246436442
Pd 6.589231177163044 7.366153988133807 8.761814105255295
Pd 4.8350965521009535 8.440215186342392 6.968418363368984
Pd 4.23448944171266 5.8165687294087185 7.600401503537284
Pd 4.225926363606555 2.580591108791227 6.833773572855231
Pd 6.613293690189252 4.477184920846368 8.016534555723764
Pd 7.675007054102966 8.829568268402825 6.8344318836641405
Pd 8.736423491260904 6.291897384920945 7.56547554047358
Pd 6.47227518167941 6.535895285231344 6.285663045658661
Pd 5.341070816563195 4.281653920917736 5.395687289809077
Pd 8.805878199724884 7.058996776235093 4.961055311747029
Pd 4.19902342028083 6.7115778603348755 4.9799696120031305
Pd 8.54801024342728 9.648664458863662 4.472346750962683
Pd 8.024922704514879 4.529947869295548 5.605084364501863
Pd 6.108929343705955 8.593163104243699 4.53064588316901
Pd 6.555199972545271 5.925212060736853 3.718412218074983
Pd 7.875253421256645 7.964464429269772 2.655925893787127
