18
Energy = -71.63971676 eV
Pd 7.562024235888342 3.798123171932345 6.615977562778983
Pd 8.332113607235767 6.531827401435849 9.974733266447224
Pd 8.865875634307006 5.935171188893894 7.438385689074352
Pd 6.56527544498501 5.02654255286181 8.773557484418696
Pd 4.757722823607307 4.268303871130903 6.725832504792573
Pd 9.323399336749056 8.352078760951873 8.4153679276194
Pd 8.26471871252653 5.687632307349611 4.754862478233982
Pd 6.129906971097311 4.01769812023167 4.42088246036782
Pd 3.572389159509975 4.833535610376089 4.417426446815988
Pd 8.324926899934141 8.185285617673495 6.028530732400982
Pd 6.335441065902004 6.3087697107424425 6.353404049919472
Pd 3.7773646005822465 7.027319999450537 5.809545986598079
Pd 6.681200458240865 7.918168874747821 8.432059475767357
Pd 4.4148114102855995 6.481791373522375 8.312530803690942
Pd 5.563865597977861 6.481940688906009 3.793618325093033
Pd 7.709785034173339 7.960970828100568 3.504194551876503
Pd 5.897459666430521 8.742114012441345 5.308410818290069
Pd 4.468587475340978 9.005603765036739 7.451839542623913
