13
Energy = -49.70006225 eV
Pd 5.444399979532741 8.892067347414153 6.853004162123256
Pd 5.444393252097464 3.525026850020225 6.85300528336247
Pd 5.393433684717189 6.208549901815094 6.866433830098852
Pd 7.679036681436277 4.822470901748681 6.020873379441563
Pd 7.679040045153788 7.594614325772125 6.020866652006284
Pd 3.910537456159891 4.829747167565856 5.098645491924817
Pd 3.91054306235608 7.587348151107857 5.098652219360092
Pd 6.940941023012791 4.8771865207079745 8.607566463675061
Pd 6.940945507969641 7.539876282028699 8.607560857479125
Pd 6.091229410713587 6.208551023054433 4.266625525471875
Pd 6.102017475487926 8.832054182211971 4.325072925502629
Pd 6.102014111770288 3.585043378939918 4.325066198067352
Pd 9.072530455292549 6.208526355792007 7.767689520904507
