18
Energy = -71.54922994 eV
Pd 7.278715594538344 6.128083673514547 4.876884816470885
Pd 10.376581835885801 7.625553493600465 7.985823801296033
Pd 6.890270755897532 6.797174264512292 7.529477134478571
Pd 8.989174483765122 5.460158153714245 7.095889309539307
Pd 5.8153470224890125 8.474583108110844 5.63113807093668
Pd 6.519621113200843 4.241842281242909 6.531721232796544
Pd 7.598539277560304 10.440509241812828 5.377135529375798
Pd 4.773669311793543 5.261702385280859 8.458825649443861
Pd 4.740512545696405 6.120754274323415 5.912324199943175
Pd 7.562241812307266 8.429721796071938 3.6576099102993314
Pd 9.101169116581751 6.088244084683648 9.72785121193342
Pd 9.213849560730983 10.200879166628473 7.551076246448965
Pd 4.692188020907047 8.008488732861661 8.074594738947212
Pd 8.703604512270818 8.091205232225262 6.040032547530389
Pd 8.129834710593734 8.42687375431488 9.12997574853335
Pd 6.337582526791743 6.752894921234469 10.092105171490882
Pd 6.548206978857079 9.87897455747712 7.799239720410804
Pd 7.22381466432919 4.3990625650893325 9.065871000141994
