12
Energy = -45.3764258 eV
Pd 8.056982677829202 7.293424633435633 6.845377462987321
Pd 7.96645108936074 4.673253391416723 6.845377462987321
Pd 7.027085392936032 6.151978599283338 8.983517641287
Pd 5.659841271340549 8.428172299558124 8.180123873093324
Pd 5.659841271340549 8.428172299558124 5.510631052881314
Pd 5.40002624983147 6.156839494210092 6.845377462987321
Pd 5.797753365480462 3.933925825242121 5.508699111498157
Pd 7.027085392936032 6.151978599283338 4.707237284687642
Pd 5.797753365480462 3.933925825242121 8.182055814476481
Pd 8.121661725115432 8.57544886908574 4.542210961234505
Pd 7.508385980260959 9.841960899267477 6.845377462987321
Pd 8.121661725115432 8.57544886908574 9.148543964740133
