26
Energy = -106.20825978 eV
Pd 7.473320893715268 5.642625765601753 7.473320893715268
Pd 6.557973329658511 9.83992408 6.557973329658511
Pd 4.8830002085775215 8.232946450739503 4.8830002085775215
Pd 6.557973329658511 6.557973329658511 3.2760225793170243
Pd 9.284166601922504 7.262190150468665 3.831780057394514
Pd 9.284166601922504 9.284166601922504 5.85375650884836
Pd 7.262190150468665 9.284166601922504 3.831780057394514
Pd 7.262190150468665 3.831780057394514 9.284166601922504
Pd 6.557973329658511 6.557973329658511 9.83992408
Pd 4.8830002085775215 4.8830002085775215 8.232946450739503
Pd 6.557973329658511 3.2760225793170243 6.557973329658511
Pd 9.284166601922504 3.831780057394514 7.262190150468665
Pd 9.284166601922504 5.85375650884836 9.284166601922504
Pd 8.232946450739503 8.232946450739503 8.232946450739503
Pd 5.642625765601753 7.473320893715268 7.473320893715268
Pd 5.642625765601753 5.642625765601753 5.642625765601753
Pd 8.232946450739503 4.8830002085775215 4.8830002085775215
Pd 9.83992408 6.557973329658511 6.557973329658511
Pd 7.473320893715268 7.473320893715268 5.642625765601753
Pd 3.831780057394514 5.85375650884836 3.831780057394514
Pd 3.2760225793170243 6.557973329658511 6.557973329658511
Pd 5.85375650884836 3.831780057394514 3.831780057394514
Pd 3.831780057394514 3.831780057394514 5.85375650884836
Pd 5.85375650884836 9.284166601922504 9.284166601922504
Pd 3.831780057394514 7.262190150468665 9.284166601922504
Pd 3.831780057394514 9.284166601922504 7.262190150468665
