23
Energy = -93.15651689 eV
Pd 8.24496709236172 9.851706041507045 7.96166073604964
Pd 8.177180666024958 9.677967874777918 5.199516505527657
Pd 6.1690798504261 9.009108573767552 6.7009342003097565
Pd 6.213960299314705 8.475768705308138 9.334000875902358
Pd 8.011761518002261 7.20566474984102 7.807495317762649
Pd 10.052461886224297 8.361899561080778 6.545450983416732
Pd 3.8961899069825674 8.77958365163143 5.382790496595725
Pd 6.189953168837343 8.312111459285653 4.020484913089207
Pd 4.123085453944226 7.621971283872488 7.848269541942511
Pd 7.746220862474508 6.646059507148275 10.452175624038468
Pd 8.244671389932234 7.003105581803434 5.147015686089995
Pd 9.61815733201459 5.441937274197663 9.136063364311028
Pd 2.728077548560203 6.4544160500319006 5.855901535820364
Pd 10.115419451258429 5.692610303490421 6.5623991140383895
Pd 5.9295642067796885 5.780653040846878 8.85823847319876
Pd 4.068860580476792 6.785736621227087 3.6228774619152393
Pd 6.3901462602085966 5.546352611876383 3.7262550996606776
Pd 5.618002691845826 6.4834342159694645 6.036672196880436
Pd 8.465819148220241 4.352608845651782 4.844974642350865
Pd 7.888182611930727 4.546284175042675 7.440287627314948
Pd 4.045202936383102 4.758797340000873 7.276295948228866
Pd 6.00692484053487 3.84655521849837 5.733671000672872
Pd 5.834756995899615 3.1649368288968143 8.295705709023048
