21
Energy = -85.02315197 eV
Pd 4.180223969187701 9.53052686581462 4.419833756927981
Pd 4.166155443101469 6.865966075866464 4.209437464618143
Pd 3.9967435305005172 8.18405998274346 6.622567160754758
Pd 5.963246547450082 10.110133988711816 6.438895285176962
Pd 6.399948670229819 8.20906236550134 4.681186658349523
Pd 4.461086633754125 4.2329203003739035 4.307047430875236
Pd 4.5489863088990194 5.577999354042119 6.534287482268223
Pd 6.622368137365511 5.61334989871762 3.889755771437409
Pd 4.142522544722668 6.768195899242358 8.855519442100123
Pd 6.221672502453151 8.157360813397514 8.136486760671277
Pd 7.105094900080838 6.350646910085986 6.3875004803655155
Pd 8.3636049206439 8.739173854175464 6.568765126423652
Pd 6.476718583191916 3.7284290605053414 6.0312852507249035
Pd 8.52595416599519 6.949855163853712 8.693534320078944
Pd 6.1452877477818815 4.918554893970778 8.519903726892933
Pd 8.775750377338927 7.209269542513749 4.2508124597774595
Pd 6.449117210371792 6.767168401628703 10.381325136406481
Pd 8.853641327629 4.5939761651361195 4.965627796336941
Pd 9.96018500095015 6.506138978217431 6.519804317047709
Pd 8.616556405999143 4.367562406549807 7.59733735331648
Pd 8.235028997040027 4.8183088295335965 10.184651510855117
