28
Energy = -115.14987195 eV
Pd 4.795774473690235 9.359205091942075 5.433741231944977
Pd 6.6339595600729835 10.20664277746907 3.671256904449848
Pd 3.418894922709547 7.147521264073621 4.670413525505709
Pd 5.805362885092299 7.696411455738999 3.6364857428280235
Pd 5.9554306831808 9.554493108269838 7.78196146755826
Pd 4.268836889430723 7.431806340550226 7.233873836203004
Pd 5.141803165573562 5.238837608810308 4.078649503773345
Pd 7.3290544005825495 8.633770286142521 5.6893970637916125
Pd 6.367902925713882 6.187953935200718 6.242314045971484
Pd 7.3689205296040665 9.57597234036768 9.993041355747165
Pd 3.635443685362771 5.021352543202883 6.222333399591714
Pd 6.4325392430206145 7.22484670434026 8.839310039406802
Pd 8.367520541669332 8.188304560601981 3.214278031300288
Pd 8.770008605048014 9.156037227631625 7.841574814897121
Pd 4.696900166281616 2.831914061167194 5.020681138881299
Pd 7.165495600175286 5.760034459670615 2.4750894094828166
Pd 6.873962719599384 7.534046106755535 11.555089012092136
Pd 9.90125504765325 8.31125248996226 5.490805414304601
Pd 8.583759990885962 6.044773568875155 4.724134776343189
Pd 7.218865885741 3.7595842237521544 4.3704061002734065
Pd 3.924883461531426 2.807523787978914 7.5682391085667176
Pd 6.16163869201844 5.218177947017465 10.775934985221088
Pd 6.356663462378502 3.5909311463287685 6.928043631747701
Pd 8.898371159839385 6.639568299058204 7.282254049616212
Pd 8.865176195280258 7.272988909491555 9.834422248859017
Pd 4.8654599288713785 5.11582262637353 8.567922847223082
Pd 7.77682835883147 4.8362555721393425 8.814258310563673
Pd 8.888826618062364 4.123511354989397 6.513627801757112
