27
Energy = -110.61197647 eV
Pd 8.095185013463912 2.155132308545542 5.277660392660743
Pd 8.996332900984914 3.5392164488487516 7.359959404777235
Pd 9.556307003101297 6.141390232101388 4.847985615128747
Pd 7.402688768482621 4.718112887970086 5.573155198061683
Pd 6.953776270565088 4.709533833775153 8.587964609722214
Pd 5.536942056599744 2.7322394854301804 4.977075318611078
Pd 6.535624383770466 2.423754883809251 7.413691116324057
Pd 7.243507030214951 7.118506560068008 4.088237843370317
Pd 8.986546907816066 6.128159698506257 7.384303239551658
Pd 8.841399797779331 8.461291793235091 5.966477615443368
Pd 5.825365110584323 4.894990240682676 3.4529841594108515
Pd 10.018450265033369 8.258045037085047 8.380288843161846
Pd 6.491870421556192 7.064602264291144 6.61362065700492
Pd 7.929133926543711 9.706507752996322 3.8804660462754526
Pd 8.191894230623332 6.697544907908919 9.823642133734758
Pd 5.001007199567483 4.62879012923462 6.861639705986343
Pd 5.614512777127108 6.9220215394489975 9.09986306295426
Pd 3.488144665009938 4.336074097332294 4.709284983136696
Pd 7.502513100224804 8.80191079798192 8.4028906651791
Pd 4.561329941331407 6.759936154672619 4.735915932565036
Pd 7.161375205680721 10.473989473693507 6.4222531461960175
Pd 2.3745075514224445 4.526762358770422 7.102644690363091
Pd 5.576578033647646 9.185550094130427 4.7898486084755065
Pd 5.031011848902776 9.124297119451509 7.499478589324257
Pd 3.6293117441813787 6.832434131841731 7.396890771910265
Pd 1.943969505142875 6.444458962948893 5.341946087984324
Pd 3.1456391858593085 8.84967165045679 5.644756407903661
