22
Energy = -87.96120078 eV
Pd 3.239585711187111 8.390422942830295 8.11320839909007
Pd 4.478367067340678 8.315827059360936 10.33301603734701
Pd 5.470457137950622 5.610604011144417 6.456247158501377
Pd 5.220545655135278 8.306553447590343 6.508877100844571
Pd 4.590330744809454 6.144313205178088 8.847219545423501
Pd 2.9535506216697387 6.237699081772695 6.593968742783383
Pd 8.607537274770664 6.895332268769128 2.9241447972300407
Pd 9.027235100922788 7.689294447114638 9.048224536888958
Pd 7.770467077407766 7.2932970303742515 6.65649008588136
Pd 5.617957502535898 3.730390131955217 8.26611222586688
Pd 11.440770680410692 6.663564564837877 9.022762119304373
Pd 2.814429815664973 8.59981813721838 5.49098842593916
Pd 6.820123580369162 5.500546352333665 4.280848629922063
Pd 7.2056246837801305 5.752371399726951 8.779606249650637
Pd 10.535112736908612 7.632055479438253 6.808137638031968
Pd 9.351256885928649 5.805271456394605 5.180339136952828
Pd 6.526055115678153 8.324254156029323 8.809298220130792
Pd 9.187341673733838 8.63040014273807 4.815697303774459
Pd 9.634469496377415 5.2802301515772125 7.8047408126967035
Pd 7.64642552061829 4.1349622033397875 6.546139301170196
Pd 4.365481837969566 6.798198242078037 4.313580313206709
Pd 6.644800235385417 8.111129281124411 4.335103374742902
